MODEL 1
REMARK VINA RESULT:      -7.7      0.000      0.000
REMARK  Name = 
REMARK  4 active torsions:
REMARK  status: ('A' for Active; 'I' for Inactive)
REMARK    1  A    between atoms: C_6  and  C_7
REMARK    2  A    between atoms: N_10  and  C_11
REMARK    3  A    between atoms: C_18  and  O_19
REMARK    4  A    between atoms: O_19  and  C_20
REMARK                            x       y       z     vdW  Elec       q    Type
REMARK                         _______ _______ _______ _____ _____    ______ ____
ROOT
ATOM      1  C   UNL     1       0.399   8.828  21.027  0.00  0.00    +0.000 A 
ATOM      2  C   UNL     1       0.536   9.647  19.918  0.00  0.00    +0.000 A 
ATOM      3  C   UNL     1       1.412   9.160  18.954  0.00  0.00    +0.000 A 
ATOM      4  N   UNL     1       1.803   9.672  17.751  0.00  0.00    +0.000 N 
ATOM      5  N   UNL     1       2.706   8.928  17.105  0.00  0.00    +0.000 NA
ATOM      6  C   UNL     1       2.911   7.878  17.919  0.00  0.00    +0.000 A 
ATOM      7  C   UNL     1       2.102   7.952  19.085  0.00  0.00    +0.000 A 
ATOM      8  C   UNL     1       1.899   7.209  20.254  0.00  0.00    +0.000 A 
ATOM      9  N   UNL     1       1.036   7.648  21.208  0.00  0.00    +0.000 NA
ATOM     10  H   UNL     1       1.518  10.546  17.324  0.00  0.00    +0.000 HD
ENDROOT
BRANCH   6  11
ATOM     11  C   UNL     1       3.967   6.919  17.591  0.00  0.00    +0.000 A 
ATOM     12  C   UNL     1       5.312   7.319  17.576  0.00  0.00    +0.000 A 
ATOM     13  N   UNL     1       6.138   6.323  17.279  0.00  0.00    +0.000 NA
ATOM     14  N   UNL     1       5.314   5.346  16.867  0.00  0.00    +0.000 N 
ATOM     15  C   UNL     1       3.992   5.597  17.182  0.00  0.00    +0.000 A 
BRANCH  14  16
ATOM     16  C   UNL     1       5.834   4.395  15.899  0.00  0.00    +0.000 C 
ATOM     17  C   UNL     1       4.974   4.359  14.648  0.00  0.00    +0.000 C 
ATOM     18  C   UNL     1       5.926   3.908  13.564  0.00  0.00    +0.000 C 
ATOM     19  O   UNL     1       7.254   4.238  13.974  0.00  0.00    +0.000 OA
ATOM     20  C   UNL     1       7.198   4.772  15.307  0.00  0.00    +0.000 C 
ENDBRANCH  14  16
ENDBRANCH   6  11
BRANCH   8  21
ATOM     21  O   UNL     1       2.523   5.998  20.414  0.00  0.00    +0.000 OA
BRANCH  21  22
ATOM     22  C   UNL     1       1.636   4.885  20.539  0.00  0.00    +0.000 C 
ATOM     23  C   UNL     1       2.282   3.923  21.535  0.00  0.00    +0.000 C 
ATOM     24  C   UNL     1       1.579   2.580  21.517  0.00  0.00    +0.000 C 
ATOM     25  O   UNL     1       1.564   2.041  20.195  0.00  0.00    +0.000 OA
ATOM     26  C   UNL     1       0.844   2.869  19.283  0.00  0.00    +0.000 C 
ATOM     27  C   UNL     1       1.499   4.233  19.166  0.00  0.00    +0.000 C 
ENDBRANCH  21  22
ENDBRANCH   8  21
TORSDOF 4
ENDMDL
MODEL 2
REMARK VINA RESULT:      -7.5      2.490      5.136
REMARK  Name = 
REMARK  4 active torsions:
REMARK  status: ('A' for Active; 'I' for Inactive)
REMARK    1  A    between atoms: C_6  and  C_7
REMARK    2  A    between atoms: N_10  and  C_11
REMARK    3  A    between atoms: C_18  and  O_19
REMARK    4  A    between atoms: O_19  and  C_20
REMARK                            x       y       z     vdW  Elec       q    Type
REMARK                         _______ _______ _______ _____ _____    ______ ____
ROOT
ATOM      1  C   UNL     1       0.643   3.238  20.265  0.00  0.00    +0.000 A 
ATOM      2  C   UNL     1       1.225   2.242  19.498  0.00  0.00    +0.000 A 
ATOM      3  C   UNL     1       2.367   2.643  18.813  0.00  0.00    +0.000 A 
ATOM      4  N   UNL     1       3.198   1.962  17.971  0.00  0.00    +0.000 N 
ATOM      5  N   UNL     1       4.188   2.702  17.461  0.00  0.00    +0.000 NA
ATOM      6  C   UNL     1       4.000   3.919  17.998  0.00  0.00    +0.000 A 
ATOM      7  C   UNL     1       2.887   3.937  18.882  0.00  0.00    +0.000 A 
ATOM      8  C   UNL     1       2.211   4.871  19.677  0.00  0.00    +0.000 A 
ATOM      9  N   UNL     1       1.102   4.506  20.374  0.00  0.00    +0.000 NA
ATOM     10  H   UNL     1       3.128   0.997  17.673  0.00  0.00    +0.000 HD
ENDROOT
BRANCH   6  11
ATOM     11  C   UNL     1       4.828   5.035  17.538  0.00  0.00    +0.000 A 
ATOM     12  C   UNL     1       5.206   5.132  16.189  0.00  0.00    +0.000 A 
ATOM     13  N   UNL     1       5.936   6.212  15.939  0.00  0.00    +0.000 NA
ATOM     14  N   UNL     1       6.233   6.679  17.164  0.00  0.00    +0.000 N 
ATOM     15  C   UNL     1       5.463   6.099  18.154  0.00  0.00    +0.000 A 
BRANCH  14  16
ATOM     16  C   UNL     1       7.477   7.414  17.318  0.00  0.00    +0.000 C 
ATOM     17  C   UNL     1       7.224   8.908  17.413  0.00  0.00    +0.000 C 
ATOM     18  C   UNL     1       8.404   9.429  18.201  0.00  0.00    +0.000 C 
ATOM     19  O   UNL     1       8.927   8.352  18.980  0.00  0.00    +0.000 OA
ATOM     20  C   UNL     1       8.207   7.155  18.641  0.00  0.00    +0.000 C 
ENDBRANCH  14  16
ENDBRANCH   6  11
BRANCH   8  21
ATOM     21  O   UNL     1       2.702   6.144  19.808  0.00  0.00    +0.000 OA
BRANCH  21  22
ATOM     22  C   UNL     1       1.791   7.174  19.419  0.00  0.00    +0.000 C 
ATOM     23  C   UNL     1       2.445   7.918  18.256  0.00  0.00    +0.000 C 
ATOM     24  C   UNL     1       1.707   9.209  17.962  0.00  0.00    +0.000 C 
ATOM     25  O   UNL     1       1.632  10.021  19.133  0.00  0.00    +0.000 OA
ATOM     26  C   UNL     1       0.904   9.387  20.184  0.00  0.00    +0.000 C 
ATOM     27  C   UNL     1       1.590   8.104  20.612  0.00  0.00    +0.000 C 
ENDBRANCH  21  22
ENDBRANCH   8  21
TORSDOF 4
ENDMDL
MODEL 3
REMARK VINA RESULT:      -7.3      1.253      1.851
REMARK  Name = 
REMARK  4 active torsions:
REMARK  status: ('A' for Active; 'I' for Inactive)
REMARK    1  A    between atoms: C_6  and  C_7
REMARK    2  A    between atoms: N_10  and  C_11
REMARK    3  A    between atoms: C_18  and  O_19
REMARK    4  A    between atoms: O_19  and  C_20
REMARK                            x       y       z     vdW  Elec       q    Type
REMARK                         _______ _______ _______ _____ _____    ______ ____
ROOT
ATOM      1  C   UNL     1       0.179   8.733  21.459  0.00  0.00    +0.000 A 
ATOM      2  C   UNL     1       0.179   9.686  20.452  0.00  0.00    +0.000 A 
ATOM      3  C   UNL     1       0.995   9.374  19.371  0.00  0.00    +0.000 A 
ATOM      4  N   UNL     1       1.255  10.050  18.214  0.00  0.00    +0.000 N 
ATOM      5  N   UNL     1       2.139   9.448  17.413  0.00  0.00    +0.000 NA
ATOM      6  C   UNL     1       2.468   8.323  18.072  0.00  0.00    +0.000 A 
ATOM      7  C   UNL     1       1.757   8.206  19.298  0.00  0.00    +0.000 A 
ATOM      8  C   UNL     1       1.694   7.317  20.377  0.00  0.00    +0.000 A 
ATOM      9  N   UNL     1       0.892   7.584  21.442  0.00  0.00    +0.000 NA
ATOM     10  H   UNL     1       0.889  10.949  17.922  0.00  0.00    +0.000 HD
ENDROOT
BRANCH   6  11
ATOM     11  C   UNL     1       3.543   7.480  17.547  0.00  0.00    +0.000 A 
ATOM     12  C   UNL     1       3.369   6.091  17.436  0.00  0.00    +0.000 A 
ATOM     13  N   UNL     1       4.431   5.483  16.923  0.00  0.00    +0.000 NA
ATOM     14  N   UNL     1       5.374   6.439  16.931  0.00  0.00    +0.000 N 
ATOM     15  C   UNL     1       4.850   7.699  17.151  0.00  0.00    +0.000 A 
BRANCH  14  16
ATOM     16  C   UNL     1       6.758   6.016  17.058  0.00  0.00    +0.000 C 
ATOM     17  C   UNL     1       7.141   5.819  18.514  0.00  0.00    +0.000 C 
ATOM     18  C   UNL     1       8.260   4.804  18.463  0.00  0.00    +0.000 C 
ATOM     19  O   UNL     1       8.128   4.058  17.253  0.00  0.00    +0.000 OA
ATOM     20  C   UNL     1       7.051   4.622  16.487  0.00  0.00    +0.000 C 
ENDBRANCH  14  16
ENDBRANCH   6  11
BRANCH   8  21
ATOM     21  O   UNL     1       2.394   6.139  20.337  0.00  0.00    +0.000 OA
BRANCH  21  22
ATOM     22  C   UNL     1       1.598   4.969  20.537  0.00  0.00    +0.000 C 
ATOM     23  C   UNL     1       2.364   4.084  21.520  0.00  0.00    +0.000 C 
ATOM     24  C   UNL     1       1.760   2.694  21.573  0.00  0.00    +0.000 C 
ATOM     25  O   UNL     1       1.716   2.118  20.269  0.00  0.00    +0.000 OA
ATOM     26  C   UNL     1       0.892   2.866  19.376  0.00  0.00    +0.000 C 
ATOM     27  C   UNL     1       1.438   4.269  19.191  0.00  0.00    +0.000 C 
ENDBRANCH  21  22
ENDBRANCH   8  21
TORSDOF 4
ENDMDL
MODEL 4
REMARK VINA RESULT:      -7.2      1.454      1.626
REMARK  Name = 
REMARK  4 active torsions:
REMARK  status: ('A' for Active; 'I' for Inactive)
REMARK    1  A    between atoms: C_6  and  C_7
REMARK    2  A    between atoms: N_10  and  C_11
REMARK    3  A    between atoms: C_18  and  O_19
REMARK    4  A    between atoms: O_19  and  C_20
REMARK                            x       y       z     vdW  Elec       q    Type
REMARK                         _______ _______ _______ _____ _____    ______ ____
ROOT
ATOM      1  C   UNL     1       1.345   7.432  20.986  0.00  0.00    +0.000 A 
ATOM      2  C   UNL     1       1.251   8.372  19.973  0.00  0.00    +0.000 A 
ATOM      3  C   UNL     1       2.076   8.121  18.882  0.00  0.00    +0.000 A 
ATOM      4  N   UNL     1       2.263   8.807  17.717  0.00  0.00    +0.000 N 
ATOM      5  N   UNL     1       3.184   8.274  16.909  0.00  0.00    +0.000 NA
ATOM      6  C   UNL     1       3.615   7.186  17.571  0.00  0.00    +0.000 A 
ATOM      7  C   UNL     1       2.933   7.020  18.807  0.00  0.00    +0.000 A 
ATOM      8  C   UNL     1       2.959   6.138  19.894  0.00  0.00    +0.000 A 
ATOM      9  N   UNL     1       2.152   6.345  20.968  0.00  0.00    +0.000 NA
ATOM     10  H   UNL     1       1.819   9.669  17.424  0.00  0.00    +0.000 HD
ENDROOT
BRANCH   6  11
ATOM     11  C   UNL     1       4.750   6.431  17.037  0.00  0.00    +0.000 A 
ATOM     12  C   UNL     1       6.022   7.019  16.958  0.00  0.00    +0.000 A 
ATOM     13  N   UNL     1       6.938   6.192  16.470  0.00  0.00    +0.000 NA
ATOM     14  N   UNL     1       6.213   5.158  16.011  0.00  0.00    +0.000 N 
ATOM     15  C   UNL     1       4.908   5.181  16.466  0.00  0.00    +0.000 A 
BRANCH  14  16
ATOM     16  C   UNL     1       6.753   4.405  14.891  0.00  0.00    +0.000 C 
ATOM     17  C   UNL     1       5.642   3.834  14.028  0.00  0.00    +0.000 C 
ATOM     18  C   UNL     1       6.275   3.698  12.662  0.00  0.00    +0.000 C 
ATOM     19  O   UNL     1       7.362   4.621  12.583  0.00  0.00    +0.000 OA
ATOM     20  C   UNL     1       7.515   5.252  13.865  0.00  0.00    +0.000 C 
ENDBRANCH  14  16
ENDBRANCH   6  11
BRANCH   8  21
ATOM     21  O   UNL     1       3.755   5.022  19.853  0.00  0.00    +0.000 OA
BRANCH  21  22
ATOM     22  C   UNL     1       3.044   3.791  19.704  0.00  0.00    +0.000 C 
ATOM     23  C   UNL     1       4.044   2.774  19.155  0.00  0.00    +0.000 C 
ATOM     24  C   UNL     1       3.331   1.524  18.680  0.00  0.00    +0.000 C 
ATOM     25  O   UNL     1       2.331   1.853  17.717  0.00  0.00    +0.000 OA
ATOM     26  C   UNL     1       1.316   2.697  18.260  0.00  0.00    +0.000 C 
ATOM     27  C   UNL     1       1.905   4.019  18.715  0.00  0.00    +0.000 C 
ENDBRANCH  21  22
ENDBRANCH   8  21
TORSDOF 4
ENDMDL
MODEL 5
REMARK VINA RESULT:      -7.1      0.956      1.134
REMARK  Name = 
REMARK  4 active torsions:
REMARK  status: ('A' for Active; 'I' for Inactive)
REMARK    1  A    between atoms: C_6  and  C_7
REMARK    2  A    between atoms: N_10  and  C_11
REMARK    3  A    between atoms: C_18  and  O_19
REMARK    4  A    between atoms: O_19  and  C_20
REMARK                            x       y       z     vdW  Elec       q    Type
REMARK                         _______ _______ _______ _____ _____    ______ ____
ROOT
ATOM      1  C   UNL     1       0.874   8.170  21.000  0.00  0.00    +0.000 A 
ATOM      2  C   UNL     1       0.983   9.048  19.933  0.00  0.00    +0.000 A 
ATOM      3  C   UNL     1       1.835   8.615  18.923  0.00  0.00    +0.000 A 
ATOM      4  N   UNL     1       2.196   9.191  17.739  0.00  0.00    +0.000 N 
ATOM      5  N   UNL     1       3.083   8.485  17.033  0.00  0.00    +0.000 NA
ATOM      6  C   UNL     1       3.309   7.393  17.784  0.00  0.00    +0.000 A 
ATOM      7  C   UNL     1       2.529   7.404  18.972  0.00  0.00    +0.000 A 
ATOM      8  C   UNL     1       2.356   6.598  20.104  0.00  0.00    +0.000 A 
ATOM      9  N   UNL     1       1.517   6.984  21.101  0.00  0.00    +0.000 NA
ATOM     10  H   UNL     1       1.900  10.086  17.367  0.00  0.00    +0.000 HD
ENDROOT
BRANCH   6  11
ATOM     11  C   UNL     1       4.358   6.456  17.379  0.00  0.00    +0.000 A 
ATOM     12  C   UNL     1       5.700   6.705  17.705  0.00  0.00    +0.000 A 
ATOM     13  N   UNL     1       6.515   5.747  17.280  0.00  0.00    +0.000 NA
ATOM     14  N   UNL     1       5.736   5.007  16.475  0.00  0.00    +0.000 N 
ATOM     15  C   UNL     1       4.393   5.299  16.621  0.00  0.00    +0.000 A 
BRANCH  14  16
ATOM     16  C   UNL     1       6.380   4.305  15.378  0.00  0.00    +0.000 C 
ATOM     17  C   UNL     1       5.361   3.813  14.367  0.00  0.00    +0.000 C 
ATOM     18  C   UNL     1       6.137   3.738  13.072  0.00  0.00    +0.000 C 
ATOM     19  O   UNL     1       7.245   4.635  13.167  0.00  0.00    +0.000 OA
ATOM     20  C   UNL     1       7.269   5.188  14.493  0.00  0.00    +0.000 C 
ENDBRANCH  14  16
ENDBRANCH   6  11
BRANCH   8  21
ATOM     21  O   UNL     1       2.985   5.383  20.184  0.00  0.00    +0.000 OA
BRANCH  21  22
ATOM     22  C   UNL     1       2.444   4.377  19.325  0.00  0.00    +0.000 C 
ATOM     23  C   UNL     1       1.166   3.874  19.994  0.00  0.00    +0.000 C 
ATOM     24  C   UNL     1       0.672   2.607  19.325  0.00  0.00    +0.000 C 
ATOM     25  O   UNL     1       1.694   1.611  19.325  0.00  0.00    +0.000 OA
ATOM     26  C   UNL     1       2.845   2.018  18.586  0.00  0.00    +0.000 C 
ATOM     27  C   UNL     1       3.470   3.254  19.206  0.00  0.00    +0.000 C 
ENDBRANCH  21  22
ENDBRANCH   8  21
TORSDOF 4
ENDMDL
MODEL 6
REMARK VINA RESULT:      -7.0      1.886      6.236
REMARK  Name = 
REMARK  4 active torsions:
REMARK  status: ('A' for Active; 'I' for Inactive)
REMARK    1  A    between atoms: C_6  and  C_7
REMARK    2  A    between atoms: N_10  and  C_11
REMARK    3  A    between atoms: C_18  and  O_19
REMARK    4  A    between atoms: O_19  and  C_20
REMARK                            x       y       z     vdW  Elec       q    Type
REMARK                         _______ _______ _______ _____ _____    ______ ____
ROOT
ATOM      1  C   UNL     1       4.942   3.186  16.129  0.00  0.00    +0.000 A 
ATOM      2  C   UNL     1       5.724   4.298  15.861  0.00  0.00    +0.000 A 
ATOM      3  C   UNL     1       5.279   5.469  16.464  0.00  0.00    +0.000 A 
ATOM      4  N   UNL     1       5.770   6.742  16.435  0.00  0.00    +0.000 N 
ATOM      5  N   UNL     1       5.038   7.628  17.117  0.00  0.00    +0.000 NA
ATOM      6  C   UNL     1       4.026   6.902  17.621  0.00  0.00    +0.000 A 
ATOM      7  C   UNL     1       4.139   5.529  17.270  0.00  0.00    +0.000 A 
ATOM      8  C   UNL     1       3.414   4.348  17.465  0.00  0.00    +0.000 A 
ATOM      9  N   UNL     1       3.833   3.183  16.903  0.00  0.00    +0.000 NA
ATOM     10  H   UNL     1       6.584   7.083  15.938  0.00  0.00    +0.000 HD
ENDROOT
BRANCH   6  11
ATOM     11  C   UNL     1       2.933   7.589  18.313  0.00  0.00    +0.000 A 
ATOM     12  C   UNL     1       2.297   8.691  17.720  0.00  0.00    +0.000 A 
ATOM     13  N   UNL     1       1.318   9.180  18.471  0.00  0.00    +0.000 NA
ATOM     14  N   UNL     1       1.482   8.551  19.647  0.00  0.00    +0.000 N 
ATOM     15  C   UNL     1       2.340   7.472  19.557  0.00  0.00    +0.000 A 
BRANCH  14  16
ATOM     16  C   UNL     1       1.052   9.250  20.846  0.00  0.00    +0.000 C 
ATOM     17  C   UNL     1       0.092  10.377  20.510  0.00  0.00    +0.000 C 
ATOM     18  C   UNL     1      -0.736  10.538  21.764  0.00  0.00    +0.000 C 
ATOM     19  O   UNL     1      -0.702   9.303  22.480  0.00  0.00    +0.000 OA
ATOM     20  C   UNL     1       0.194   8.409  21.799  0.00  0.00    +0.000 C 
ENDBRANCH  14  16
ENDBRANCH   6  11
BRANCH   8  21
ATOM     21  O   UNL     1       2.310   4.346  18.277  0.00  0.00    +0.000 OA
BRANCH  21  22
ATOM     22  C   UNL     1       2.281   3.288  19.238  0.00  0.00    +0.000 C 
ATOM     23  C   UNL     1       1.164   3.626  20.225  0.00  0.00    +0.000 C 
ATOM     24  C   UNL     1       1.240   2.733  21.447  0.00  0.00    +0.000 C 
ATOM     25  O   UNL     1       2.527   2.825  22.055  0.00  0.00    +0.000 OA
ATOM     26  C   UNL     1       3.568   2.383  21.185  0.00  0.00    +0.000 C 
ATOM     27  C   UNL     1       3.633   3.251  19.942  0.00  0.00    +0.000 C 
ENDBRANCH  21  22
ENDBRANCH   8  21
TORSDOF 4
ENDMDL
MODEL 7
REMARK VINA RESULT:      -7.0      1.828      6.177
REMARK  Name = 
REMARK  4 active torsions:
REMARK  status: ('A' for Active; 'I' for Inactive)
REMARK    1  A    between atoms: C_6  and  C_7
REMARK    2  A    between atoms: N_10  and  C_11
REMARK    3  A    between atoms: C_18  and  O_19
REMARK    4  A    between atoms: O_19  and  C_20
REMARK                            x       y       z     vdW  Elec       q    Type
REMARK                         _______ _______ _______ _____ _____    ______ ____
ROOT
ATOM      1  C   UNL     1       6.215   3.691  15.600  0.00  0.00    +0.000 A 
ATOM      2  C   UNL     1       6.968   4.835  15.810  0.00  0.00    +0.000 A 
ATOM      3  C   UNL     1       6.302   5.837  16.508  0.00  0.00    +0.000 A 
ATOM      4  N   UNL     1       6.701   7.083  16.896  0.00  0.00    +0.000 N 
ATOM      5  N   UNL     1       5.758   7.790  17.524  0.00  0.00    +0.000 NA
ATOM      6  C   UNL     1       4.695   6.968  17.555  0.00  0.00    +0.000 A 
ATOM      7  C   UNL     1       4.986   5.712  16.957  0.00  0.00    +0.000 A 
ATOM      8  C   UNL     1       4.311   4.517  16.679  0.00  0.00    +0.000 A 
ATOM      9  N   UNL     1       4.939   3.511  16.015  0.00  0.00    +0.000 NA
ATOM     10  H   UNL     1       7.596   7.529  16.732  0.00  0.00    +0.000 HD
ENDROOT
BRANCH   6  11
ATOM     11  C   UNL     1       3.415   7.479  18.048  0.00  0.00    +0.000 A 
ATOM     12  C   UNL     1       2.792   8.567  17.417  0.00  0.00    +0.000 A 
ATOM     13  N   UNL     1       1.632   8.888  17.978  0.00  0.00    +0.000 NA
ATOM     14  N   UNL     1       1.624   8.168  19.113  0.00  0.00    +0.000 N 
ATOM     15  C   UNL     1       2.599   7.189  19.127  0.00  0.00    +0.000 A 
BRANCH  14  16
ATOM     16  C   UNL     1       0.884   8.706  20.242  0.00  0.00    +0.000 C 
ATOM     17  C   UNL     1       1.496   8.264  21.559  0.00  0.00    +0.000 C 
ATOM     18  C   UNL     1       1.101   9.355  22.529  0.00  0.00    +0.000 C 
ATOM     19  O   UNL     1       0.848  10.544  21.780  0.00  0.00    +0.000 OA
ATOM     20  C   UNL     1       0.957  10.231  20.381  0.00  0.00    +0.000 C 
ENDBRANCH  14  16
ENDBRANCH   6  11
BRANCH   8  21
ATOM     21  O   UNL     1       3.030   4.330  17.131  0.00  0.00    +0.000 OA
BRANCH  21  22
ATOM     22  C   UNL     1       2.883   3.265  18.072  0.00  0.00    +0.000 C 
ATOM     23  C   UNL     1       1.391   3.168  18.390  0.00  0.00    +0.000 C 
ATOM     24  C   UNL     1       1.155   2.276  19.593  0.00  0.00    +0.000 C 
ATOM     25  O   UNL     1       1.905   2.741  20.715  0.00  0.00    +0.000 OA
ATOM     26  C   UNL     1       3.312   2.708  20.475  0.00  0.00    +0.000 C 
ATOM     27  C   UNL     1       3.681   3.622  19.322  0.00  0.00    +0.000 C 
ENDBRANCH  21  22
ENDBRANCH   8  21
TORSDOF 4
ENDMDL
MODEL 8
REMARK VINA RESULT:      -7.0      2.659      6.918
REMARK  Name = 
REMARK  4 active torsions:
REMARK  status: ('A' for Active; 'I' for Inactive)
REMARK    1  A    between atoms: C_6  and  C_7
REMARK    2  A    between atoms: N_10  and  C_11
REMARK    3  A    between atoms: C_18  and  O_19
REMARK    4  A    between atoms: O_19  and  C_20
REMARK                            x       y       z     vdW  Elec       q    Type
REMARK                         _______ _______ _______ _____ _____    ______ ____
ROOT
ATOM      1  C   UNL     1       3.801   1.944  18.335  0.00  0.00    +0.000 A 
ATOM      2  C   UNL     1       2.667   1.755  19.107  0.00  0.00    +0.000 A 
ATOM      3  C   UNL     1       2.041   2.933  19.501  0.00  0.00    +0.000 A 
ATOM      4  N   UNL     1       0.925   3.152  20.254  0.00  0.00    +0.000 N 
ATOM      5  N   UNL     1       0.646   4.443  20.460  0.00  0.00    +0.000 NA
ATOM      6  C   UNL     1       1.620   5.098  19.806  0.00  0.00    +0.000 A 
ATOM      7  C   UNL     1       2.512   4.202  19.156  0.00  0.00    +0.000 A 
ATOM      8  C   UNL     1       3.676   4.279  18.383  0.00  0.00    +0.000 A 
ATOM      9  N   UNL     1       4.302   3.146  17.967  0.00  0.00    +0.000 NA
ATOM     10  H   UNL     1       0.324   2.463  20.691  0.00  0.00    +0.000 HD
ENDROOT
BRANCH   6  11
ATOM     11  C   UNL     1       1.714   6.553  19.942  0.00  0.00    +0.000 A 
ATOM     12  C   UNL     1       1.340   7.181  21.141  0.00  0.00    +0.000 A 
ATOM     13  N   UNL     1       1.506   8.497  21.101  0.00  0.00    +0.000 NA
ATOM     14  N   UNL     1       1.755   8.742  19.804  0.00  0.00    +0.000 N 
ATOM     15  C   UNL     1       2.044   7.594  19.092  0.00  0.00    +0.000 A 
BRANCH  14  16
ATOM     16  C   UNL     1       1.363  10.040  19.280  0.00  0.00    +0.000 C 
ATOM     17  C   UNL     1       0.086   9.940  18.466  0.00  0.00    +0.000 C 
ATOM     18  C   UNL     1      -0.523  11.320  18.572  0.00  0.00    +0.000 C 
ATOM     19  O   UNL     1      -0.024  11.935  19.760  0.00  0.00    +0.000 OA
ATOM     20  C   UNL     1       0.951  11.059  20.350  0.00  0.00    +0.000 C 
ENDBRANCH  14  16
ENDBRANCH   6  11
BRANCH   8  21
ATOM     21  O   UNL     1       4.158   5.500  17.987  0.00  0.00    +0.000 OA
BRANCH  21  22
ATOM     22  C   UNL     1       5.569   5.539  17.768  0.00  0.00    +0.000 C 
ATOM     23  C   UNL     1       6.227   5.396  19.140  0.00  0.00    +0.000 C 
ATOM     24  C   UNL     1       7.706   5.722  19.062  0.00  0.00    +0.000 C 
ATOM     25  O   UNL     1       7.903   7.025  18.515  0.00  0.00    +0.000 OA
ATOM     26  C   UNL     1       7.411   7.129  17.179  0.00  0.00    +0.000 C 
ATOM     27  C   UNL     1       5.914   6.885  17.139  0.00  0.00    +0.000 C 
ENDBRANCH  21  22
ENDBRANCH   8  21
TORSDOF 4
ENDMDL
MODEL 9
REMARK VINA RESULT:      -6.8      1.835      6.207
REMARK  Name = 
REMARK  4 active torsions:
REMARK  status: ('A' for Active; 'I' for Inactive)
REMARK    1  A    between atoms: C_6  and  C_7
REMARK    2  A    between atoms: N_10  and  C_11
REMARK    3  A    between atoms: C_18  and  O_19
REMARK    4  A    between atoms: O_19  and  C_20
REMARK                            x       y       z     vdW  Elec       q    Type
REMARK                         _______ _______ _______ _____ _____    ______ ____
ROOT
ATOM      1  C   UNL     1       5.961   3.692  16.787  0.00  0.00    +0.000 A 
ATOM      2  C   UNL     1       5.978   4.710  15.848  0.00  0.00    +0.000 A 
ATOM      3  C   UNL     1       5.215   5.820  16.195  0.00  0.00    +0.000 A 
ATOM      4  N   UNL     1       4.984   6.995  15.542  0.00  0.00    +0.000 N 
ATOM      5  N   UNL     1       4.149   7.822  16.178  0.00  0.00    +0.000 NA
ATOM      6  C   UNL     1       3.823   7.161  17.303  0.00  0.00    +0.000 A 
ATOM      7  C   UNL     1       4.487   5.906  17.384  0.00  0.00    +0.000 A 
ATOM      8  C   UNL     1       4.530   4.813  18.257  0.00  0.00    +0.000 A 
ATOM      9  N   UNL     1       5.280   3.720  17.955  0.00  0.00    +0.000 NA
ATOM     10  H   UNL     1       5.338   7.285  14.638  0.00  0.00    +0.000 HD
ENDROOT
BRANCH   6  11
ATOM     11  C   UNL     1       2.793   7.717  18.182  0.00  0.00    +0.000 A 
ATOM     12  C   UNL     1       2.119   8.897  17.831  0.00  0.00    +0.000 A 
ATOM     13  N   UNL     1       1.205   9.249  18.727  0.00  0.00    +0.000 NA
ATOM     14  N   UNL     1       1.458   8.437  19.766  0.00  0.00    +0.000 N 
ATOM     15  C   UNL     1       2.300   7.393  19.433  0.00  0.00    +0.000 A 
BRANCH  14  16
ATOM     16  C   UNL     1       1.128   8.926  21.094  0.00  0.00    +0.000 C 
ATOM     17  C   UNL     1       0.722  10.388  21.056  0.00  0.00    +0.000 C 
ATOM     18  C   UNL     1      -0.180  10.549  22.258  0.00  0.00    +0.000 C 
ATOM     19  O   UNL     1      -0.723   9.268  22.580  0.00  0.00    +0.000 OA
ATOM     20  C   UNL     1      -0.124   8.291  21.712  0.00  0.00    +0.000 C 
ENDBRANCH  14  16
ENDBRANCH   6  11
BRANCH   8  21
ATOM     21  O   UNL     1       3.863   4.864  19.454  0.00  0.00    +0.000 OA
BRANCH  21  22
ATOM     22  C   UNL     1       3.059   3.717  19.735  0.00  0.00    +0.000 C 
ATOM     23  C   UNL     1       1.936   3.707  18.698  0.00  0.00    +0.000 C 
ATOM     24  C   UNL     1       0.860   2.710  19.081  0.00  0.00    +0.000 C 
ATOM     25  O   UNL     1       0.367   2.986  20.392  0.00  0.00    +0.000 OA
ATOM     26  C   UNL     1       1.382   2.865  21.388  0.00  0.00    +0.000 C 
ATOM     27  C   UNL     1       2.493   3.868  21.144  0.00  0.00    +0.000 C 
ENDBRANCH  21  22
ENDBRANCH   8  21
TORSDOF 4
ENDMDL
