MODEL 1
REMARK VINA RESULT:      -7.9      0.000      0.000
REMARK  Name = 
REMARK  6 active torsions:
REMARK  status: ('A' for Active; 'I' for Inactive)
REMARK    1  A    between atoms: C_2  and  C_3
REMARK    2  A    between atoms: C_3  and  C_4
REMARK    3  A    between atoms: C_4  and  C_5
REMARK    4  A    between atoms: N_14  and  C_15
REMARK    5  A    between atoms: C_15  and  C_16
REMARK    6  A    between atoms: C_19  and  C_20
REMARK                            x       y       z     vdW  Elec       q    Type
REMARK                         _______ _______ _______ _____ _____    ______ ____
ROOT
ATOM      1  O   UNL     1       5.857   7.054  16.114  0.00  0.00    +0.000 OA
ATOM      2  C   UNL     1       5.399   6.457  17.081  0.00  0.00    +0.000 C 
ATOM      3  N   UNL     1       4.154   6.719  17.615  0.00  0.00    +0.000 N 
ATOM      4  H   UNL     1       3.816   6.155  18.385  0.00  0.00    +0.000 HD
ENDROOT
BRANCH   2   5
ATOM      5  C   UNL     1       6.130   5.316  17.772  0.00  0.00    +0.000 C 
BRANCH   5   6
ATOM      6  C   UNL     1       5.570   3.960  17.345  0.00  0.00    +0.000 C 
BRANCH   6   7
ATOM      7  C   UNL     1       4.275   3.623  18.052  0.00  0.00    +0.000 A 
ATOM      8  C   UNL     1       3.078   3.463  17.316  0.00  0.00    +0.000 A 
ATOM      9  C   UNL     1       1.876   3.136  17.955  0.00  0.00    +0.000 A 
ATOM     10  C   UNL     1       1.897   2.989  19.324  0.00  0.00    +0.000 A 
ATOM     11  C   UNL     1       3.053   3.150  20.052  0.00  0.00    +0.000 A 
ATOM     12  C   UNL     1       4.255   3.464  19.447  0.00  0.00    +0.000 A 
ATOM     13  O   UNL     1       2.857   2.968  21.384  0.00  0.00    +0.000 OA
ATOM     14  C   UNL     1       1.435   2.729  21.417  0.00  0.00    +0.000 C 
ATOM     15  O   UNL     1       0.830   2.678  20.109  0.00  0.00    +0.000 OA
ENDBRANCH   6   7
ENDBRANCH   5   6
ENDBRANCH   2   5
BRANCH   3  16
ATOM     16  C   UNL     1       3.282   7.751  17.101  0.00  0.00    +0.000 C 
BRANCH  16  17
ATOM     17  C   UNL     1       2.417   8.337  18.189  0.00  0.00    +0.000 A 
ATOM     18  C   UNL     1       1.845   9.608  18.054  0.00  0.00    +0.000 A 
ATOM     19  C   UNL     1       1.065  10.155  19.081  0.00  0.00    +0.000 A 
ATOM     20  C   UNL     1       0.828   9.447  20.269  0.00  0.00    +0.000 A 
ATOM     21  C   UNL     1       1.391   8.166  20.390  0.00  0.00    +0.000 A 
ATOM     22  C   UNL     1       2.182   7.623  19.371  0.00  0.00    +0.000 A 
BRANCH  20  23
ATOM     23  C   UNL     1      -0.001  10.034  21.340  0.00  0.00    +0.000 A 
ATOM     24  C   UNL     1      -0.280   9.529  22.600  0.00  0.00    +0.000 A 
ATOM     25  C   UNL     1      -1.131  10.379  23.366  0.00  0.00    +0.000 A 
ATOM     26  C   UNL     1      -1.488  11.511  22.669  0.00  0.00    +0.000 A 
ATOM     27  S   UNL     1      -0.811  11.536  21.104  0.00  0.00    +0.000 S 
ENDBRANCH  20  23
ENDBRANCH  16  17
ENDBRANCH   3  16
TORSDOF 6
ENDMDL
MODEL 2
REMARK VINA RESULT:      -7.9      5.835      9.444
REMARK  Name = 
REMARK  6 active torsions:
REMARK  status: ('A' for Active; 'I' for Inactive)
REMARK    1  A    between atoms: C_2  and  C_3
REMARK    2  A    between atoms: C_3  and  C_4
REMARK    3  A    between atoms: C_4  and  C_5
REMARK    4  A    between atoms: N_14  and  C_15
REMARK    5  A    between atoms: C_15  and  C_16
REMARK    6  A    between atoms: C_19  and  C_20
REMARK                            x       y       z     vdW  Elec       q    Type
REMARK                         _______ _______ _______ _____ _____    ______ ____
ROOT
ATOM      1  O   UNL     1       8.638   7.625  18.877  0.00  0.00    +0.000 OA
ATOM      2  C   UNL     1       8.139   8.338  18.015  0.00  0.00    +0.000 C 
ATOM      3  N   UNL     1       7.511   7.843  16.890  0.00  0.00    +0.000 N 
ATOM      4  H   UNL     1       7.077   8.486  16.241  0.00  0.00    +0.000 HD
ENDROOT
BRANCH   2   5
ATOM      5  C   UNL     1       8.106   9.855  18.112  0.00  0.00    +0.000 C 
BRANCH   5   6
ATOM      6  C   UNL     1       9.241  10.379  18.989  0.00  0.00    +0.000 C 
BRANCH   6   7
ATOM      7  C   UNL     1       9.517  11.850  18.757  0.00  0.00    +0.000 A 
ATOM      8  C   UNL     1       8.853  12.833  19.528  0.00  0.00    +0.000 A 
ATOM      9  C   UNL     1       9.108  14.196  19.335  0.00  0.00    +0.000 A 
ATOM     10  C   UNL     1      10.016  14.546  18.360  0.00  0.00    +0.000 A 
ATOM     11  C   UNL     1      10.662  13.600  17.599  0.00  0.00    +0.000 A 
ATOM     12  C   UNL     1      10.436  12.248  17.773  0.00  0.00    +0.000 A 
ATOM     13  O   UNL     1      11.510  14.154  16.693  0.00  0.00    +0.000 OA
ATOM     14  C   UNL     1      11.282  15.558  16.934  0.00  0.00    +0.000 C 
ATOM     15  O   UNL     1      10.384  15.814  18.033  0.00  0.00    +0.000 OA
ENDBRANCH   6   7
ENDBRANCH   5   6
ENDBRANCH   2   5
BRANCH   3  16
ATOM     16  C   UNL     1       7.413   6.428  16.607  0.00  0.00    +0.000 C 
BRANCH  16  17
ATOM     17  C   UNL     1       6.211   5.812  17.279  0.00  0.00    +0.000 A 
ATOM     18  C   UNL     1       6.340   4.680  18.094  0.00  0.00    +0.000 A 
ATOM     19  C   UNL     1       5.215   4.097  18.692  0.00  0.00    +0.000 A 
ATOM     20  C   UNL     1       3.932   4.632  18.501  0.00  0.00    +0.000 A 
ATOM     21  C   UNL     1       3.814   5.777  17.698  0.00  0.00    +0.000 A 
ATOM     22  C   UNL     1       4.935   6.353  17.087  0.00  0.00    +0.000 A 
BRANCH  20  23
ATOM     23  C   UNL     1       2.757   4.011  19.145  0.00  0.00    +0.000 A 
ATOM     24  C   UNL     1       1.763   3.232  18.574  0.00  0.00    +0.000 A 
ATOM     25  C   UNL     1       0.777   2.809  19.513  0.00  0.00    +0.000 A 
ATOM     26  C   UNL     1       1.038   3.281  20.779  0.00  0.00    +0.000 A 
ATOM     27  S   UNL     1       2.452   4.234  20.826  0.00  0.00    +0.000 S 
ENDBRANCH  20  23
ENDBRANCH  16  17
ENDBRANCH   3  16
TORSDOF 6
ENDMDL
MODEL 3
REMARK VINA RESULT:      -7.8      5.637      9.038
REMARK  Name = 
REMARK  6 active torsions:
REMARK  status: ('A' for Active; 'I' for Inactive)
REMARK    1  A    between atoms: C_2  and  C_3
REMARK    2  A    between atoms: C_3  and  C_4
REMARK    3  A    between atoms: C_4  and  C_5
REMARK    4  A    between atoms: N_14  and  C_15
REMARK    5  A    between atoms: C_15  and  C_16
REMARK    6  A    between atoms: C_19  and  C_20
REMARK                            x       y       z     vdW  Elec       q    Type
REMARK                         _______ _______ _______ _____ _____    ______ ____
ROOT
ATOM      1  O   UNL     1       8.022   6.136  18.637  0.00  0.00    +0.000 OA
ATOM      2  C   UNL     1       8.009   7.274  18.184  0.00  0.00    +0.000 C 
ATOM      3  N   UNL     1       7.416   7.606  16.983  0.00  0.00    +0.000 N 
ATOM      4  H   UNL     1       7.399   8.574  16.689  0.00  0.00    +0.000 HD
ENDROOT
BRANCH   2   5
ATOM      5  C   UNL     1       8.599   8.466  18.921  0.00  0.00    +0.000 C 
BRANCH   5   6
ATOM      6  C   UNL     1       8.553   9.727  18.060  0.00  0.00    +0.000 C 
BRANCH   6   7
ATOM      7  C   UNL     1       9.443  10.826  18.600  0.00  0.00    +0.000 A 
ATOM      8  C   UNL     1       9.714  10.911  19.986  0.00  0.00    +0.000 A 
ATOM      9  C   UNL     1      10.547  11.914  20.499  0.00  0.00    +0.000 A 
ATOM     10  C   UNL     1      11.080  12.820  19.610  0.00  0.00    +0.000 A 
ATOM     11  C   UNL     1      10.818  12.753  18.262  0.00  0.00    +0.000 A 
ATOM     12  C   UNL     1      10.007  11.770  17.727  0.00  0.00    +0.000 A 
ATOM     13  O   UNL     1      11.435  13.741  17.563  0.00  0.00    +0.000 OA
ATOM     14  C   UNL     1      12.070  14.471  18.633  0.00  0.00    +0.000 C 
ATOM     15  O   UNL     1      11.903  13.856  19.927  0.00  0.00    +0.000 OA
ENDBRANCH   6   7
ENDBRANCH   5   6
ENDBRANCH   2   5
BRANCH   3  16
ATOM     16  C   UNL     1       6.779   6.630  16.127  0.00  0.00    +0.000 C 
BRANCH  16  17
ATOM     17  C   UNL     1       5.646   5.930  16.834  0.00  0.00    +0.000 A 
ATOM     18  C   UNL     1       5.601   4.533  16.921  0.00  0.00    +0.000 A 
ATOM     19  C   UNL     1       4.530   3.889  17.556  0.00  0.00    +0.000 A 
ATOM     20  C   UNL     1       3.478   4.622  18.127  0.00  0.00    +0.000 A 
ATOM     21  C   UNL     1       3.540   6.022  18.049  0.00  0.00    +0.000 A 
ATOM     22  C   UNL     1       4.601   6.667  17.404  0.00  0.00    +0.000 A 
BRANCH  20  23
ATOM     23  C   UNL     1       2.360   3.930  18.798  0.00  0.00    +0.000 A 
ATOM     24  C   UNL     1       1.622   4.335  19.899  0.00  0.00    +0.000 A 
ATOM     25  C   UNL     1       0.616   3.396  20.272  0.00  0.00    +0.000 A 
ATOM     26  C   UNL     1       0.613   2.292  19.450  0.00  0.00    +0.000 A 
ATOM     27  S   UNL     1       1.823   2.387  18.251  0.00  0.00    +0.000 S 
ENDBRANCH  20  23
ENDBRANCH  16  17
ENDBRANCH   3  16
TORSDOF 6
ENDMDL
MODEL 4
REMARK VINA RESULT:      -7.8      6.013      9.451
REMARK  Name = 
REMARK  6 active torsions:
REMARK  status: ('A' for Active; 'I' for Inactive)
REMARK    1  A    between atoms: C_2  and  C_3
REMARK    2  A    between atoms: C_3  and  C_4
REMARK    3  A    between atoms: C_4  and  C_5
REMARK    4  A    between atoms: N_14  and  C_15
REMARK    5  A    between atoms: C_15  and  C_16
REMARK    6  A    between atoms: C_19  and  C_20
REMARK                            x       y       z     vdW  Elec       q    Type
REMARK                         _______ _______ _______ _____ _____    ______ ____
ROOT
ATOM      1  O   UNL     1       8.666   7.718  18.956  0.00  0.00    +0.000 OA
ATOM      2  C   UNL     1       8.193   8.414  18.065  0.00  0.00    +0.000 C 
ATOM      3  N   UNL     1       7.592   7.897  16.936  0.00  0.00    +0.000 N 
ATOM      4  H   UNL     1       7.179   8.528  16.261  0.00  0.00    +0.000 HD
ENDROOT
BRANCH   2   5
ATOM      5  C   UNL     1       8.168   9.933  18.127  0.00  0.00    +0.000 C 
BRANCH   5   6
ATOM      6  C   UNL     1       9.569  10.502  18.338  0.00  0.00    +0.000 C 
BRANCH   6   7
ATOM      7  C   UNL     1       9.628  11.995  18.091  0.00  0.00    +0.000 A 
ATOM      8  C   UNL     1       8.485  12.801  18.304  0.00  0.00    +0.000 A 
ATOM      9  C   UNL     1       8.529  14.185  18.094  0.00  0.00    +0.000 A 
ATOM     10  C   UNL     1       9.717  14.730  17.660  0.00  0.00    +0.000 A 
ATOM     11  C   UNL     1      10.832  13.956  17.442  0.00  0.00    +0.000 A 
ATOM     12  C   UNL     1      10.820  12.589  17.649  0.00  0.00    +0.000 A 
ATOM     13  O   UNL     1      11.894  14.686  17.012  0.00  0.00    +0.000 OA
ATOM     14  C   UNL     1      11.304  16.000  16.932  0.00  0.00    +0.000 C 
ATOM     15  O   UNL     1       9.942  16.047  17.402  0.00  0.00    +0.000 OA
ENDBRANCH   6   7
ENDBRANCH   5   6
ENDBRANCH   2   5
BRANCH   3  16
ATOM     16  C   UNL     1       7.491   6.477  16.682  0.00  0.00    +0.000 C 
BRANCH  16  17
ATOM     17  C   UNL     1       6.241   5.893  17.291  0.00  0.00    +0.000 A 
ATOM     18  C   UNL     1       4.980   6.436  17.016  0.00  0.00    +0.000 A 
ATOM     19  C   UNL     1       3.826   5.905  17.608  0.00  0.00    +0.000 A 
ATOM     20  C   UNL     1       3.898   4.813  18.486  0.00  0.00    +0.000 A 
ATOM     21  C   UNL     1       5.165   4.264  18.744  0.00  0.00    +0.000 A 
ATOM     22  C   UNL     1       6.320   4.801  18.164  0.00  0.00    +0.000 A 
BRANCH  20  23
ATOM     23  C   UNL     1       2.674   4.260  19.097  0.00  0.00    +0.000 A 
ATOM     24  C   UNL     1       1.931   4.754  20.157  0.00  0.00    +0.000 A 
ATOM     25  C   UNL     1       0.804   3.941  20.476  0.00  0.00    +0.000 A 
ATOM     26  C   UNL     1       0.716   2.840  19.656  0.00  0.00    +0.000 A 
ATOM     27  S   UNL     1       1.990   2.786  18.523  0.00  0.00    +0.000 S 
ENDBRANCH  20  23
ENDBRANCH  16  17
ENDBRANCH   3  16
TORSDOF 6
ENDMDL
MODEL 5
REMARK VINA RESULT:      -7.7      1.885      4.282
REMARK  Name = 
REMARK  6 active torsions:
REMARK  status: ('A' for Active; 'I' for Inactive)
REMARK    1  A    between atoms: C_2  and  C_3
REMARK    2  A    between atoms: C_3  and  C_4
REMARK    3  A    between atoms: C_4  and  C_5
REMARK    4  A    between atoms: N_14  and  C_15
REMARK    5  A    between atoms: C_15  and  C_16
REMARK    6  A    between atoms: C_19  and  C_20
REMARK                            x       y       z     vdW  Elec       q    Type
REMARK                         _______ _______ _______ _____ _____    ______ ____
ROOT
ATOM      1  O   UNL     1       1.825   5.044  17.880  0.00  0.00    +0.000 OA
ATOM      2  C   UNL     1       2.635   5.464  18.697  0.00  0.00    +0.000 C 
ATOM      3  N   UNL     1       2.882   6.807  18.899  0.00  0.00    +0.000 N 
ATOM      4  H   UNL     1       3.529   7.088  19.624  0.00  0.00    +0.000 HD
ENDROOT
BRANCH   2   5
ATOM      5  C   UNL     1       3.426   4.554  19.623  0.00  0.00    +0.000 C 
BRANCH   5   6
ATOM      6  C   UNL     1       4.108   3.430  18.845  0.00  0.00    +0.000 C 
BRANCH   6   7
ATOM      7  C   UNL     1       5.107   3.953  17.835  0.00  0.00    +0.000 A 
ATOM      8  C   UNL     1       6.245   4.678  18.262  0.00  0.00    +0.000 A 
ATOM      9  C   UNL     1       7.185   5.155  17.340  0.00  0.00    +0.000 A 
ATOM     10  C   UNL     1       6.956   4.906  16.005  0.00  0.00    +0.000 A 
ATOM     11  C   UNL     1       5.851   4.209  15.577  0.00  0.00    +0.000 A 
ATOM     12  C   UNL     1       4.911   3.720  16.465  0.00  0.00    +0.000 A 
ATOM     13  O   UNL     1       5.811   4.079  14.225  0.00  0.00    +0.000 OA
ATOM     14  C   UNL     1       6.989   4.820  13.848  0.00  0.00    +0.000 C 
ATOM     15  O   UNL     1       7.755   5.293  14.975  0.00  0.00    +0.000 OA
ENDBRANCH   6   7
ENDBRANCH   5   6
ENDBRANCH   2   5
BRANCH   3  16
ATOM     16  C   UNL     1       2.227   7.848  18.138  0.00  0.00    +0.000 C 
BRANCH  16  17
ATOM     17  C   UNL     1       1.621   8.894  19.040  0.00  0.00    +0.000 A 
ATOM     18  C   UNL     1       1.310   8.606  20.375  0.00  0.00    +0.000 A 
ATOM     19  C   UNL     1       0.721   9.576  21.198  0.00  0.00    +0.000 A 
ATOM     20  C   UNL     1       0.434  10.861  20.714  0.00  0.00    +0.000 A 
ATOM     21  C   UNL     1       0.764  11.146  19.380  0.00  0.00    +0.000 A 
ATOM     22  C   UNL     1       1.340  10.176  18.552  0.00  0.00    +0.000 A 
BRANCH  20  23
ATOM     23  C   UNL     1      -0.180  11.875  21.595  0.00  0.00    +0.000 A 
ATOM     24  C   UNL     1      -1.136  11.703  22.584  0.00  0.00    +0.000 A 
ATOM     25  C   UNL     1      -1.496  12.923  23.229  0.00  0.00    +0.000 A 
ATOM     26  C   UNL     1      -0.811  13.999  22.712  0.00  0.00    +0.000 A 
ATOM     27  S   UNL     1       0.244  13.539  21.454  0.00  0.00    +0.000 S 
ENDBRANCH  20  23
ENDBRANCH  16  17
ENDBRANCH   3  16
TORSDOF 6
ENDMDL
MODEL 6
REMARK VINA RESULT:      -7.7      4.723      8.590
REMARK  Name = 
REMARK  6 active torsions:
REMARK  status: ('A' for Active; 'I' for Inactive)
REMARK    1  A    between atoms: C_2  and  C_3
REMARK    2  A    between atoms: C_3  and  C_4
REMARK    3  A    between atoms: C_4  and  C_5
REMARK    4  A    between atoms: N_14  and  C_15
REMARK    5  A    between atoms: C_15  and  C_16
REMARK    6  A    between atoms: C_19  and  C_20
REMARK                            x       y       z     vdW  Elec       q    Type
REMARK                         _______ _______ _______ _____ _____    ______ ____
ROOT
ATOM      1  O   UNL     1       1.110   9.912  22.744  0.00  0.00    +0.000 OA
ATOM      2  C   UNL     1       0.680   9.977  21.598  0.00  0.00    +0.000 C 
ATOM      3  N   UNL     1       0.677   8.907  20.727  0.00  0.00    +0.000 N 
ATOM      4  H   UNL     1       0.264   9.016  19.810  0.00  0.00    +0.000 HD
ENDROOT
BRANCH   2   5
ATOM      5  C   UNL     1       0.048  11.234  21.020  0.00  0.00    +0.000 C 
BRANCH   5   6
ATOM      6  C   UNL     1       0.218  11.291  19.503  0.00  0.00    +0.000 C 
BRANCH   6   7
ATOM      7  C   UNL     1      -1.093  11.102  18.770  0.00  0.00    +0.000 A 
ATOM      8  C   UNL     1      -1.187  10.187  17.695  0.00  0.00    +0.000 A 
ATOM      9  C   UNL     1      -2.397   9.991  17.017  0.00  0.00    +0.000 A 
ATOM     10  C   UNL     1      -3.486  10.730  17.424  0.00  0.00    +0.000 A 
ATOM     11  C   UNL     1      -3.405  11.628  18.462  0.00  0.00    +0.000 A 
ATOM     12  C   UNL     1      -2.227  11.836  19.154  0.00  0.00    +0.000 A 
ATOM     13  O   UNL     1      -4.587  12.255  18.699  0.00  0.00    +0.000 OA
ATOM     14  C   UNL     1      -5.406  11.689  17.655  0.00  0.00    +0.000 C 
ATOM     15  O   UNL     1      -4.733  10.674  16.883  0.00  0.00    +0.000 OA
ENDBRANCH   6   7
ENDBRANCH   5   6
ENDBRANCH   2   5
BRANCH   3  16
ATOM     16  C   UNL     1       1.215   7.611  21.075  0.00  0.00    +0.000 C 
BRANCH  16  17
ATOM     17  C   UNL     1       2.104   7.069  19.984  0.00  0.00    +0.000 A 
ATOM     18  C   UNL     1       2.374   7.818  18.832  0.00  0.00    +0.000 A 
ATOM     19  C   UNL     1       3.178   7.296  17.810  0.00  0.00    +0.000 A 
ATOM     20  C   UNL     1       3.741   6.014  17.913  0.00  0.00    +0.000 A 
ATOM     21  C   UNL     1       3.478   5.277  19.078  0.00  0.00    +0.000 A 
ATOM     22  C   UNL     1       2.664   5.791  20.094  0.00  0.00    +0.000 A 
BRANCH  20  23
ATOM     23  C   UNL     1       4.592   5.480  16.832  0.00  0.00    +0.000 A 
ATOM     24  C   UNL     1       5.244   6.165  15.819  0.00  0.00    +0.000 A 
ATOM     25  C   UNL     1       5.976   5.307  14.946  0.00  0.00    +0.000 A 
ATOM     26  C   UNL     1       5.860   3.985  15.309  0.00  0.00    +0.000 A 
ATOM     27  S   UNL     1       4.867   3.786  16.682  0.00  0.00    +0.000 S 
ENDBRANCH  20  23
ENDBRANCH  16  17
ENDBRANCH   3  16
TORSDOF 6
ENDMDL
MODEL 7
REMARK VINA RESULT:      -7.6      0.537      1.083
REMARK  Name = 
REMARK  6 active torsions:
REMARK  status: ('A' for Active; 'I' for Inactive)
REMARK    1  A    between atoms: C_2  and  C_3
REMARK    2  A    between atoms: C_3  and  C_4
REMARK    3  A    between atoms: C_4  and  C_5
REMARK    4  A    between atoms: N_14  and  C_15
REMARK    5  A    between atoms: C_15  and  C_16
REMARK    6  A    between atoms: C_19  and  C_20
REMARK                            x       y       z     vdW  Elec       q    Type
REMARK                         _______ _______ _______ _____ _____    ______ ____
ROOT
ATOM      1  O   UNL     1       5.310   6.826  15.893  0.00  0.00    +0.000 OA
ATOM      2  C   UNL     1       5.121   6.600  17.082  0.00  0.00    +0.000 C 
ATOM      3  N   UNL     1       4.036   7.086  17.784  0.00  0.00    +0.000 N 
ATOM      4  H   UNL     1       3.914   6.822  18.753  0.00  0.00    +0.000 HD
ENDROOT
BRANCH   2   5
ATOM      5  C   UNL     1       6.033   5.710  17.912  0.00  0.00    +0.000 C 
BRANCH   5   6
ATOM      6  C   UNL     1       5.820   4.234  17.578  0.00  0.00    +0.000 C 
BRANCH   6   7
ATOM      7  C   UNL     1       4.539   3.689  18.172  0.00  0.00    +0.000 A 
ATOM      8  C   UNL     1       3.646   2.933  17.376  0.00  0.00    +0.000 A 
ATOM      9  C   UNL     1       2.464   2.409  17.916  0.00  0.00    +0.000 A 
ATOM     10  C   UNL     1       2.196   2.667  19.242  0.00  0.00    +0.000 A 
ATOM     11  C   UNL     1       3.052   3.407  20.023  0.00  0.00    +0.000 A 
ATOM     12  C   UNL     1       4.229   3.929  19.520  0.00  0.00    +0.000 A 
ATOM     13  O   UNL     1       2.600   3.549  21.297  0.00  0.00    +0.000 OA
ATOM     14  C   UNL     1       1.336   2.861  21.212  0.00  0.00    +0.000 C 
ATOM     15  O   UNL     1       1.102   2.244  19.930  0.00  0.00    +0.000 OA
ENDBRANCH   6   7
ENDBRANCH   5   6
ENDBRANCH   2   5
BRANCH   3  16
ATOM     16  C   UNL     1       3.035   7.940  17.186  0.00  0.00    +0.000 C 
BRANCH  16  17
ATOM     17  C   UNL     1       2.189   8.619  18.235  0.00  0.00    +0.000 A 
ATOM     18  C   UNL     1       1.971   8.026  19.484  0.00  0.00    +0.000 A 
ATOM     19  C   UNL     1       1.161   8.651  20.442  0.00  0.00    +0.000 A 
ATOM     20  C   UNL     1       0.554   9.889  20.183  0.00  0.00    +0.000 A 
ATOM     21  C   UNL     1       0.793  10.485  18.934  0.00  0.00    +0.000 A 
ATOM     22  C   UNL     1       1.589   9.856  17.970  0.00  0.00    +0.000 A 
BRANCH  20  23
ATOM     23  C   UNL     1      -0.290  10.539  21.204  0.00  0.00    +0.000 A 
ATOM     24  C   UNL     1      -0.502  10.167  22.523  0.00  0.00    +0.000 A 
ATOM     25  C   UNL     1      -1.394  11.040  23.212  0.00  0.00    +0.000 A 
ATOM     26  C   UNL     1      -1.848  12.056  22.402  0.00  0.00    +0.000 A 
ATOM     27  S   UNL     1      -1.211  11.944  20.823  0.00  0.00    +0.000 S 
ENDBRANCH  20  23
ENDBRANCH  16  17
ENDBRANCH   3  16
TORSDOF 6
ENDMDL
MODEL 8
REMARK VINA RESULT:      -7.6      1.898      4.204
REMARK  Name = 
REMARK  6 active torsions:
REMARK  status: ('A' for Active; 'I' for Inactive)
REMARK    1  A    between atoms: C_2  and  C_3
REMARK    2  A    between atoms: C_3  and  C_4
REMARK    3  A    between atoms: C_4  and  C_5
REMARK    4  A    between atoms: N_14  and  C_15
REMARK    5  A    between atoms: C_15  and  C_16
REMARK    6  A    between atoms: C_19  and  C_20
REMARK                            x       y       z     vdW  Elec       q    Type
REMARK                         _______ _______ _______ _____ _____    ______ ____
ROOT
ATOM      1  O   UNL     1       1.722   4.968  18.199  0.00  0.00    +0.000 OA
ATOM      2  C   UNL     1       2.667   5.406  18.843  0.00  0.00    +0.000 C 
ATOM      3  N   UNL     1       3.034   6.737  18.845  0.00  0.00    +0.000 N 
ATOM      4  H   UNL     1       3.796   7.041  19.437  0.00  0.00    +0.000 HD
ENDROOT
BRANCH   2   5
ATOM      5  C   UNL     1       3.515   4.541  19.762  0.00  0.00    +0.000 C 
BRANCH   5   6
ATOM      6  C   UNL     1       4.211   3.425  18.985  0.00  0.00    +0.000 C 
BRANCH   6   7
ATOM      7  C   UNL     1       5.172   3.960  17.945  0.00  0.00    +0.000 A 
ATOM      8  C   UNL     1       6.283   4.745  18.333  0.00  0.00    +0.000 A 
ATOM      9  C   UNL     1       7.188   5.235  17.383  0.00  0.00    +0.000 A 
ATOM     10  C   UNL     1       6.952   4.936  16.060  0.00  0.00    +0.000 A 
ATOM     11  C   UNL     1       5.872   4.181  15.669  0.00  0.00    +0.000 A 
ATOM     12  C   UNL     1       4.967   3.678  16.585  0.00  0.00    +0.000 A 
ATOM     13  O   UNL     1       5.819   4.008  14.322  0.00  0.00    +0.000 OA
ATOM     14  C   UNL     1       6.958   4.788  13.906  0.00  0.00    +0.000 C 
ATOM     15  O   UNL     1       7.719   5.327  15.006  0.00  0.00    +0.000 OA
ENDBRANCH   6   7
ENDBRANCH   5   6
ENDBRANCH   2   5
BRANCH   3  16
ATOM     16  C   UNL     1       2.353   7.738  18.055  0.00  0.00    +0.000 C 
BRANCH  16  17
ATOM     17  C   UNL     1       1.713   8.789  18.927  0.00  0.00    +0.000 A 
ATOM     18  C   UNL     1       1.422  10.065  18.427  0.00  0.00    +0.000 A 
ATOM     19  C   UNL     1       0.853  11.044  19.252  0.00  0.00    +0.000 A 
ATOM     20  C   UNL     1       0.552  10.776  20.596  0.00  0.00    +0.000 A 
ATOM     21  C   UNL     1       0.831   9.490  21.084  0.00  0.00    +0.000 A 
ATOM     22  C   UNL     1       1.413   8.514  20.266  0.00  0.00    +0.000 A 
BRANCH  20  23
ATOM     23  C   UNL     1      -0.054  11.816  21.451  0.00  0.00    +0.000 A 
ATOM     24  C   UNL     1       0.149  13.186  21.430  0.00  0.00    +0.000 A 
ATOM     25  C   UNL     1      -0.612  13.879  22.418  0.00  0.00    +0.000 A 
ATOM     26  C   UNL     1      -1.374  13.019  23.174  0.00  0.00    +0.000 A 
ATOM     27  S   UNL     1      -1.160  11.393  22.703  0.00  0.00    +0.000 S 
ENDBRANCH  20  23
ENDBRANCH  16  17
ENDBRANCH   3  16
TORSDOF 6
ENDMDL
MODEL 9
REMARK VINA RESULT:      -7.6      1.923      4.499
REMARK  Name = 
REMARK  6 active torsions:
REMARK  status: ('A' for Active; 'I' for Inactive)
REMARK    1  A    between atoms: C_2  and  C_3
REMARK    2  A    between atoms: C_3  and  C_4
REMARK    3  A    between atoms: C_4  and  C_5
REMARK    4  A    between atoms: N_14  and  C_15
REMARK    5  A    between atoms: C_15  and  C_16
REMARK    6  A    between atoms: C_19  and  C_20
REMARK                            x       y       z     vdW  Elec       q    Type
REMARK                         _______ _______ _______ _____ _____    ______ ____
ROOT
ATOM      1  O   UNL     1       3.444   3.218  20.124  0.00  0.00    +0.000 OA
ATOM      2  C   UNL     1       2.962   3.735  19.124  0.00  0.00    +0.000 C 
ATOM      3  N   UNL     1       2.359   4.977  19.126  0.00  0.00    +0.000 N 
ATOM      4  H   UNL     1       2.024   5.367  18.255  0.00  0.00    +0.000 HD
ENDROOT
BRANCH   2   5
ATOM      5  C   UNL     1       3.019   3.090  17.748  0.00  0.00    +0.000 C 
BRANCH   5   6
ATOM      6  C   UNL     1       4.458   2.988  17.244  0.00  0.00    +0.000 C 
BRANCH   6   7
ATOM      7  C   UNL     1       5.152   4.333  17.208  0.00  0.00    +0.000 A 
ATOM      8  C   UNL     1       4.709   5.344  16.324  0.00  0.00    +0.000 A 
ATOM      9  C   UNL     1       5.331   6.598  16.290  0.00  0.00    +0.000 A 
ATOM     10  C   UNL     1       6.397   6.807  17.137  0.00  0.00    +0.000 A 
ATOM     11  C   UNL     1       6.843   5.829  17.995  0.00  0.00    +0.000 A 
ATOM     12  C   UNL     1       6.243   4.586  18.056  0.00  0.00    +0.000 A 
ATOM     13  O   UNL     1       7.906   6.235  18.737  0.00  0.00    +0.000 OA
ATOM     14  C   UNL     1       8.114   7.561  18.208  0.00  0.00    +0.000 C 
ATOM     15  O   UNL     1       7.121   7.954  17.238  0.00  0.00    +0.000 OA
ENDBRANCH   6   7
ENDBRANCH   5   6
ENDBRANCH   2   5
BRANCH   3  16
ATOM     16  C   UNL     1       2.211   5.773  20.324  0.00  0.00    +0.000 C 
BRANCH  16  17
ATOM     17  C   UNL     1       1.855   7.202  19.997  0.00  0.00    +0.000 A 
ATOM     18  C   UNL     1       1.182   8.010  20.921  0.00  0.00    +0.000 A 
ATOM     19  C   UNL     1       0.830   9.328  20.599  0.00  0.00    +0.000 A 
ATOM     20  C   UNL     1       1.149   9.878  19.348  0.00  0.00    +0.000 A 
ATOM     21  C   UNL     1       1.839   9.067  18.434  0.00  0.00    +0.000 A 
ATOM     22  C   UNL     1       2.179   7.746  18.748  0.00  0.00    +0.000 A 
BRANCH  20  23
ATOM     23  C   UNL     1       0.779  11.270  19.025  0.00  0.00    +0.000 A 
ATOM     24  C   UNL     1      -0.483  11.839  18.947  0.00  0.00    +0.000 A 
ATOM     25  C   UNL     1      -0.451  13.222  18.602  0.00  0.00    +0.000 A 
ATOM     26  C   UNL     1       0.835  13.676  18.417  0.00  0.00    +0.000 A 
ATOM     27  S   UNL     1       1.987  12.439  18.648  0.00  0.00    +0.000 S 
ENDBRANCH  20  23
ENDBRANCH  16  17
ENDBRANCH   3  16
TORSDOF 6
ENDMDL
