MODEL 1
REMARK VINA RESULT:      -7.0      0.000      0.000
REMARK  Name = 
REMARK  6 active torsions:
REMARK  status: ('A' for Active; 'I' for Inactive)
REMARK    1  A    between atoms: C_2  and  O_3
REMARK    2  A    between atoms: C_2  and  C_4
REMARK    3  A    between atoms: C_4  and  S_5
REMARK    4  A    between atoms: S_5  and  C_8
REMARK    5  A    between atoms: C_11  and  S_12
REMARK    6  A    between atoms: S_12  and  C_13
REMARK                            x       y       z     vdW  Elec       q    Type
REMARK                         _______ _______ _______ _____ _____    ______ ____
ROOT
ATOM      1  C   UNL     1       1.364   8.689  19.760  0.00  0.00    +0.000 A 
ATOM      2  C   UNL     1       1.687   7.493  20.402  0.00  0.00    +0.000 A 
ATOM      3  C   UNL     1       2.424   6.521  19.721  0.00  0.00    +0.000 A 
ATOM      4  C   UNL     1       2.820   6.727  18.395  0.00  0.00    +0.000 A 
ATOM      5  C   UNL     1       2.480   7.925  17.756  0.00  0.00    +0.000 A 
ATOM      6  C   UNL     1       1.747   8.909  18.434  0.00  0.00    +0.000 A 
ENDROOT
BRANCH   1   7
ATOM      7  S   UNL     1       0.440   9.925  20.633  0.00  0.00    +0.000 S 
ATOM      8  O   UNL     1      -0.612  10.414  19.752  0.00  0.00    +0.000 OA
ATOM      9  O   UNL     1       1.401  10.847  21.205  0.00  0.00    +0.000 OA
BRANCH   7  10
ATOM     10  C   UNL     1      -0.391   9.123  21.947  0.00  0.00    +0.000 C 
BRANCH  10  12
ATOM     11  O   UNL     1       0.441   9.502  24.141  0.00  0.00    +0.000 OA
ATOM     12  C   UNL     1      -0.248   9.896  23.209  0.00  0.00    +0.000 C 
BRANCH  12  13
ATOM     13  O   UNL     1      -0.865  11.095  23.241  0.00  0.00    +0.000 OA
ATOM     14  H   UNL     1      -1.836  11.093  23.072  0.00  0.00    +0.000 HD
ENDBRANCH  12  13
ENDBRANCH  10  12
ENDBRANCH   7  10
ENDBRANCH   1   7
BRANCH   4  15
ATOM     15  S   UNL     1       3.825   5.505  17.572  0.00  0.00    +0.000 S 
BRANCH  15  16
ATOM     16  C   UNL     1       5.484   6.027  17.971  0.00  0.00    +0.000 A 
ATOM     17  C   UNL     1       6.158   5.385  19.017  0.00  0.00    +0.000 A 
ATOM     18  C   UNL     1       7.470   5.743  19.341  0.00  0.00    +0.000 A 
ATOM     19  C   UNL     1       8.120   6.738  18.615  0.00  0.00    +0.000 A 
ATOM     20  C   UNL     1       7.466   7.368  17.559  0.00  0.00    +0.000 A 
ATOM     21  C   UNL     1       6.155   7.009  17.234  0.00  0.00    +0.000 A 
ENDBRANCH  15  16
ENDBRANCH   4  15
TORSDOF 6
ENDMDL
MODEL 2
REMARK VINA RESULT:      -6.9      4.240      7.769
REMARK  Name = 
REMARK  6 active torsions:
REMARK  status: ('A' for Active; 'I' for Inactive)
REMARK    1  A    between atoms: C_2  and  O_3
REMARK    2  A    between atoms: C_2  and  C_4
REMARK    3  A    between atoms: C_4  and  S_5
REMARK    4  A    between atoms: S_5  and  C_8
REMARK    5  A    between atoms: C_11  and  S_12
REMARK    6  A    between atoms: S_12  and  C_13
REMARK                            x       y       z     vdW  Elec       q    Type
REMARK                         _______ _______ _______ _____ _____    ______ ____
ROOT
ATOM      1  C   UNL     1       2.515   7.184  18.922  0.00  0.00    +0.000 A 
ATOM      2  C   UNL     1       2.545   8.015  17.801  0.00  0.00    +0.000 A 
ATOM      3  C   UNL     1       1.910   9.258  17.847  0.00  0.00    +0.000 A 
ATOM      4  C   UNL     1       1.225   9.667  18.997  0.00  0.00    +0.000 A 
ATOM      5  C   UNL     1       1.191   8.820  20.111  0.00  0.00    +0.000 A 
ATOM      6  C   UNL     1       1.832   7.573  20.077  0.00  0.00    +0.000 A 
ENDROOT
BRANCH   1   7
ATOM      7  S   UNL     1       3.335   5.612  18.863  0.00  0.00    +0.000 S 
ATOM      8  O   UNL     1       2.768   4.845  17.762  0.00  0.00    +0.000 OA
ATOM      9  O   UNL     1       3.320   5.077  20.210  0.00  0.00    +0.000 OA
BRANCH   7  10
ATOM     10  C   UNL     1       4.999   5.909  18.415  0.00  0.00    +0.000 C 
BRANCH  10  12
ATOM     11  O   UNL     1       6.830   5.291  19.799  0.00  0.00    +0.000 OA
ATOM     12  C   UNL     1       5.904   4.936  19.081  0.00  0.00    +0.000 C 
BRANCH  12  13
ATOM     13  O   UNL     1       5.602   3.632  18.907  0.00  0.00    +0.000 OA
ATOM     14  H   UNL     1       4.646   3.396  18.937  0.00  0.00    +0.000 HD
ENDBRANCH  12  13
ENDBRANCH  10  12
ENDBRANCH   7  10
ENDBRANCH   1   7
BRANCH   4  15
ATOM     15  S   UNL     1       0.488  11.289  19.059  0.00  0.00    +0.000 S 
BRANCH  15  16
ATOM     16  C   UNL     1      -1.177  10.985  18.493  0.00  0.00    +0.000 A 
ATOM     17  C   UNL     1      -2.210  11.802  18.971  0.00  0.00    +0.000 A 
ATOM     18  C   UNL     1      -3.523  11.617  18.529  0.00  0.00    +0.000 A 
ATOM     19  C   UNL     1      -3.812  10.621  17.600  0.00  0.00    +0.000 A 
ATOM     20  C   UNL     1      -2.788   9.818  17.102  0.00  0.00    +0.000 A 
ATOM     21  C   UNL     1      -1.475  10.004  17.542  0.00  0.00    +0.000 A 
ENDBRANCH  15  16
ENDBRANCH   4  15
TORSDOF 6
ENDMDL
MODEL 3
REMARK VINA RESULT:      -6.9      0.415      1.727
REMARK  Name = 
REMARK  6 active torsions:
REMARK  status: ('A' for Active; 'I' for Inactive)
REMARK    1  A    between atoms: C_2  and  O_3
REMARK    2  A    between atoms: C_2  and  C_4
REMARK    3  A    between atoms: C_4  and  S_5
REMARK    4  A    between atoms: S_5  and  C_8
REMARK    5  A    between atoms: C_11  and  S_12
REMARK    6  A    between atoms: S_12  and  C_13
REMARK                            x       y       z     vdW  Elec       q    Type
REMARK                         _______ _______ _______ _____ _____    ______ ____
ROOT
ATOM      1  C   UNL     1       1.308   9.071  19.713  0.00  0.00    +0.000 A 
ATOM      2  C   UNL     1       1.696   9.159  18.376  0.00  0.00    +0.000 A 
ATOM      3  C   UNL     1       2.387   8.098  17.786  0.00  0.00    +0.000 A 
ATOM      4  C   UNL     1       2.711   6.959  18.532  0.00  0.00    +0.000 A 
ATOM      5  C   UNL     1       2.327   6.886  19.876  0.00  0.00    +0.000 A 
ATOM      6  C   UNL     1       1.628   7.944  20.474  0.00  0.00    +0.000 A 
ENDROOT
BRANCH   1   7
ATOM      7  S   UNL     1       0.419  10.417  20.452  0.00  0.00    +0.000 S 
ATOM      8  O   UNL     1      -0.405  11.037  19.424  0.00  0.00    +0.000 OA
ATOM      9  O   UNL     1       1.385  11.208  21.189  0.00  0.00    +0.000 OA
BRANCH   7  10
ATOM     10  C   UNL     1      -0.707   9.729  21.599  0.00  0.00    +0.000 C 
BRANCH  10  12
ATOM     11  O   UNL     1      -1.163  11.220  23.394  0.00  0.00    +0.000 OA
ATOM     12  C   UNL     1      -0.488  10.297  22.956  0.00  0.00    +0.000 C 
BRANCH  12  13
ATOM     13  O   UNL     1       0.452   9.687  23.707  0.00  0.00    +0.000 OA
ATOM     14  H   UNL     1       0.294   8.739  23.922  0.00  0.00    +0.000 HD
ENDBRANCH  12  13
ENDBRANCH  10  12
ENDBRANCH   7  10
ENDBRANCH   1   7
BRANCH   4  15
ATOM     15  S   UNL     1       3.525   5.584  17.739  0.00  0.00    +0.000 S 
BRANCH  15  16
ATOM     16  C   UNL     1       5.251   5.917  18.049  0.00  0.00    +0.000 A 
ATOM     17  C   UNL     1       5.913   6.849  17.240  0.00  0.00    +0.000 A 
ATOM     18  C   UNL     1       7.256   7.160  17.469  0.00  0.00    +0.000 A 
ATOM     19  C   UNL     1       7.944   6.549  18.515  0.00  0.00    +0.000 A 
ATOM     20  C   UNL     1       7.289   5.637  19.339  0.00  0.00    +0.000 A 
ATOM     21  C   UNL     1       5.945   5.327  19.110  0.00  0.00    +0.000 A 
ENDBRANCH  15  16
ENDBRANCH   4  15
TORSDOF 6
ENDMDL
MODEL 4
REMARK VINA RESULT:      -6.8      2.364      3.326
REMARK  Name = 
REMARK  6 active torsions:
REMARK  status: ('A' for Active; 'I' for Inactive)
REMARK    1  A    between atoms: C_2  and  O_3
REMARK    2  A    between atoms: C_2  and  C_4
REMARK    3  A    between atoms: C_4  and  S_5
REMARK    4  A    between atoms: S_5  and  C_8
REMARK    5  A    between atoms: C_11  and  S_12
REMARK    6  A    between atoms: S_12  and  C_13
REMARK                            x       y       z     vdW  Elec       q    Type
REMARK                         _______ _______ _______ _____ _____    ______ ____
ROOT
ATOM      1  C   UNL     1       1.237   9.336  19.639  0.00  0.00    +0.000 A 
ATOM      2  C   UNL     1       1.538   8.199  20.389  0.00  0.00    +0.000 A 
ATOM      3  C   UNL     1       2.262   7.158  19.804  0.00  0.00    +0.000 A 
ATOM      4  C   UNL     1       2.668   7.237  18.467  0.00  0.00    +0.000 A 
ATOM      5  C   UNL     1       2.350   8.378  17.720  0.00  0.00    +0.000 A 
ATOM      6  C   UNL     1       1.629   9.430  18.301  0.00  0.00    +0.000 A 
ENDROOT
BRANCH   1   7
ATOM      7  S   UNL     1       0.327  10.661  20.391  0.00  0.00    +0.000 S 
ATOM      8  O   UNL     1      -0.551  11.240  19.383  0.00  0.00    +0.000 OA
ATOM      9  O   UNL     1       1.289  11.493  21.087  0.00  0.00    +0.000 OA
BRANCH   7  10
ATOM     10  C   UNL     1      -0.739   9.950  21.581  0.00  0.00    +0.000 C 
BRANCH  10  12
ATOM     11  O   UNL     1       0.218   9.714  23.745  0.00  0.00    +0.000 OA
ATOM     12  C   UNL     1      -0.388  10.420  22.948  0.00  0.00    +0.000 C 
BRANCH  12  13
ATOM     13  O   UNL     1      -0.713  11.697  23.236  0.00  0.00    +0.000 OA
ATOM     14  H   UNL     1      -0.471  12.373  22.562  0.00  0.00    +0.000 HD
ENDBRANCH  12  13
ENDBRANCH  10  12
ENDBRANCH   7  10
ENDBRANCH   1   7
BRANCH   4  15
ATOM     15  S   UNL     1       3.658   5.932  17.763  0.00  0.00    +0.000 S 
BRANCH  15  16
ATOM     16  C   UNL     1       2.938   4.464  18.478  0.00  0.00    +0.000 A 
ATOM     17  C   UNL     1       1.703   4.015  17.993  0.00  0.00    +0.000 A 
ATOM     18  C   UNL     1       1.120   2.852  18.504  0.00  0.00    +0.000 A 
ATOM     19  C   UNL     1       1.771   2.125  19.498  0.00  0.00    +0.000 A 
ATOM     20  C   UNL     1       3.010   2.551  19.971  0.00  0.00    +0.000 A 
ATOM     21  C   UNL     1       3.594   3.712  19.459  0.00  0.00    +0.000 A 
ENDBRANCH  15  16
ENDBRANCH   4  15
TORSDOF 6
ENDMDL
MODEL 5
REMARK VINA RESULT:      -6.8      2.360      3.314
REMARK  Name = 
REMARK  6 active torsions:
REMARK  status: ('A' for Active; 'I' for Inactive)
REMARK    1  A    between atoms: C_2  and  O_3
REMARK    2  A    between atoms: C_2  and  C_4
REMARK    3  A    between atoms: C_4  and  S_5
REMARK    4  A    between atoms: S_5  and  C_8
REMARK    5  A    between atoms: C_11  and  S_12
REMARK    6  A    between atoms: S_12  and  C_13
REMARK                            x       y       z     vdW  Elec       q    Type
REMARK                         _______ _______ _______ _____ _____    ______ ____
ROOT
ATOM      1  C   UNL     1       1.259   9.317  19.648  0.00  0.00    +0.000 A 
ATOM      2  C   UNL     1       1.548   8.170  20.388  0.00  0.00    +0.000 A 
ATOM      3  C   UNL     1       2.271   7.131  19.796  0.00  0.00    +0.000 A 
ATOM      4  C   UNL     1       2.686   7.221  18.463  0.00  0.00    +0.000 A 
ATOM      5  C   UNL     1       2.380   8.372  17.726  0.00  0.00    +0.000 A 
ATOM      6  C   UNL     1       1.662   9.422  18.314  0.00  0.00    +0.000 A 
ENDROOT
BRANCH   1   7
ATOM      7  S   UNL     1       0.353  10.639  20.408  0.00  0.00    +0.000 S 
ATOM      8  O   UNL     1      -0.476  11.267  19.388  0.00  0.00    +0.000 OA
ATOM      9  O   UNL     1       1.307  11.428  21.161  0.00  0.00    +0.000 OA
BRANCH   7  10
ATOM     10  C   UNL     1      -0.769   9.917  21.539  0.00  0.00    +0.000 C 
BRANCH  10  12
ATOM     11  O   UNL     1      -1.180  11.300  23.429  0.00  0.00    +0.000 OA
ATOM     12  C   UNL     1      -0.512  10.409  22.919  0.00  0.00    +0.000 C 
BRANCH  12  13
ATOM     13  O   UNL     1       0.455   9.766  23.605  0.00  0.00    +0.000 OA
ATOM     14  H   UNL     1       1.103   9.250  23.071  0.00  0.00    +0.000 HD
ENDBRANCH  12  13
ENDBRANCH  10  12
ENDBRANCH   7  10
ENDBRANCH   1   7
BRANCH   4  15
ATOM     15  S   UNL     1       3.673   5.917  17.753  0.00  0.00    +0.000 S 
BRANCH  15  16
ATOM     16  C   UNL     1       2.905   4.444  18.404  0.00  0.00    +0.000 A 
ATOM     17  C   UNL     1       3.556   3.739  19.424  0.00  0.00    +0.000 A 
ATOM     18  C   UNL     1       2.974   2.598  19.982  0.00  0.00    +0.000 A 
ATOM     19  C   UNL     1       1.731   2.158  19.531  0.00  0.00    +0.000 A 
ATOM     20  C   UNL     1       1.065   2.864  18.532  0.00  0.00    +0.000 A 
ATOM     21  C   UNL     1       1.647   4.006  17.975  0.00  0.00    +0.000 A 
ENDBRANCH  15  16
ENDBRANCH   4  15
TORSDOF 6
ENDMDL
MODEL 6
REMARK VINA RESULT:      -6.8      0.703      1.394
REMARK  Name = 
REMARK  6 active torsions:
REMARK  status: ('A' for Active; 'I' for Inactive)
REMARK    1  A    between atoms: C_2  and  O_3
REMARK    2  A    between atoms: C_2  and  C_4
REMARK    3  A    between atoms: C_4  and  S_5
REMARK    4  A    between atoms: S_5  and  C_8
REMARK    5  A    between atoms: C_11  and  S_12
REMARK    6  A    between atoms: S_12  and  C_13
REMARK                            x       y       z     vdW  Elec       q    Type
REMARK                         _______ _______ _______ _____ _____    ______ ____
ROOT
ATOM      1  C   UNL     1       1.521   8.776  19.579  0.00  0.00    +0.000 A 
ATOM      2  C   UNL     1       1.800   7.589  20.257  0.00  0.00    +0.000 A 
ATOM      3  C   UNL     1       2.513   6.577  19.610  0.00  0.00    +0.000 A 
ATOM      4  C   UNL     1       2.929   6.734  18.283  0.00  0.00    +0.000 A 
ATOM      5  C   UNL     1       2.632   7.925  17.609  0.00  0.00    +0.000 A 
ATOM      6  C   UNL     1       1.923   8.949  18.252  0.00  0.00    +0.000 A 
ENDROOT
BRANCH   1   7
ATOM      7  S   UNL     1       0.627  10.064  20.410  0.00  0.00    +0.000 S 
ATOM      8  O   UNL     1      -0.798   9.805  20.248  0.00  0.00    +0.000 OA
ATOM      9  O   UNL     1       1.195  11.324  19.973  0.00  0.00    +0.000 OA
BRANCH   7  10
ATOM     10  C   UNL     1       0.938   9.893  22.122  0.00  0.00    +0.000 C 
BRANCH  10  12
ATOM     11  O   UNL     1      -0.854  10.755  23.425  0.00  0.00    +0.000 OA
ATOM     12  C   UNL     1      -0.337   9.788  22.880  0.00  0.00    +0.000 C 
BRANCH  12  13
ATOM     13  O   UNL     1      -0.932   8.577  22.871  0.00  0.00    +0.000 OA
ATOM     14  H   UNL     1      -0.334   7.795  22.918  0.00  0.00    +0.000 HD
ENDBRANCH  12  13
ENDBRANCH  10  12
ENDBRANCH   7  10
ENDBRANCH   1   7
BRANCH   4  15
ATOM     15  S   UNL     1       3.903   5.461  17.504  0.00  0.00    +0.000 S 
BRANCH  15  16
ATOM     16  C   UNL     1       5.572   5.921  17.938  0.00  0.00    +0.000 A 
ATOM     17  C   UNL     1       6.195   6.949  17.220  0.00  0.00    +0.000 A 
ATOM     18  C   UNL     1       7.490   7.360  17.549  0.00  0.00    +0.000 A 
ATOM     19  C   UNL     1       8.168   6.753  18.603  0.00  0.00    +0.000 A 
ATOM     20  C   UNL     1       7.548   5.744  19.337  0.00  0.00    +0.000 A 
ATOM     21  C   UNL     1       6.253   5.334  19.009  0.00  0.00    +0.000 A 
ENDBRANCH  15  16
ENDBRANCH   4  15
TORSDOF 6
ENDMDL
MODEL 7
REMARK VINA RESULT:      -6.7      2.949      4.450
REMARK  Name = 
REMARK  6 active torsions:
REMARK  status: ('A' for Active; 'I' for Inactive)
REMARK    1  A    between atoms: C_2  and  O_3
REMARK    2  A    between atoms: C_2  and  C_4
REMARK    3  A    between atoms: C_4  and  S_5
REMARK    4  A    between atoms: S_5  and  C_8
REMARK    5  A    between atoms: C_11  and  S_12
REMARK    6  A    between atoms: S_12  and  C_13
REMARK                            x       y       z     vdW  Elec       q    Type
REMARK                         _______ _______ _______ _____ _____    ______ ____
ROOT
ATOM      1  C   UNL     1       1.130   9.752  19.203  0.00  0.00    +0.000 A 
ATOM      2  C   UNL     1       1.202   8.781  20.203  0.00  0.00    +0.000 A 
ATOM      3  C   UNL     1       1.913   7.602  19.969  0.00  0.00    +0.000 A 
ATOM      4  C   UNL     1       2.534   7.377  18.735  0.00  0.00    +0.000 A 
ATOM      5  C   UNL     1       2.445   8.353  17.735  0.00  0.00    +0.000 A 
ATOM      6  C   UNL     1       1.739   9.543  17.963  0.00  0.00    +0.000 A 
ENDROOT
BRANCH   1   7
ATOM      7  S   UNL     1       0.236  11.253  19.510  0.00  0.00    +0.000 S 
ATOM      8  O   UNL     1       0.682  12.252  18.548  0.00  0.00    +0.000 OA
ATOM      9  O   UNL     1       0.327  11.517  20.932  0.00  0.00    +0.000 OA
BRANCH   7  10
ATOM     10  C   UNL     1      -1.441  10.949  19.120  0.00  0.00    +0.000 C 
BRANCH  10  12
ATOM     11  O   UNL     1      -1.776   9.926  17.000  0.00  0.00    +0.000 OA
ATOM     12  C   UNL     1      -1.648  10.958  17.647  0.00  0.00    +0.000 C 
BRANCH  12  13
ATOM     13  O   UNL     1      -1.757  12.174  17.073  0.00  0.00    +0.000 OA
ATOM     14  H   UNL     1      -2.564  12.693  17.297  0.00  0.00    +0.000 HD
ENDBRANCH  12  13
ENDBRANCH  10  12
ENDBRANCH   7  10
ENDBRANCH   1   7
BRANCH   4  15
ATOM     15  S   UNL     1       3.501   5.900  18.486  0.00  0.00    +0.000 S 
BRANCH  15  16
ATOM     16  C   UNL     1       2.576   4.668  19.386  0.00  0.00    +0.000 A 
ATOM     17  C   UNL     1       2.915   4.413  20.721  0.00  0.00    +0.000 A 
ATOM     18  C   UNL     1       2.196   3.478  21.470  0.00  0.00    +0.000 A 
ATOM     19  C   UNL     1       1.126   2.798  20.894  0.00  0.00    +0.000 A 
ATOM     20  C   UNL     1       0.766   3.060  19.574  0.00  0.00    +0.000 A 
ATOM     21  C   UNL     1       1.484   3.996  18.825  0.00  0.00    +0.000 A 
ENDBRANCH  15  16
ENDBRANCH   4  15
TORSDOF 6
ENDMDL
MODEL 8
REMARK VINA RESULT:      -6.7      2.922      4.566
REMARK  Name = 
REMARK  6 active torsions:
REMARK  status: ('A' for Active; 'I' for Inactive)
REMARK    1  A    between atoms: C_2  and  O_3
REMARK    2  A    between atoms: C_2  and  C_4
REMARK    3  A    between atoms: C_4  and  S_5
REMARK    4  A    between atoms: S_5  and  C_8
REMARK    5  A    between atoms: C_11  and  S_12
REMARK    6  A    between atoms: S_12  and  C_13
REMARK                            x       y       z     vdW  Elec       q    Type
REMARK                         _______ _______ _______ _____ _____    ______ ____
ROOT
ATOM      1  C   UNL     1       1.115   9.715  19.216  0.00  0.00    +0.000 A 
ATOM      2  C   UNL     1       1.722   9.539  17.972  0.00  0.00    +0.000 A 
ATOM      3  C   UNL     1       2.434   8.366  17.711  0.00  0.00    +0.000 A 
ATOM      4  C   UNL     1       2.561   7.377  18.693  0.00  0.00    +0.000 A 
ATOM      5  C   UNL     1       1.959   7.569  19.942  0.00  0.00    +0.000 A 
ATOM      6  C   UNL     1       1.237   8.741  20.211  0.00  0.00    +0.000 A 
ENDROOT
BRANCH   1   7
ATOM      7  S   UNL     1       0.202  11.201  19.538  0.00  0.00    +0.000 S 
ATOM      8  O   UNL     1       0.662  12.227  18.611  0.00  0.00    +0.000 OA
ATOM      9  O   UNL     1       0.257  11.431  20.968  0.00  0.00    +0.000 OA
BRANCH   7  10
ATOM     10  C   UNL     1      -1.463  10.894  19.101  0.00  0.00    +0.000 C 
BRANCH  10  12
ATOM     11  O   UNL     1      -1.803   9.941  16.949  0.00  0.00    +0.000 OA
ATOM     12  C   UNL     1      -1.638  10.949  17.625  0.00  0.00    +0.000 C 
BRANCH  12  13
ATOM     13  O   UNL     1      -1.676  12.182  17.080  0.00  0.00    +0.000 OA
ATOM     14  H   UNL     1      -1.889  12.230  16.119  0.00  0.00    +0.000 HD
ENDBRANCH  12  13
ENDBRANCH  10  12
ENDBRANCH   7  10
ENDBRANCH   1   7
BRANCH   4  15
ATOM     15  S   UNL     1       3.408   5.855  18.312  0.00  0.00    +0.000 S 
BRANCH  15  16
ATOM     16  C   UNL     1       2.532   4.658  19.303  0.00  0.00    +0.000 A 
ATOM     17  C   UNL     1       2.966   4.420  20.613  0.00  0.00    +0.000 A 
ATOM     18  C   UNL     1       2.288   3.513  21.432  0.00  0.00    +0.000 A 
ATOM     19  C   UNL     1       1.166   2.844  20.951  0.00  0.00    +0.000 A 
ATOM     20  C   UNL     1       0.712   3.089  19.656  0.00  0.00    +0.000 A 
ATOM     21  C   UNL     1       1.389   3.997  18.838  0.00  0.00    +0.000 A 
ENDBRANCH  15  16
ENDBRANCH   4  15
TORSDOF 6
ENDMDL
MODEL 9
REMARK VINA RESULT:      -6.7      2.926      4.492
REMARK  Name = 
REMARK  6 active torsions:
REMARK  status: ('A' for Active; 'I' for Inactive)
REMARK    1  A    between atoms: C_2  and  O_3
REMARK    2  A    between atoms: C_2  and  C_4
REMARK    3  A    between atoms: C_4  and  S_5
REMARK    4  A    between atoms: S_5  and  C_8
REMARK    5  A    between atoms: C_11  and  S_12
REMARK    6  A    between atoms: S_12  and  C_13
REMARK                            x       y       z     vdW  Elec       q    Type
REMARK                         _______ _______ _______ _____ _____    ______ ____
ROOT
ATOM      1  C   UNL     1       1.109   9.760  19.488  0.00  0.00    +0.000 A 
ATOM      2  C   UNL     1       1.281   8.732  20.416  0.00  0.00    +0.000 A 
ATOM      3  C   UNL     1       1.936   7.560  20.033  0.00  0.00    +0.000 A 
ATOM      4  C   UNL     1       2.399   7.399  18.722  0.00  0.00    +0.000 A 
ATOM      5  C   UNL     1       2.210   8.432  17.796  0.00  0.00    +0.000 A 
ATOM      6  C   UNL     1       1.559   9.615  18.174  0.00  0.00    +0.000 A 
ENDROOT
BRANCH   1   7
ATOM      7  S   UNL     1       0.288  11.253  19.985  0.00  0.00    +0.000 S 
ATOM      8  O   UNL     1       0.783  11.628  21.302  0.00  0.00    +0.000 OA
ATOM      9  O   UNL     1      -1.131  11.048  19.769  0.00  0.00    +0.000 OA
BRANCH   7  10
ATOM     10  C   UNL     1       0.823  12.524  18.909  0.00  0.00    +0.000 C 
BRANCH  10  12
ATOM     11  O   UNL     1      -0.589  14.436  18.933  0.00  0.00    +0.000 OA
ATOM     12  C   UNL     1      -0.329  13.342  18.448  0.00  0.00    +0.000 C 
BRANCH  12  13
ATOM     13  O   UNL     1      -1.034  12.841  17.412  0.00  0.00    +0.000 OA
ATOM     14  H   UNL     1      -1.624  12.078  17.612  0.00  0.00    +0.000 HD
ENDBRANCH  12  13
ENDBRANCH  10  12
ENDBRANCH   7  10
ENDBRANCH   1   7
BRANCH   4  15
ATOM     15  S   UNL     1       3.300   5.926  18.275  0.00  0.00    +0.000 S 
BRANCH  15  16
ATOM     16  C   UNL     1       2.482   4.660  19.232  0.00  0.00    +0.000 A 
ATOM     17  C   UNL     1       2.909   4.427  20.545  0.00  0.00    +0.000 A 
ATOM     18  C   UNL     1       2.276   3.466  21.337  0.00  0.00    +0.000 A 
ATOM     19  C   UNL     1       1.204   2.738  20.826  0.00  0.00    +0.000 A 
ATOM     20  C   UNL     1       0.758   2.977  19.528  0.00  0.00    +0.000 A 
ATOM     21  C   UNL     1       1.391   3.939  18.737  0.00  0.00    +0.000 A 
ENDBRANCH  15  16
ENDBRANCH   4  15
TORSDOF 6
ENDMDL
