MODEL 1
REMARK VINA RESULT:      -8.2      0.000      0.000
REMARK  Name = 
REMARK  7 active torsions:
REMARK  status: ('A' for Active; 'I' for Inactive)
REMARK    1  A    between atoms: C_1  and  O_2
REMARK    2  A    between atoms: O_2  and  C_3
REMARK    3  A    between atoms: N_9  and  C_10
REMARK    4  A    between atoms: C_20  and  O_21
REMARK    5  A    between atoms: O_21  and  C_22
REMARK    6  A    between atoms: C_23  and  O_24
REMARK    7  A    between atoms: O_24  and  C_25
REMARK                            x       y       z     vdW  Elec       q    Type
REMARK                         _______ _______ _______ _____ _____    ______ ____
ROOT
ATOM      1  C   UNL     1       3.013   4.163  20.336  0.00  0.00    +0.000 A 
ATOM      2  C   UNL     1       2.458   5.450  20.261  0.00  0.00    +0.000 A 
ATOM      3  C   UNL     1       2.818   6.337  19.234  0.00  0.00    +0.000 A 
ATOM      4  C   UNL     1       3.788   5.964  18.293  0.00  0.00    +0.000 A 
ATOM      5  C   UNL     1       3.960   7.082  17.425  0.00  0.00    +0.000 A 
ATOM      6  C   UNL     1       3.113   8.082  17.829  0.00  0.00    +0.000 A 
ATOM      7  N   UNL     1       2.367   7.618  18.906  0.00  0.00    +0.000 N 
ATOM      8  C   UNL     1       4.371   4.662  18.334  0.00  0.00    +0.000 A 
ATOM      9  C   UNL     1       3.938   3.741  19.342  0.00  0.00    +0.000 A 
ENDROOT
BRANCH   7  10
ATOM     10  C   UNL     1       1.430   8.423  19.618  0.00  0.00    +0.000 A 
ATOM     11  C   UNL     1       0.970   9.531  18.914  0.00  0.00    +0.000 A 
ATOM     12  C   UNL     1       0.071  10.304  19.527  0.00  0.00    +0.000 A 
ATOM     13  C   UNL     1      -0.124  10.073  20.839  0.00  0.00    +0.000 A 
ATOM     14  N   UNL     1      -0.752  11.045  21.345  0.00  0.00    +0.000 NA
ATOM     15  C   UNL     1      -1.379  12.025  21.802  0.00  0.00    +0.000 A 
ATOM     16  C   UNL     1      -1.255  11.433  23.002  0.00  0.00    +0.000 A 
ATOM     17  C   UNL     1      -0.496   9.953  23.147  0.00  0.00    +0.000 A 
ATOM     18  C   UNL     1       0.196   9.220  21.816  0.00  0.00    +0.000 A 
ATOM     19  C   UNL     1       0.975   8.172  20.997  0.00  0.00    +0.000 A 
ENDBRANCH   7  10
BRANCH   1  21
ATOM     20  C   UNL     1       1.185   2.818  21.137  0.00  0.00    +0.000 C 
ATOM     21  O   UNL     1       2.516   3.348  21.342  0.00  0.00    +0.000 OA
ENDBRANCH   1  21
BRANCH   8  22
ATOM     22  O   UNL     1       5.282   4.366  17.328  0.00  0.00    +0.000 OA
ATOM     23  C   UNL     1       6.667   4.625  17.579  0.00  0.00    +0.000 C 
ENDBRANCH   8  22
BRANCH   9  24
ATOM     24  O   UNL     1       4.405   2.471  19.106  0.00  0.00    +0.000 OA
ATOM     25  C   UNL     1       3.588   1.522  18.483  0.00  0.00    +0.000 C 
ENDBRANCH   9  24
TORSDOF 4
ENDMDL
MODEL 2
REMARK VINA RESULT:      -7.5      4.411      8.360
REMARK  Name = 
REMARK  7 active torsions:
REMARK  status: ('A' for Active; 'I' for Inactive)
REMARK    1  A    between atoms: C_1  and  O_2
REMARK    2  A    between atoms: O_2  and  C_3
REMARK    3  A    between atoms: N_9  and  C_10
REMARK    4  A    between atoms: C_20  and  O_21
REMARK    5  A    between atoms: O_21  and  C_22
REMARK    6  A    between atoms: C_23  and  O_24
REMARK    7  A    between atoms: O_24  and  C_25
REMARK                            x       y       z     vdW  Elec       q    Type
REMARK                         _______ _______ _______ _____ _____    ______ ____
ROOT
ATOM      1  C   UNL     1      -2.509  10.341  17.356  0.00  0.00    +0.000 A 
ATOM      2  C   UNL     1      -1.298   9.811  17.828  0.00  0.00    +0.000 A 
ATOM      3  C   UNL     1      -0.681  10.326  18.979  0.00  0.00    +0.000 A 
ATOM      4  C   UNL     1      -1.244  11.423  19.646  0.00  0.00    +0.000 A 
ATOM      5  C   UNL     1      -0.369  11.731  20.729  0.00  0.00    +0.000 A 
ATOM      6  C   UNL     1       0.673  10.839  20.715  0.00  0.00    +0.000 A 
ATOM      7  N   UNL     1       0.466   9.938  19.677  0.00  0.00    +0.000 N 
ATOM      8  C   UNL     1      -2.477  11.986  19.198  0.00  0.00    +0.000 A 
ATOM      9  C   UNL     1      -3.134  11.401  18.068  0.00  0.00    +0.000 A 
ENDROOT
BRANCH   7  10
ATOM     10  C   UNL     1       1.392   8.910  19.332  0.00  0.00    +0.000 A 
ATOM     11  C   UNL     1       1.936   9.029  18.057  0.00  0.00    +0.000 A 
ATOM     12  C   UNL     1       2.829   8.106  17.695  0.00  0.00    +0.000 A 
ATOM     13  C   UNL     1       2.939   7.030  18.497  0.00  0.00    +0.000 A 
ATOM     14  N   UNL     1       3.576   6.122  17.892  0.00  0.00    +0.000 NA
ATOM     15  C   UNL     1       4.215   5.255  17.259  0.00  0.00    +0.000 A 
ATOM     16  C   UNL     1       3.999   4.451  18.313  0.00  0.00    +0.000 A 
ATOM     17  C   UNL     1       3.173   5.008  19.653  0.00  0.00    +0.000 A 
ATOM     18  C   UNL     1       2.529   6.549  19.674  0.00  0.00    +0.000 A 
ATOM     19  C   UNL     1       1.757   7.775  20.198  0.00  0.00    +0.000 A 
ENDBRANCH   7  10
BRANCH   1  21
ATOM     20  C   UNL     1      -3.023  10.410  15.006  0.00  0.00    +0.000 C 
ATOM     21  O   UNL     1      -3.066   9.694  16.263  0.00  0.00    +0.000 OA
ENDBRANCH   1  21
BRANCH   8  22
ATOM     22  O   UNL     1      -2.983  13.035  19.954  0.00  0.00    +0.000 OA
ATOM     23  C   UNL     1      -3.762  12.714  21.111  0.00  0.00    +0.000 C 
ENDBRANCH   8  22
BRANCH   9  24
ATOM     24  O   UNL     1      -4.408  11.890  17.910  0.00  0.00    +0.000 OA
ATOM     25  C   UNL     1      -5.515  11.090  18.211  0.00  0.00    +0.000 C 
ENDBRANCH   9  24
TORSDOF 4
ENDMDL
MODEL 3
REMARK VINA RESULT:      -7.5      0.988      1.538
REMARK  Name = 
REMARK  7 active torsions:
REMARK  status: ('A' for Active; 'I' for Inactive)
REMARK    1  A    between atoms: C_1  and  O_2
REMARK    2  A    between atoms: O_2  and  C_3
REMARK    3  A    between atoms: N_9  and  C_10
REMARK    4  A    between atoms: C_20  and  O_21
REMARK    5  A    between atoms: O_21  and  C_22
REMARK    6  A    between atoms: C_23  and  O_24
REMARK    7  A    between atoms: O_24  and  C_25
REMARK                            x       y       z     vdW  Elec       q    Type
REMARK                         _______ _______ _______ _____ _____    ______ ____
ROOT
ATOM      1  C   UNL     1       1.912   3.993  19.550  0.00  0.00    +0.000 A 
ATOM      2  C   UNL     1       1.743   5.373  19.744  0.00  0.00    +0.000 A 
ATOM      3  C   UNL     1       2.360   6.306  18.896  0.00  0.00    +0.000 A 
ATOM      4  C   UNL     1       3.206   5.868  17.868  0.00  0.00    +0.000 A 
ATOM      5  C   UNL     1       3.705   7.040  17.227  0.00  0.00    +0.000 A 
ATOM      6  C   UNL     1       3.163   8.138  17.846  0.00  0.00    +0.000 A 
ATOM      7  N   UNL     1       2.294   7.700  18.838  0.00  0.00    +0.000 N 
ATOM      8  C   UNL     1       3.399   4.472  17.637  0.00  0.00    +0.000 A 
ATOM      9  C   UNL     1       2.702   3.531  18.462  0.00  0.00    +0.000 A 
ENDROOT
BRANCH   7  10
ATOM     10  C   UNL     1       1.606   8.581  19.724  0.00  0.00    +0.000 A 
ATOM     11  C   UNL     1       1.523   8.128  21.036  0.00  0.00    +0.000 A 
ATOM     12  C   UNL     1       0.911   8.928  21.912  0.00  0.00    +0.000 A 
ATOM     13  C   UNL     1       0.235   9.973  21.399  0.00  0.00    +0.000 A 
ATOM     14  N   UNL     1      -0.527  10.453  22.285  0.00  0.00    +0.000 NA
ATOM     15  C   UNL     1      -1.260  10.898  23.194  0.00  0.00    +0.000 A 
ATOM     16  C   UNL     1      -1.735  11.753  22.272  0.00  0.00    +0.000 A 
ATOM     17  C   UNL     1      -1.132  11.746  20.715  0.00  0.00    +0.000 A 
ATOM     18  C   UNL     1       0.014  10.624  20.253  0.00  0.00    +0.000 A 
ATOM     19  C   UNL     1       0.986   9.859  19.333  0.00  0.00    +0.000 A 
ENDBRANCH   7  10
BRANCH   1  21
ATOM     20  C   UNL     1       1.792   2.870  21.674  0.00  0.00    +0.000 C 
ATOM     21  O   UNL     1       1.184   3.169  20.396  0.00  0.00    +0.000 OA
ENDBRANCH   1  21
BRANCH   8  22
ATOM     22  O   UNL     1       4.212   4.136  16.562  0.00  0.00    +0.000 OA
ATOM     23  C   UNL     1       5.627   4.106  16.773  0.00  0.00    +0.000 C 
ENDBRANCH   8  22
BRANCH   9  24
ATOM     24  O   UNL     1       2.798   2.253  17.969  0.00  0.00    +0.000 OA
ATOM     25  C   UNL     1       3.661   1.329  18.567  0.00  0.00    +0.000 C 
ENDBRANCH   9  24
TORSDOF 4
ENDMDL
MODEL 4
REMARK VINA RESULT:      -7.4      4.399      8.437
REMARK  Name = 
REMARK  7 active torsions:
REMARK  status: ('A' for Active; 'I' for Inactive)
REMARK    1  A    between atoms: C_1  and  O_2
REMARK    2  A    between atoms: O_2  and  C_3
REMARK    3  A    between atoms: N_9  and  C_10
REMARK    4  A    between atoms: C_20  and  O_21
REMARK    5  A    between atoms: O_21  and  C_22
REMARK    6  A    between atoms: C_23  and  O_24
REMARK    7  A    between atoms: O_24  and  C_25
REMARK                            x       y       z     vdW  Elec       q    Type
REMARK                         _______ _______ _______ _____ _____    ______ ____
ROOT
ATOM      1  C   UNL     1      -2.408  10.326  17.271  0.00  0.00    +0.000 A 
ATOM      2  C   UNL     1      -1.222   9.738  17.739  0.00  0.00    +0.000 A 
ATOM      3  C   UNL     1      -0.563  10.238  18.873  0.00  0.00    +0.000 A 
ATOM      4  C   UNL     1      -1.056  11.376  19.526  0.00  0.00    +0.000 A 
ATOM      5  C   UNL     1      -0.152  11.653  20.594  0.00  0.00    +0.000 A 
ATOM      6  C   UNL     1       0.838  10.703  20.584  0.00  0.00    +0.000 A 
ATOM      7  N   UNL     1       0.569   9.798  19.564  0.00  0.00    +0.000 N 
ATOM      8  C   UNL     1      -2.261  11.998  19.082  0.00  0.00    +0.000 A 
ATOM      9  C   UNL     1      -2.964  11.432  17.970  0.00  0.00    +0.000 A 
ENDROOT
BRANCH   7  10
ATOM     10  C   UNL     1       1.432   8.714  19.227  0.00  0.00    +0.000 A 
ATOM     11  C   UNL     1       1.621   7.789  20.248  0.00  0.00    +0.000 A 
ATOM     12  C   UNL     1       2.400   6.740  19.975  0.00  0.00    +0.000 A 
ATOM     13  C   UNL     1       3.109   6.802  18.832  0.00  0.00    +0.000 A 
ATOM     14  N   UNL     1       4.008   5.914  18.850  0.00  0.00    +0.000 NA
ATOM     15  C   UNL     1       4.878   5.019  18.908  0.00  0.00    +0.000 A 
ATOM     16  C   UNL     1       5.324   5.498  17.734  0.00  0.00    +0.000 A 
ATOM     17  C   UNL     1       4.550   6.775  16.988  0.00  0.00    +0.000 A 
ATOM     18  C   UNL     1       3.259   7.535  17.724  0.00  0.00    +0.000 A 
ATOM     19  C   UNL     1       2.122   8.553  17.935  0.00  0.00    +0.000 A 
ENDBRANCH   7  10
BRANCH   1  21
ATOM     20  C   UNL     1      -3.035  10.429  14.950  0.00  0.00    +0.000 C 
ATOM     21  O   UNL     1      -3.013   9.693  16.196  0.00  0.00    +0.000 OA
ENDBRANCH   1  21
BRANCH   8  22
ATOM     22  O   UNL     1      -2.699  13.087  19.826  0.00  0.00    +0.000 OA
ATOM     23  C   UNL     1      -3.454  12.830  21.014  0.00  0.00    +0.000 C 
ENDBRANCH   8  22
BRANCH   9  24
ATOM     24  O   UNL     1      -4.210  11.988  17.819  0.00  0.00    +0.000 OA
ATOM     25  C   UNL     1      -5.354  11.271  18.184  0.00  0.00    +0.000 C 
ENDBRANCH   9  24
TORSDOF 4
ENDMDL
MODEL 5
REMARK VINA RESULT:      -7.3      1.163      1.197
REMARK  Name = 
REMARK  7 active torsions:
REMARK  status: ('A' for Active; 'I' for Inactive)
REMARK    1  A    between atoms: C_1  and  O_2
REMARK    2  A    between atoms: O_2  and  C_3
REMARK    3  A    between atoms: N_9  and  C_10
REMARK    4  A    between atoms: C_20  and  O_21
REMARK    5  A    between atoms: O_21  and  C_22
REMARK    6  A    between atoms: C_23  and  O_24
REMARK    7  A    between atoms: O_24  and  C_25
REMARK                            x       y       z     vdW  Elec       q    Type
REMARK                         _______ _______ _______ _____ _____    ______ ____
ROOT
ATOM      1  C   UNL     1       2.161   3.796  18.932  0.00  0.00    +0.000 A 
ATOM      2  C   UNL     1       1.912   5.172  19.043  0.00  0.00    +0.000 A 
ATOM      3  C   UNL     1       2.745   6.114  18.418  0.00  0.00    +0.000 A 
ATOM      4  C   UNL     1       3.880   5.687  17.715  0.00  0.00    +0.000 A 
ATOM      5  C   UNL     1       4.532   6.866  17.246  0.00  0.00    +0.000 A 
ATOM      6  C   UNL     1       3.801   7.956  17.647  0.00  0.00    +0.000 A 
ATOM      7  N   UNL     1       2.673   7.505  18.322  0.00  0.00    +0.000 N 
ATOM      8  C   UNL     1       4.164   4.296  17.577  0.00  0.00    +0.000 A 
ATOM      9  C   UNL     1       3.263   3.345  18.155  0.00  0.00    +0.000 A 
ENDROOT
BRANCH   7  10
ATOM     10  C   UNL     1       1.723   8.376  18.933  0.00  0.00    +0.000 A 
ATOM     11  C   UNL     1       1.159   9.310  18.071  0.00  0.00    +0.000 A 
ATOM     12  C   UNL     1       0.244  10.132  18.589  0.00  0.00    +0.000 A 
ATOM     13  C   UNL     1       0.130  10.135  19.930  0.00  0.00    +0.000 A 
ATOM     14  N   UNL     1      -0.532  11.148  20.291  0.00  0.00    +0.000 NA
ATOM     15  C   UNL     1      -1.197  12.160  20.601  0.00  0.00    +0.000 A 
ATOM     16  C   UNL     1      -0.975  11.806  21.879  0.00  0.00    +0.000 A 
ATOM     17  C   UNL     1      -0.117  10.420  22.240  0.00  0.00    +0.000 A 
ATOM     18  C   UNL     1       0.553   9.494  21.024  0.00  0.00    +0.000 A 
ATOM     19  C   UNL     1       1.355   8.357  20.360  0.00  0.00    +0.000 A 
ENDBRANCH   7  10
BRANCH   1  21
ATOM     20  C   UNL     1       1.326   2.788  20.952  0.00  0.00    +0.000 C 
ATOM     21  O   UNL     1       1.221   2.962  19.519  0.00  0.00    +0.000 OA
ENDBRANCH   1  21
BRANCH   8  22
ATOM     22  O   UNL     1       5.281   3.970  16.818  0.00  0.00    +0.000 OA
ATOM     23  C   UNL     1       5.201   4.138  15.399  0.00  0.00    +0.000 C 
ENDBRANCH   8  22
BRANCH   9  24
ATOM     24  O   UNL     1       3.535   2.065  17.737  0.00  0.00    +0.000 OA
ATOM     25  C   UNL     1       3.926   1.088  18.659  0.00  0.00    +0.000 C 
ENDBRANCH   9  24
TORSDOF 4
ENDMDL
MODEL 6
REMARK VINA RESULT:      -7.2      1.291      3.448
REMARK  Name = 
REMARK  7 active torsions:
REMARK  status: ('A' for Active; 'I' for Inactive)
REMARK    1  A    between atoms: C_1  and  O_2
REMARK    2  A    between atoms: O_2  and  C_3
REMARK    3  A    between atoms: N_9  and  C_10
REMARK    4  A    between atoms: C_20  and  O_21
REMARK    5  A    between atoms: O_21  and  C_22
REMARK    6  A    between atoms: C_23  and  O_24
REMARK    7  A    between atoms: O_24  and  C_25
REMARK                            x       y       z     vdW  Elec       q    Type
REMARK                         _______ _______ _______ _____ _____    ______ ____
ROOT
ATOM      1  C   UNL     1       4.785   6.235  17.382  0.00  0.00    +0.000 A 
ATOM      2  C   UNL     1       3.845   6.927  18.161  0.00  0.00    +0.000 A 
ATOM      3  C   UNL     1       3.043   6.254  19.098  0.00  0.00    +0.000 A 
ATOM      4  C   UNL     1       3.134   4.862  19.227  0.00  0.00    +0.000 A 
ATOM      5  C   UNL     1       2.174   4.484  20.211  0.00  0.00    +0.000 A 
ATOM      6  C   UNL     1       1.542   5.615  20.661  0.00  0.00    +0.000 A 
ATOM      7  N   UNL     1       2.104   6.715  20.023  0.00  0.00    +0.000 N 
ATOM      8  C   UNL     1       4.081   4.124  18.454  0.00  0.00    +0.000 A 
ATOM      9  C   UNL     1       4.945   4.833  17.559  0.00  0.00    +0.000 A 
ENDROOT
BRANCH   7  10
ATOM     10  C   UNL     1       1.640   8.051  20.207  0.00  0.00    +0.000 A 
ATOM     11  C   UNL     1       1.380   8.394  21.529  0.00  0.00    +0.000 A 
ATOM     12  C   UNL     1       0.968   9.643  21.758  0.00  0.00    +0.000 A 
ATOM     13  C   UNL     1       0.622  10.367  20.678  0.00  0.00    +0.000 A 
ATOM     14  N   UNL     1      -0.021  11.390  21.049  0.00  0.00    +0.000 NA
ATOM     15  C   UNL     1      -0.646  12.389  21.462  0.00  0.00    +0.000 A 
ATOM     16  C   UNL     1      -0.832  12.699  20.168  0.00  0.00    +0.000 A 
ATOM     17  C   UNL     1      -0.184  11.742  18.963  0.00  0.00    +0.000 A 
ATOM     18  C   UNL     1       0.636  10.338  19.342  0.00  0.00    +0.000 A 
ATOM     19  C   UNL     1       1.405   9.021  19.122  0.00  0.00    +0.000 A 
ENDBRANCH   7  10
BRANCH   1  21
ATOM     20  C   UNL     1       6.870   7.398  17.083  0.00  0.00    +0.000 C 
ATOM     21  O   UNL     1       5.578   7.017  16.555  0.00  0.00    +0.000 OA
ENDBRANCH   1  21
BRANCH   8  22
ATOM     22  O   UNL     1       4.134   2.757  18.692  0.00  0.00    +0.000 OA
ATOM     23  C   UNL     1       3.296   1.905  17.903  0.00  0.00    +0.000 C 
ENDBRANCH   8  22
BRANCH   9  24
ATOM     24  O   UNL     1       5.948   4.029  17.076  0.00  0.00    +0.000 OA
ATOM     25  C   UNL     1       6.051   3.775  15.704  0.00  0.00    +0.000 C 
ENDBRANCH   9  24
TORSDOF 4
ENDMDL
MODEL 7
REMARK VINA RESULT:      -7.0      3.897      8.327
REMARK  Name = 
REMARK  7 active torsions:
REMARK  status: ('A' for Active; 'I' for Inactive)
REMARK    1  A    between atoms: C_1  and  O_2
REMARK    2  A    between atoms: O_2  and  C_3
REMARK    3  A    between atoms: N_9  and  C_10
REMARK    4  A    between atoms: C_20  and  O_21
REMARK    5  A    between atoms: O_21  and  C_22
REMARK    6  A    between atoms: C_23  and  O_24
REMARK    7  A    between atoms: O_24  and  C_25
REMARK                            x       y       z     vdW  Elec       q    Type
REMARK                         _______ _______ _______ _____ _____    ______ ____
ROOT
ATOM      1  C   UNL     1      -1.289  11.257  18.809  0.00  0.00    +0.000 A 
ATOM      2  C   UNL     1      -0.364  10.217  18.983  0.00  0.00    +0.000 A 
ATOM      3  C   UNL     1       0.107   9.870  20.259  0.00  0.00    +0.000 A 
ATOM      4  C   UNL     1      -0.304  10.603  21.381  0.00  0.00    +0.000 A 
ATOM      5  C   UNL     1       0.376  10.042  22.502  0.00  0.00    +0.000 A 
ATOM      6  C   UNL     1       1.155   9.001  22.063  0.00  0.00    +0.000 A 
ATOM      7  N   UNL     1       0.958   8.851  20.695  0.00  0.00    +0.000 N 
ATOM      8  C   UNL     1      -1.247  11.666  21.244  0.00  0.00    +0.000 A 
ATOM      9  C   UNL     1      -1.777  11.958  19.946  0.00  0.00    +0.000 A 
ENDROOT
BRANCH   7  10
ATOM     10  C   UNL     1       1.663   7.901  19.899  0.00  0.00    +0.000 A 
ATOM     11  C   UNL     1       1.760   6.634  20.465  0.00  0.00    +0.000 A 
ATOM     12  C   UNL     1       2.389   5.701  19.747  0.00  0.00    +0.000 A 
ATOM     13  C   UNL     1       3.066   6.130  18.666  0.00  0.00    +0.000 A 
ATOM     14  N   UNL     1       3.842   5.215  18.269  0.00  0.00    +0.000 NA
ATOM     15  C   UNL     1       4.589   4.281  17.909  0.00  0.00    +0.000 A 
ATOM     16  C   UNL     1       5.059   5.132  16.980  0.00  0.00    +0.000 A 
ATOM     17  C   UNL     1       4.435   6.675  16.848  0.00  0.00    +0.000 A 
ATOM     18  C   UNL     1       3.276   7.218  17.919  0.00  0.00    +0.000 A 
ATOM     19  C   UNL     1       2.287   8.188  18.595  0.00  0.00    +0.000 A 
ENDBRANCH   7  10
BRANCH   1  21
ATOM     20  C   UNL     1      -2.146  10.261  16.793  0.00  0.00    +0.000 C 
ATOM     21  O   UNL     1      -1.746  11.450  17.514  0.00  0.00    +0.000 OA
ENDBRANCH   1  21
BRANCH   8  22
ATOM     22  O   UNL     1      -1.633  12.297  22.419  0.00  0.00    +0.000 OA
ATOM     23  C   UNL     1      -0.951  13.500  22.791  0.00  0.00    +0.000 C 
ENDBRANCH   8  22
BRANCH   9  24
ATOM     24  O   UNL     1      -2.836  12.829  20.013  0.00  0.00    +0.000 OA
ATOM     25  C   UNL     1      -4.139  12.376  19.786  0.00  0.00    +0.000 C 
ENDBRANCH   9  24
TORSDOF 4
ENDMDL
MODEL 8
REMARK VINA RESULT:      -6.9      3.189      8.207
REMARK  Name = 
REMARK  7 active torsions:
REMARK  status: ('A' for Active; 'I' for Inactive)
REMARK    1  A    between atoms: C_1  and  O_2
REMARK    2  A    between atoms: O_2  and  C_3
REMARK    3  A    between atoms: N_9  and  C_10
REMARK    4  A    between atoms: C_20  and  O_21
REMARK    5  A    between atoms: O_21  and  C_22
REMARK    6  A    between atoms: C_23  and  O_24
REMARK    7  A    between atoms: O_24  and  C_25
REMARK                            x       y       z     vdW  Elec       q    Type
REMARK                         _______ _______ _______ _____ _____    ______ ____
ROOT
ATOM      1  C   UNL     1       2.819   7.085  18.985  0.00  0.00    +0.000 A 
ATOM      2  C   UNL     1       3.712   6.338  18.201  0.00  0.00    +0.000 A 
ATOM      3  C   UNL     1       3.992   4.995  18.500  0.00  0.00    +0.000 A 
ATOM      4  C   UNL     1       3.420   4.394  19.630  0.00  0.00    +0.000 A 
ATOM      5  C   UNL     1       3.930   3.064  19.683  0.00  0.00    +0.000 A 
ATOM      6  C   UNL     1       4.768   2.876  18.612  0.00  0.00    +0.000 A 
ATOM      7  N   UNL     1       4.773   4.037  17.849  0.00  0.00    +0.000 N 
ATOM      8  C   UNL     1       2.504   5.121  20.449  0.00  0.00    +0.000 A 
ATOM      9  C   UNL     1       2.169   6.465  20.087  0.00  0.00    +0.000 A 
ENDROOT
BRANCH   7  10
ATOM     10  C   UNL     1       5.590   4.214  16.693  0.00  0.00    +0.000 A 
ATOM     11  C   UNL     1       6.570   5.192  16.824  0.00  0.00    +0.000 A 
ATOM     12  C   UNL     1       7.378   5.379  15.779  0.00  0.00    +0.000 A 
ATOM     13  C   UNL     1       7.022   4.776  14.630  0.00  0.00    +0.000 A 
ATOM     14  N   UNL     1       7.685   5.272  13.675  0.00  0.00    +0.000 NA
ATOM     15  C   UNL     1       8.366   5.787  12.763  0.00  0.00    +0.000 A 
ATOM     16  C   UNL     1       7.660   5.015  11.919  0.00  0.00    +0.000 A 
ATOM     17  C   UNL     1       6.503   3.960  12.498  0.00  0.00    +0.000 A 
ATOM     18  C   UNL     1       6.143   3.903  14.127  0.00  0.00    +0.000 A 
ATOM     19  C   UNL     1       5.435   3.476  15.427  0.00  0.00    +0.000 A 
ENDBRANCH   7  10
BRANCH   1  21
ATOM     20  C   UNL     1       1.376   8.536  17.719  0.00  0.00    +0.000 C 
ATOM     21  O   UNL     1       2.555   8.372  18.541  0.00  0.00    +0.000 OA
ENDBRANCH   1  21
BRANCH   8  22
ATOM     22  O   UNL     1       1.949   4.424  21.514  0.00  0.00    +0.000 OA
ATOM     23  C   UNL     1       1.206   3.235  21.226  0.00  0.00    +0.000 C 
ENDBRANCH   8  22
BRANCH   9  24
ATOM     24  O   UNL     1       1.109   6.940  20.820  0.00  0.00    +0.000 OA
ATOM     25  C   UNL     1       1.182   8.193  21.438  0.00  0.00    +0.000 C 
ENDBRANCH   9  24
TORSDOF 4
ENDMDL
MODEL 9
REMARK VINA RESULT:      -6.9      1.533      3.459
REMARK  Name = 
REMARK  7 active torsions:
REMARK  status: ('A' for Active; 'I' for Inactive)
REMARK    1  A    between atoms: C_1  and  O_2
REMARK    2  A    between atoms: O_2  and  C_3
REMARK    3  A    between atoms: N_9  and  C_10
REMARK    4  A    between atoms: C_20  and  O_21
REMARK    5  A    between atoms: O_21  and  C_22
REMARK    6  A    between atoms: C_23  and  O_24
REMARK    7  A    between atoms: O_24  and  C_25
REMARK                            x       y       z     vdW  Elec       q    Type
REMARK                         _______ _______ _______ _____ _____    ______ ____
ROOT
ATOM      1  C   UNL     1       4.871   6.131  17.203  0.00  0.00    +0.000 A 
ATOM      2  C   UNL     1       3.862   6.890  17.817  0.00  0.00    +0.000 A 
ATOM      3  C   UNL     1       3.199   6.424  18.964  0.00  0.00    +0.000 A 
ATOM      4  C   UNL     1       3.501   5.157  19.482  0.00  0.00    +0.000 A 
ATOM      5  C   UNL     1       2.639   4.963  20.601  0.00  0.00    +0.000 A 
ATOM      6  C   UNL     1       1.859   6.082  20.751  0.00  0.00    +0.000 A 
ATOM      7  N   UNL     1       2.231   7.008  19.784  0.00  0.00    +0.000 N 
ATOM      8  C   UNL     1       4.523   4.358  18.887  0.00  0.00    +0.000 A 
ATOM      9  C   UNL     1       5.244   4.879  17.765  0.00  0.00    +0.000 A 
ENDROOT
BRANCH   7  10
ATOM     10  C   UNL     1       1.579   8.264  19.608  0.00  0.00    +0.000 A 
ATOM     11  C   UNL     1       1.660   8.780  18.319  0.00  0.00    +0.000 A 
ATOM     12  C   UNL     1       1.043   9.943  18.095  0.00  0.00    +0.000 A 
ATOM     13  C   UNL     1       0.609  10.610  19.180  0.00  0.00    +0.000 A 
ATOM     14  N   UNL     1       0.330  11.799  18.856  0.00  0.00    +0.000 NA
ATOM     15  C   UNL     1       0.061  12.962  18.489  0.00  0.00    +0.000 A 
ATOM     16  C   UNL     1      -0.201  13.216  19.782  0.00  0.00    +0.000 A 
ATOM     17  C   UNL     1      -0.074  12.009  20.928  0.00  0.00    +0.000 A 
ATOM     18  C   UNL     1       0.459  10.486  20.503  0.00  0.00    +0.000 A 
ATOM     19  C   UNL     1       0.889   9.015  20.672  0.00  0.00    +0.000 A 
ENDBRANCH   7  10
BRANCH   1  21
ATOM     20  C   UNL     1       5.563   5.964  14.905  0.00  0.00    +0.000 C 
ATOM     21  O   UNL     1       5.512   6.732  16.131  0.00  0.00    +0.000 OA
ENDBRANCH   1  21
BRANCH   8  22
ATOM     22  O   UNL     1       4.787   3.142  19.504  0.00  0.00    +0.000 OA
ATOM     23  C   UNL     1       3.973   2.019  19.151  0.00  0.00    +0.000 C 
ENDBRANCH   8  22
BRANCH   9  24
ATOM     24  O   UNL     1       6.340   4.109  17.461  0.00  0.00    +0.000 OA
ATOM     25  C   UNL     1       7.629   4.573  17.743  0.00  0.00    +0.000 C 
ENDBRANCH   9  24
TORSDOF 4
ENDMDL
