MODEL 1
REMARK VINA RESULT:      -7.5      0.000      0.000
REMARK  Name = 
REMARK  3 active torsions:
REMARK  status: ('A' for Active; 'I' for Inactive)
REMARK    1  A    between atoms: C_2  and  C_3
REMARK    2  A    between atoms: N_11  and  C_12
REMARK    3  A    between atoms: N_11  and  C_19
REMARK                            x       y       z     vdW  Elec       q    Type
REMARK                         _______ _______ _______ _____ _____    ______ ____
ROOT
ATOM      1  O   UNL     1       4.668   3.421  16.994  0.00  0.00    +0.000 OA
ATOM      2  C   UNL     1       4.364   4.448  17.582  0.00  0.00    +0.000 C 
ATOM      3  N   UNL     1       3.031   4.633  17.946  0.00  0.00    +0.000 N 
ENDROOT
BRANCH   2   4
ATOM      4  C   UNL     1       5.512   5.392  17.881  0.00  0.00    +0.000 A 
ATOM      5  C   UNL     1       6.324   5.266  19.035  0.00  0.00    +0.000 A 
ATOM      6  C   UNL     1       7.384   6.142  19.282  0.00  0.00    +0.000 A 
ATOM      7  C   UNL     1       7.670   7.162  18.385  0.00  0.00    +0.000 A 
ATOM      8 CL   UNL     1       8.998   8.262  18.706  0.00  0.00    +0.000 Cl
ATOM      9  C   UNL     1       6.904   7.306  17.231  0.00  0.00    +0.000 A 
ATOM     10  C   UNL     1       5.842   6.435  16.965  0.00  0.00    +0.000 A 
ATOM     11 CL   UNL     1       4.939   6.742  15.480  0.00  0.00    +0.000 Cl
ENDBRANCH   2   4
BRANCH   3  12
ATOM     12  C   UNL     1       2.624   5.821  18.644  0.00  0.00    +0.000 A 
ATOM     13  C   UNL     1       2.364   5.781  20.028  0.00  0.00    +0.000 A 
ATOM     14  C   UNL     1       1.868   6.906  20.691  0.00  0.00    +0.000 A 
ATOM     15  C   UNL     1       1.627   8.088  19.987  0.00  0.00    +0.000 A 
ATOM     16 CL   UNL     1       0.968   9.485  20.817  0.00  0.00    +0.000 Cl
ATOM     17  C   UNL     1       1.892   8.149  18.616  0.00  0.00    +0.000 A 
ATOM     18  C   UNL     1       2.388   7.023  17.946  0.00  0.00    +0.000 A 
ENDBRANCH   3  12
BRANCH   3  19
ATOM     19  C   UNL     1       2.061   3.561  17.596  0.00  0.00    +0.000 C 
ATOM     20  C   UNL     1       1.168   3.217  18.793  0.00  0.00    +0.000 C 
ATOM     21  C   UNL     1       2.118   2.395  19.637  0.00  0.00    +0.000 C 
ATOM     22  N   UNL     1       2.840   1.534  18.697  0.00  0.00    +0.000 NA
ATOM     23  C   UNL     1       2.643   2.147  17.371  0.00  0.00    +0.000 C 
ATOM     24  H   UNL     1       2.372   0.594  18.690  0.00  0.00    +0.000 HD
ENDBRANCH   3  19
TORSDOF 3
ENDMDL
MODEL 2
REMARK VINA RESULT:      -7.3      0.219      1.031
REMARK  Name = 
REMARK  3 active torsions:
REMARK  status: ('A' for Active; 'I' for Inactive)
REMARK    1  A    between atoms: C_2  and  C_3
REMARK    2  A    between atoms: N_11  and  C_12
REMARK    3  A    between atoms: N_11  and  C_19
REMARK                            x       y       z     vdW  Elec       q    Type
REMARK                         _______ _______ _______ _____ _____    ______ ____
ROOT
ATOM      1  O   UNL     1       4.769   3.330  16.953  0.00  0.00    +0.000 OA
ATOM      2  C   UNL     1       4.408   4.361  17.502  0.00  0.00    +0.000 C 
ATOM      3  N   UNL     1       3.056   4.510  17.806  0.00  0.00    +0.000 N 
ENDROOT
BRANCH   2   4
ATOM      4  C   UNL     1       5.512   5.350  17.821  0.00  0.00    +0.000 A 
ATOM      5  C   UNL     1       6.304   5.259  18.993  0.00  0.00    +0.000 A 
ATOM      6  C   UNL     1       7.324   6.176  19.258  0.00  0.00    +0.000 A 
ATOM      7  C   UNL     1       7.588   7.205  18.364  0.00  0.00    +0.000 A 
ATOM      8 CL   UNL     1       8.865   8.357  18.709  0.00  0.00    +0.000 Cl
ATOM      9  C   UNL     1       6.842   7.316  17.193  0.00  0.00    +0.000 A 
ATOM     10  C   UNL     1       5.820   6.403  16.908  0.00  0.00    +0.000 A 
ATOM     11 CL   UNL     1       4.938   6.670  15.403  0.00  0.00    +0.000 Cl
ENDBRANCH   2   4
BRANCH   3  12
ATOM     12  C   UNL     1       2.583   5.701  18.456  0.00  0.00    +0.000 A 
ATOM     13  C   UNL     1       2.318   6.864  17.708  0.00  0.00    +0.000 A 
ATOM     14  C   UNL     1       1.959   8.054  18.345  0.00  0.00    +0.000 A 
ATOM     15  C   UNL     1       1.853   8.101  19.738  0.00  0.00    +0.000 A 
ATOM     16 CL   UNL     1       1.438   9.607  20.536  0.00  0.00    +0.000 Cl
ATOM     17  C   UNL     1       2.099   6.952  20.494  0.00  0.00    +0.000 A 
ATOM     18  C   UNL     1       2.461   5.757  19.859  0.00  0.00    +0.000 A 
ENDBRANCH   3  12
BRANCH   3  19
ATOM     19  C   UNL     1       2.136   3.398  17.446  0.00  0.00    +0.000 C 
ATOM     20  C   UNL     1       1.137   3.125  18.575  0.00  0.00    +0.000 C 
ATOM     21  C   UNL     1       2.011   2.385  19.563  0.00  0.00    +0.000 C 
ATOM     22  N   UNL     1       2.829   1.471  18.762  0.00  0.00    +0.000 NA
ATOM     23  C   UNL     1       2.753   1.982  17.382  0.00  0.00    +0.000 C 
ATOM     24  H   UNL     1       2.376   0.525  18.780  0.00  0.00    +0.000 HD
ENDBRANCH   3  19
TORSDOF 3
ENDMDL
MODEL 3
REMARK VINA RESULT:      -7.1      1.451      2.086
REMARK  Name = 
REMARK  3 active torsions:
REMARK  status: ('A' for Active; 'I' for Inactive)
REMARK    1  A    between atoms: C_2  and  C_3
REMARK    2  A    between atoms: N_11  and  C_12
REMARK    3  A    between atoms: N_11  and  C_19
REMARK                            x       y       z     vdW  Elec       q    Type
REMARK                         _______ _______ _______ _____ _____    ______ ____
ROOT
ATOM      1  O   UNL     1       5.107   2.514  19.388  0.00  0.00    +0.000 OA
ATOM      2  C   UNL     1       4.632   3.636  19.291  0.00  0.00    +0.000 C 
ATOM      3  N   UNL     1       3.321   3.839  19.720  0.00  0.00    +0.000 N 
ENDROOT
BRANCH   2   4
ATOM      4  C   UNL     1       5.566   4.694  18.739  0.00  0.00    +0.000 A 
ATOM      5  C   UNL     1       6.460   5.428  19.558  0.00  0.00    +0.000 A 
ATOM      6  C   UNL     1       7.321   6.389  19.023  0.00  0.00    +0.000 A 
ATOM      7  C   UNL     1       7.320   6.645  17.658  0.00  0.00    +0.000 A 
ATOM      8 CL   UNL     1       8.397   7.860  16.996  0.00  0.00    +0.000 Cl
ATOM      9  C   UNL     1       6.467   5.932  16.819  0.00  0.00    +0.000 A 
ATOM     10  C   UNL     1       5.602   4.961  17.337  0.00  0.00    +0.000 A 
ATOM     11 CL   UNL     1       4.559   4.147  16.169  0.00  0.00    +0.000 Cl
ENDBRANCH   2   4
BRANCH   3  12
ATOM     12  C   UNL     1       2.718   5.141  19.633  0.00  0.00    +0.000 A 
ATOM     13  C   UNL     1       2.534   5.758  18.381  0.00  0.00    +0.000 A 
ATOM     14  C   UNL     1       2.046   7.065  18.297  0.00  0.00    +0.000 A 
ATOM     15  C   UNL     1       1.730   7.773  19.459  0.00  0.00    +0.000 A 
ATOM     16 CL   UNL     1       1.154   9.426  19.349  0.00  0.00    +0.000 Cl
ATOM     17  C   UNL     1       1.894   7.170  20.709  0.00  0.00    +0.000 A 
ATOM     18  C   UNL     1       2.385   5.861  20.798  0.00  0.00    +0.000 A 
ENDBRANCH   3  12
BRANCH   3  19
ATOM     19  C   UNL     1       2.583   2.672  20.275  0.00  0.00    +0.000 C 
ATOM     20  C   UNL     1       2.011   1.802  19.151  0.00  0.00    +0.000 C 
ATOM     21  C   UNL     1       0.824   2.634  18.716  0.00  0.00    +0.000 C 
ATOM     22  N   UNL     1       0.215   3.132  19.952  0.00  0.00    +0.000 NA
ATOM     23  C   UNL     1       1.248   2.974  20.991  0.00  0.00    +0.000 C 
ATOM     24  H   UNL     1      -0.588   2.502  20.198  0.00  0.00    +0.000 HD
ENDBRANCH   3  19
TORSDOF 3
ENDMDL
MODEL 4
REMARK VINA RESULT:      -6.8      1.597      4.625
REMARK  Name = 
REMARK  3 active torsions:
REMARK  status: ('A' for Active; 'I' for Inactive)
REMARK    1  A    between atoms: C_2  and  C_3
REMARK    2  A    between atoms: N_11  and  C_12
REMARK    3  A    between atoms: N_11  and  C_19
REMARK                            x       y       z     vdW  Elec       q    Type
REMARK                         _______ _______ _______ _____ _____    ______ ____
ROOT
ATOM      1  O   UNL     1       1.067   4.347  17.739  0.00  0.00    +0.000 OA
ATOM      2  C   UNL     1       2.114   4.950  17.922  0.00  0.00    +0.000 C 
ATOM      3  N   UNL     1       3.312   4.299  17.632  0.00  0.00    +0.000 N 
ENDROOT
BRANCH   2   4
ATOM      4  C   UNL     1       1.968   6.375  18.416  0.00  0.00    +0.000 A 
ATOM      5  C   UNL     1       1.888   7.485  17.538  0.00  0.00    +0.000 A 
ATOM      6  C   UNL     1       1.741   8.788  18.017  0.00  0.00    +0.000 A 
ATOM      7  C   UNL     1       1.664   9.025  19.383  0.00  0.00    +0.000 A 
ATOM      8 CL   UNL     1       1.488  10.666  19.977  0.00  0.00    +0.000 Cl
ATOM      9  C   UNL     1       1.722   7.958  20.277  0.00  0.00    +0.000 A 
ATOM     10  C   UNL     1       1.864   6.645  19.813  0.00  0.00    +0.000 A 
ATOM     11 CL   UNL     1       1.946   5.390  21.052  0.00  0.00    +0.000 Cl
ENDBRANCH   2   4
BRANCH   3  12
ATOM     12  C   UNL     1       4.570   4.965  17.825  0.00  0.00    +0.000 A 
ATOM     13  C   UNL     1       5.239   4.883  19.061  0.00  0.00    +0.000 A 
ATOM     14  C   UNL     1       6.408   5.613  19.288  0.00  0.00    +0.000 A 
ATOM     15  C   UNL     1       6.930   6.434  18.285  0.00  0.00    +0.000 A 
ATOM     16 CL   UNL     1       8.376   7.378  18.588  0.00  0.00    +0.000 Cl
ATOM     17  C   UNL     1       6.286   6.516  17.047  0.00  0.00    +0.000 A 
ATOM     18  C   UNL     1       5.113   5.787  16.816  0.00  0.00    +0.000 A 
ENDBRANCH   3  12
BRANCH   3  19
ATOM     19  C   UNL     1       3.237   2.906  17.113  0.00  0.00    +0.000 C 
ATOM     20  C   UNL     1       2.202   2.086  17.890  0.00  0.00    +0.000 C 
ATOM     21  C   UNL     1       2.955   1.809  19.173  0.00  0.00    +0.000 C 
ATOM     22  N   UNL     1       4.325   1.490  18.767  0.00  0.00    +0.000 NA
ATOM     23  C   UNL     1       4.456   1.997  17.389  0.00  0.00    +0.000 C 
ATOM     24  H   UNL     1       4.422   0.445  18.735  0.00  0.00    +0.000 HD
ENDBRANCH   3  19
TORSDOF 3
ENDMDL
MODEL 5
REMARK VINA RESULT:      -6.6      1.401      1.811
REMARK  Name = 
REMARK  3 active torsions:
REMARK  status: ('A' for Active; 'I' for Inactive)
REMARK    1  A    between atoms: C_2  and  C_3
REMARK    2  A    between atoms: N_11  and  C_12
REMARK    3  A    between atoms: N_11  and  C_19
REMARK                            x       y       z     vdW  Elec       q    Type
REMARK                         _______ _______ _______ _____ _____    ______ ____
ROOT
ATOM      1  O   UNL     1       5.080   2.614  19.316  0.00  0.00    +0.000 OA
ATOM      2  C   UNL     1       4.649   3.757  19.286  0.00  0.00    +0.000 C 
ATOM      3  N   UNL     1       3.369   3.996  19.782  0.00  0.00    +0.000 N 
ENDROOT
BRANCH   2   4
ATOM      4  C   UNL     1       5.603   4.799  18.734  0.00  0.00    +0.000 A 
ATOM      5  C   UNL     1       6.549   5.474  19.544  0.00  0.00    +0.000 A 
ATOM      6  C   UNL     1       7.426   6.421  19.010  0.00  0.00    +0.000 A 
ATOM      7  C   UNL     1       7.390   6.719  17.654  0.00  0.00    +0.000 A 
ATOM      8 CL   UNL     1       8.488   7.915  16.992  0.00  0.00    +0.000 Cl
ATOM      9  C   UNL     1       6.485   6.063  16.823  0.00  0.00    +0.000 A 
ATOM     10  C   UNL     1       5.603   5.107  17.341  0.00  0.00    +0.000 A 
ATOM     11 CL   UNL     1       4.493   4.368  16.184  0.00  0.00    +0.000 Cl
ENDBRANCH   2   4
BRANCH   3  12
ATOM     12  C   UNL     1       2.819   5.323  19.775  0.00  0.00    +0.000 A 
ATOM     13  C   UNL     1       2.325   5.897  20.962  0.00  0.00    +0.000 A 
ATOM     14  C   UNL     1       1.695   7.144  20.941  0.00  0.00    +0.000 A 
ATOM     15  C   UNL     1       1.552   7.839  19.738  0.00  0.00    +0.000 A 
ATOM     16 CL   UNL     1       0.727   9.386  19.711  0.00  0.00    +0.000 Cl
ATOM     17  C   UNL     1       2.049   7.290  18.553  0.00  0.00    +0.000 A 
ATOM     18  C   UNL     1       2.680   6.039  18.568  0.00  0.00    +0.000 A 
ENDBRANCH   3  12
BRANCH   3  19
ATOM     19  C   UNL     1       2.607   2.837  20.323  0.00  0.00    +0.000 C 
ATOM     20  C   UNL     1       2.148   1.908  19.194  0.00  0.00    +0.000 C 
ATOM     21  C   UNL     1       0.988   2.696  18.624  0.00  0.00    +0.000 C 
ATOM     22  N   UNL     1       0.267   3.233  19.780  0.00  0.00    +0.000 NA
ATOM     23  C   UNL     1       1.210   3.140  20.910  0.00  0.00    +0.000 C 
ATOM     24  H   UNL     1      -0.543   2.597  19.985  0.00  0.00    +0.000 HD
ENDBRANCH   3  19
TORSDOF 3
ENDMDL
MODEL 6
REMARK VINA RESULT:      -6.6      1.974      2.863
REMARK  Name = 
REMARK  3 active torsions:
REMARK  status: ('A' for Active; 'I' for Inactive)
REMARK    1  A    between atoms: C_2  and  C_3
REMARK    2  A    between atoms: N_11  and  C_12
REMARK    3  A    between atoms: N_11  and  C_19
REMARK                            x       y       z     vdW  Elec       q    Type
REMARK                         _______ _______ _______ _____ _____    ______ ____
ROOT
ATOM      1  O   UNL     1       4.756   2.440  19.286  0.00  0.00    +0.000 OA
ATOM      2  C   UNL     1       4.468   3.557  18.883  0.00  0.00    +0.000 C 
ATOM      3  N   UNL     1       3.474   4.267  19.553  0.00  0.00    +0.000 N 
ENDROOT
BRANCH   2   4
ATOM      4  C   UNL     1       5.277   4.052  17.700  0.00  0.00    +0.000 A 
ATOM      5  C   UNL     1       4.976   3.692  16.363  0.00  0.00    +0.000 A 
ATOM      6  C   UNL     1       5.729   4.171  15.289  0.00  0.00    +0.000 A 
ATOM      7  C   UNL     1       6.800   5.026  15.514  0.00  0.00    +0.000 A 
ATOM      8 CL   UNL     1       7.746   5.617  14.160  0.00  0.00    +0.000 Cl
ATOM      9  C   UNL     1       7.116   5.416  16.813  0.00  0.00    +0.000 A 
ATOM     10  C   UNL     1       6.369   4.949  17.901  0.00  0.00    +0.000 A 
ATOM     11 CL   UNL     1       6.889   5.502  19.494  0.00  0.00    +0.000 Cl
ENDBRANCH   2   4
BRANCH   3  12
ATOM     12  C   UNL     1       3.102   5.586  19.122  0.00  0.00    +0.000 A 
ATOM     13  C   UNL     1       2.659   6.542  20.056  0.00  0.00    +0.000 A 
ATOM     14  C   UNL     1       2.197   7.791  19.631  0.00  0.00    +0.000 A 
ATOM     15  C   UNL     1       2.176   8.106  18.270  0.00  0.00    +0.000 A 
ATOM     16 CL   UNL     1       1.560   9.660  17.739  0.00  0.00    +0.000 Cl
ATOM     17  C   UNL     1       2.625   7.173  17.331  0.00  0.00    +0.000 A 
ATOM     18  C   UNL     1       3.087   5.920  17.752  0.00  0.00    +0.000 A 
ENDBRANCH   3  12
BRANCH   3  19
ATOM     19  C   UNL     1       2.827   3.616  20.725  0.00  0.00    +0.000 C 
ATOM     20  C   UNL     1       2.373   2.194  20.380  0.00  0.00    +0.000 C 
ATOM     21  C   UNL     1       1.130   2.476  19.563  0.00  0.00    +0.000 C 
ATOM     22  N   UNL     1       0.438   3.564  20.257  0.00  0.00    +0.000 NA
ATOM     23  C   UNL     1       1.446   4.167  21.148  0.00  0.00    +0.000 C 
ATOM     24  H   UNL     1      -0.313   3.144  20.858  0.00  0.00    +0.000 HD
ENDBRANCH   3  19
TORSDOF 3
ENDMDL
MODEL 7
REMARK VINA RESULT:      -6.5      2.191      5.070
REMARK  Name = 
REMARK  3 active torsions:
REMARK  status: ('A' for Active; 'I' for Inactive)
REMARK    1  A    between atoms: C_2  and  C_3
REMARK    2  A    between atoms: N_11  and  C_12
REMARK    3  A    between atoms: N_11  and  C_19
REMARK                            x       y       z     vdW  Elec       q    Type
REMARK                         _______ _______ _______ _____ _____    ______ ____
ROOT
ATOM      1  O   UNL     1       1.223   5.496  20.912  0.00  0.00    +0.000 OA
ATOM      2  C   UNL     1       2.091   5.694  20.074  0.00  0.00    +0.000 C 
ATOM      3  N   UNL     1       2.945   4.643  19.744  0.00  0.00    +0.000 N 
ENDROOT
BRANCH   2   4
ATOM      4  C   UNL     1       2.100   7.081  19.461  0.00  0.00    +0.000 A 
ATOM      5  C   UNL     1       2.530   7.327  18.134  0.00  0.00    +0.000 A 
ATOM      6  C   UNL     1       2.518   8.612  17.588  0.00  0.00    +0.000 A 
ATOM      7  C   UNL     1       2.072   9.688  18.344  0.00  0.00    +0.000 A 
ATOM      8 CL   UNL     1       2.068  11.300  17.654  0.00  0.00    +0.000 Cl
ATOM      9  C   UNL     1       1.626   9.482  19.647  0.00  0.00    +0.000 A 
ATOM     10  C   UNL     1       1.626   8.200  20.209  0.00  0.00    +0.000 A 
ATOM     11 CL   UNL     1       1.056   8.082  21.875  0.00  0.00    +0.000 Cl
ENDBRANCH   2   4
BRANCH   3  12
ATOM     12  C   UNL     1       3.977   4.824  18.761  0.00  0.00    +0.000 A 
ATOM     13  C   UNL     1       3.735   4.520  17.408  0.00  0.00    +0.000 A 
ATOM     14  C   UNL     1       4.765   4.593  16.467  0.00  0.00    +0.000 A 
ATOM     15  C   UNL     1       6.050   4.975  16.860  0.00  0.00    +0.000 A 
ATOM     16 CL   UNL     1       7.348   5.029  15.681  0.00  0.00    +0.000 Cl
ATOM     17  C   UNL     1       6.305   5.294  18.196  0.00  0.00    +0.000 A 
ATOM     18  C   UNL     1       5.276   5.220  19.144  0.00  0.00    +0.000 A 
ENDBRANCH   3  12
BRANCH   3  19
ATOM     19  C   UNL     1       2.741   3.340  20.433  0.00  0.00    +0.000 C 
ATOM     20  C   UNL     1       2.647   2.193  19.421  0.00  0.00    +0.000 C 
ATOM     21  C   UNL     1       1.244   2.390  18.889  0.00  0.00    +0.000 C 
ATOM     22  N   UNL     1       0.419   2.713  20.056  0.00  0.00    +0.000 NA
ATOM     23  C   UNL     1       1.368   3.121  21.108  0.00  0.00    +0.000 C 
ATOM     24  H   UNL     1      -0.055   1.832  20.375  0.00  0.00    +0.000 HD
ENDBRANCH   3  19
TORSDOF 3
ENDMDL
MODEL 8
REMARK VINA RESULT:      -6.5      2.259      5.501
REMARK  Name = 
REMARK  3 active torsions:
REMARK  status: ('A' for Active; 'I' for Inactive)
REMARK    1  A    between atoms: C_2  and  C_3
REMARK    2  A    between atoms: N_11  and  C_12
REMARK    3  A    between atoms: N_11  and  C_19
REMARK                            x       y       z     vdW  Elec       q    Type
REMARK                         _______ _______ _______ _____ _____    ______ ____
ROOT
ATOM      1  O   UNL     1       3.984   3.827  16.776  0.00  0.00    +0.000 OA
ATOM      2  C   UNL     1       4.567   4.776  17.279  0.00  0.00    +0.000 C 
ATOM      3  N   UNL     1       5.914   4.964  16.972  0.00  0.00    +0.000 N 
ENDROOT
BRANCH   2   4
ATOM      4  C   UNL     1       3.719   5.668  18.163  0.00  0.00    +0.000 A 
ATOM      5  C   UNL     1       3.323   6.973  17.776  0.00  0.00    +0.000 A 
ATOM      6  C   UNL     1       2.530   7.772  18.604  0.00  0.00    +0.000 A 
ATOM      7  C   UNL     1       2.103   7.294  19.835  0.00  0.00    +0.000 A 
ATOM      8 CL   UNL     1       1.115   8.306  20.872  0.00  0.00    +0.000 Cl
ATOM      9  C   UNL     1       2.458   6.010  20.242  0.00  0.00    +0.000 A 
ATOM     10  C   UNL     1       3.248   5.194  19.423  0.00  0.00    +0.000 A 
ATOM     11 CL   UNL     1       3.643   3.599  20.067  0.00  0.00    +0.000 Cl
ENDBRANCH   2   4
BRANCH   3  12
ATOM     12  C   UNL     1       6.643   6.068  17.532  0.00  0.00    +0.000 A 
ATOM     13  C   UNL     1       6.537   7.353  16.967  0.00  0.00    +0.000 A 
ATOM     14  C   UNL     1       7.323   8.406  17.442  0.00  0.00    +0.000 A 
ATOM     15  C   UNL     1       8.222   8.195  18.491  0.00  0.00    +0.000 A 
ATOM     16 CL   UNL     1       9.233   9.511  19.058  0.00  0.00    +0.000 Cl
ATOM     17  C   UNL     1       8.329   6.929  19.072  0.00  0.00    +0.000 A 
ATOM     18  C   UNL     1       7.545   5.869  18.598  0.00  0.00    +0.000 A 
ENDBRANCH   3  12
BRANCH   3  19
ATOM     19  C   UNL     1       6.556   3.994  16.043  0.00  0.00    +0.000 C 
ATOM     20  C   UNL     1       7.407   4.720  14.996  0.00  0.00    +0.000 C 
ATOM     21  C   UNL     1       6.336   5.247  14.066  0.00  0.00    +0.000 C 
ATOM     22  N   UNL     1       5.361   4.163  13.929  0.00  0.00    +0.000 NA
ATOM     23  C   UNL     1       5.621   3.254  15.060  0.00  0.00    +0.000 C 
ATOM     24  H   UNL     1       5.573   3.643  13.043  0.00  0.00    +0.000 HD
ENDBRANCH   3  19
TORSDOF 3
ENDMDL
MODEL 9
REMARK VINA RESULT:      -6.5      2.000      3.012
REMARK  Name = 
REMARK  3 active torsions:
REMARK  status: ('A' for Active; 'I' for Inactive)
REMARK    1  A    between atoms: C_2  and  C_3
REMARK    2  A    between atoms: N_11  and  C_12
REMARK    3  A    between atoms: N_11  and  C_19
REMARK                            x       y       z     vdW  Elec       q    Type
REMARK                         _______ _______ _______ _____ _____    ______ ____
ROOT
ATOM      1  O   UNL     1       4.816   2.495  19.352  0.00  0.00    +0.000 OA
ATOM      2  C   UNL     1       4.485   3.587  18.915  0.00  0.00    +0.000 C 
ATOM      3  N   UNL     1       3.472   4.283  19.572  0.00  0.00    +0.000 N 
ENDROOT
BRANCH   2   4
ATOM      4  C   UNL     1       5.266   4.070  17.709  0.00  0.00    +0.000 A 
ATOM      5  C   UNL     1       4.926   3.707  16.382  0.00  0.00    +0.000 A 
ATOM      6  C   UNL     1       5.654   4.175  15.286  0.00  0.00    +0.000 A 
ATOM      7  C   UNL     1       6.737   5.023  15.478  0.00  0.00    +0.000 A 
ATOM      8 CL   UNL     1       7.651   5.600  14.097  0.00  0.00    +0.000 Cl
ATOM      9  C   UNL     1       7.091   5.416  16.767  0.00  0.00    +0.000 A 
ATOM     10  C   UNL     1       6.370   4.960  17.876  0.00  0.00    +0.000 A 
ATOM     11 CL   UNL     1       6.937   5.516  19.452  0.00  0.00    +0.000 Cl
ENDBRANCH   2   4
BRANCH   3  12
ATOM     12  C   UNL     1       3.050   5.574  19.101  0.00  0.00    +0.000 A 
ATOM     13  C   UNL     1       3.307   5.967  17.774  0.00  0.00    +0.000 A 
ATOM     14  C   UNL     1       2.994   7.258  17.341  0.00  0.00    +0.000 A 
ATOM     15  C   UNL     1       2.416   8.175  18.224  0.00  0.00    +0.000 A 
ATOM     16 CL   UNL     1       2.060   9.805  17.686  0.00  0.00    +0.000 Cl
ATOM     17  C   UNL     1       2.143   7.796  19.541  0.00  0.00    +0.000 A 
ATOM     18  C   UNL     1       2.457   6.503  19.980  0.00  0.00    +0.000 A 
ENDBRANCH   3  12
BRANCH   3  19
ATOM     19  C   UNL     1       2.858   3.650  20.770  0.00  0.00    +0.000 C 
ATOM     20  C   UNL     1       2.485   2.191  20.488  0.00  0.00    +0.000 C 
ATOM     21  C   UNL     1       1.231   2.368  19.659  0.00  0.00    +0.000 C 
ATOM     22  N   UNL     1       0.478   3.446  20.304  0.00  0.00    +0.000 NA
ATOM     23  C   UNL     1       1.448   4.142  21.168  0.00  0.00    +0.000 C 
ATOM     24  H   UNL     1      -0.250   3.011  20.923  0.00  0.00    +0.000 HD
ENDBRANCH   3  19
TORSDOF 3
ENDMDL
