MODEL 1
REMARK VINA RESULT:      -8.3      0.000      0.000
REMARK  Name = 
REMARK  10 active torsions:
REMARK  status: ('A' for Active; 'I' for Inactive)
REMARK    1  A    between atoms: C_1  and  C_2
REMARK    2  A    between atoms: C_6  and  C_7
REMARK    3  A    between atoms: C_8  and  N_9
REMARK    4  A    between atoms: C_10  and  C_12
REMARK    5  A    between atoms: C_12  and  N_13
REMARK    6  A    between atoms: N_13  and  C_14
REMARK    7  A    between atoms: C_15  and  C_17
REMARK    8  A    between atoms: C_17  and  C_18
REMARK    9  A    between atoms: C_18  and  C_19
REMARK   10  A    between atoms: C_19  and  C_21
REMARK                            x       y       z     vdW  Elec       q    Type
REMARK                         _______ _______ _______ _____ _____    ______ ____
ROOT
ATOM      1  N   UNL     1       7.372   5.762  18.140  0.00  0.00    +0.000 N 
ATOM      2  C   UNL     1       7.810   5.306  19.450  0.00  0.00    +0.000 C 
ATOM      3  C   UNL     1       7.529   7.072  17.706  0.00  0.00    +0.000 C 
ATOM      4  O   UNL     1       7.128   7.435  16.599  0.00  0.00    +0.000 OA
ENDROOT
BRANCH   1   5
ATOM      5  C   UNL     1       6.579   4.818  17.339  0.00  0.00    +0.000 C 
BRANCH   5   7
ATOM      6  N   UNL     1       4.727   4.037  18.771  0.00  0.00    +0.000 N 
ATOM      7  C   UNL     1       5.068   4.778  17.649  0.00  0.00    +0.000 C 
ATOM      8  O   UNL     1       4.264   5.232  16.836  0.00  0.00    +0.000 OA
ATOM      9  H   UNL     1       5.412   3.324  18.996  0.00  0.00    +0.000 HD
BRANCH   6  17
ATOM     10  C   UNL     1       3.003   6.181  20.001  0.00  0.00    +0.000 C 
ATOM     11  C   UNL     1       2.556   4.765  19.740  0.00  0.00    +0.000 A 
ATOM     12  C   UNL     1       1.248   4.433  20.134  0.00  0.00    +0.000 A 
ATOM     13  C   UNL     1       0.761   3.132  19.986  0.00  0.00    +0.000 A 
ATOM     14  C   UNL     1       1.580   2.156  19.433  0.00  0.00    +0.000 A 
ATOM     15  C   UNL     1       2.886   2.459  19.015  0.00  0.00    +0.000 A 
ATOM     16  C   UNL     1       3.685   1.368  18.351  0.00  0.00    +0.000 C 
ATOM     17  C   UNL     1       3.386   3.777  19.159  0.00  0.00    +0.000 A 
ENDBRANCH   6  17
ENDBRANCH   5   7
ENDBRANCH   1   5
BRANCH   3  18
ATOM     18  C   UNL     1       8.299   8.018  18.617  0.00  0.00    +0.000 C 
BRANCH  18  19
ATOM     19  C   UNL     1       8.321   9.446  18.087  0.00  0.00    +0.000 C 
BRANCH  19  20
ATOM     20  C   UNL     1       9.190  10.343  18.960  0.00  0.00    +0.000 C 
ATOM     21  O   UNL     1       9.313  10.153  20.169  0.00  0.00    +0.000 OA
BRANCH  20  22
ATOM     22  C   UNL     1       9.906  11.486  18.316  0.00  0.00    +0.000 A 
ATOM     23  C   UNL     1      11.302  11.535  18.240  0.00  0.00    +0.000 A 
ATOM     24  C   UNL     1      11.937  12.628  17.644  0.00  0.00    +0.000 A 
ATOM     25  C   UNL     1      11.181  13.674  17.116  0.00  0.00    +0.000 A 
ATOM     26  C   UNL     1       9.789  13.629  17.180  0.00  0.00    +0.000 A 
ATOM     27  C   UNL     1       9.154  12.539  17.776  0.00  0.00    +0.000 A 
ENDBRANCH  20  22
ENDBRANCH  19  20
ENDBRANCH  18  19
ENDBRANCH   3  18
TORSDOF 7
ENDMDL
MODEL 2
REMARK VINA RESULT:      -8.2      0.340      1.963
REMARK  Name = 
REMARK  10 active torsions:
REMARK  status: ('A' for Active; 'I' for Inactive)
REMARK    1  A    between atoms: C_1  and  C_2
REMARK    2  A    between atoms: C_6  and  C_7
REMARK    3  A    between atoms: C_8  and  N_9
REMARK    4  A    between atoms: C_10  and  C_12
REMARK    5  A    between atoms: C_12  and  N_13
REMARK    6  A    between atoms: N_13  and  C_14
REMARK    7  A    between atoms: C_15  and  C_17
REMARK    8  A    between atoms: C_17  and  C_18
REMARK    9  A    between atoms: C_18  and  C_19
REMARK   10  A    between atoms: C_19  and  C_21
REMARK                            x       y       z     vdW  Elec       q    Type
REMARK                         _______ _______ _______ _____ _____    ______ ____
ROOT
ATOM      1  N   UNL     1       7.503   5.743  18.218  0.00  0.00    +0.000 N 
ATOM      2  C   UNL     1       7.865   5.364  19.575  0.00  0.00    +0.000 C 
ATOM      3  C   UNL     1       7.635   7.038  17.735  0.00  0.00    +0.000 C 
ATOM      4  O   UNL     1       7.299   7.334  16.587  0.00  0.00    +0.000 OA
ENDROOT
BRANCH   1   5
ATOM      5  C   UNL     1       6.808   4.730  17.409  0.00  0.00    +0.000 C 
BRANCH   5   7
ATOM      6  N   UNL     1       4.919   3.949  18.792  0.00  0.00    +0.000 N 
ATOM      7  C   UNL     1       5.286   4.619  17.634  0.00  0.00    +0.000 C 
ATOM      8  O   UNL     1       4.508   4.955  16.742  0.00  0.00    +0.000 OA
ATOM      9  H   UNL     1       5.630   3.301  19.114  0.00  0.00    +0.000 HD
BRANCH   6  17
ATOM     10  C   UNL     1       3.805   1.179  18.386  0.00  0.00    +0.000 C 
ATOM     11  C   UNL     1       3.027   2.344  18.941  0.00  0.00    +0.000 A 
ATOM     12  C   UNL     1       1.678   2.108  19.259  0.00  0.00    +0.000 A 
ATOM     13  C   UNL     1       0.858   3.138  19.726  0.00  0.00    +0.000 A 
ATOM     14  C   UNL     1       1.388   4.410  19.888  0.00  0.00    +0.000 A 
ATOM     15  C   UNL     1       2.736   4.676  19.595  0.00  0.00    +0.000 A 
ATOM     16  C   UNL     1       3.259   6.061  19.873  0.00  0.00    +0.000 C 
ATOM     17  C   UNL     1       3.574   3.636  19.124  0.00  0.00    +0.000 A 
ENDBRANCH   6  17
ENDBRANCH   5   7
ENDBRANCH   1   5
BRANCH   3  18
ATOM     18  C   UNL     1       8.298   8.056  18.652  0.00  0.00    +0.000 C 
BRANCH  18  19
ATOM     19  C   UNL     1       8.395   9.437  18.014  0.00  0.00    +0.000 C 
BRANCH  19  20
ATOM     20  C   UNL     1       9.107  10.419  18.936  0.00  0.00    +0.000 C 
ATOM     21  O   UNL     1       9.220  10.214  20.143  0.00  0.00    +0.000 OA
BRANCH  20  22
ATOM     22  C   UNL     1       9.677  11.667  18.342  0.00  0.00    +0.000 A 
ATOM     23  C   UNL     1       8.966  12.871  18.330  0.00  0.00    +0.000 A 
ATOM     24  C   UNL     1       9.526  14.014  17.752  0.00  0.00    +0.000 A 
ATOM     25  C   UNL     1      10.800  13.960  17.187  0.00  0.00    +0.000 A 
ATOM     26  C   UNL     1      11.518  12.765  17.202  0.00  0.00    +0.000 A 
ATOM     27  C   UNL     1      10.961  11.624  17.779  0.00  0.00    +0.000 A 
ENDBRANCH  20  22
ENDBRANCH  19  20
ENDBRANCH  18  19
ENDBRANCH   3  18
TORSDOF 7
ENDMDL
MODEL 3
REMARK VINA RESULT:      -8.2      1.563      2.441
REMARK  Name = 
REMARK  10 active torsions:
REMARK  status: ('A' for Active; 'I' for Inactive)
REMARK    1  A    between atoms: C_1  and  C_2
REMARK    2  A    between atoms: C_6  and  C_7
REMARK    3  A    between atoms: C_8  and  N_9
REMARK    4  A    between atoms: C_10  and  C_12
REMARK    5  A    between atoms: C_12  and  N_13
REMARK    6  A    between atoms: N_13  and  C_14
REMARK    7  A    between atoms: C_15  and  C_17
REMARK    8  A    between atoms: C_17  and  C_18
REMARK    9  A    between atoms: C_18  and  C_19
REMARK   10  A    between atoms: C_19  and  C_21
REMARK                            x       y       z     vdW  Elec       q    Type
REMARK                         _______ _______ _______ _____ _____    ______ ____
ROOT
ATOM      1  N   UNL     1       6.861   5.682  16.966  0.00  0.00    +0.000 N 
ATOM      2  C   UNL     1       6.663   6.080  15.581  0.00  0.00    +0.000 C 
ATOM      3  C   UNL     1       7.434   6.516  17.917  0.00  0.00    +0.000 C 
ATOM      4  O   UNL     1       7.609   6.144  19.078  0.00  0.00    +0.000 OA
ENDROOT
BRANCH   1   5
ATOM      5  C   UNL     1       6.595   4.274  17.298  0.00  0.00    +0.000 C 
BRANCH   5   7
ATOM      6  N   UNL     1       4.900   4.341  19.091  0.00  0.00    +0.000 N 
ATOM      7  C   UNL     1       5.165   3.957  17.785  0.00  0.00    +0.000 C 
ATOM      8  O   UNL     1       4.422   3.262  17.093  0.00  0.00    +0.000 OA
ATOM      9  H   UNL     1       5.736   4.401  19.661  0.00  0.00    +0.000 HD
BRANCH   6  17
ATOM     10  C   UNL     1       4.539   1.741  20.572  0.00  0.00    +0.000 C 
ATOM     11  C   UNL     1       3.494   2.822  20.468  0.00  0.00    +0.000 A 
ATOM     12  C   UNL     1       2.259   2.567  21.088  0.00  0.00    +0.000 A 
ATOM     13  C   UNL     1       1.207   3.482  21.000  0.00  0.00    +0.000 A 
ATOM     14  C   UNL     1       1.390   4.665  20.297  0.00  0.00    +0.000 A 
ATOM     15  C   UNL     1       2.617   4.958  19.679  0.00  0.00    +0.000 A 
ATOM     16  C   UNL     1       2.766   6.296  19.004  0.00  0.00    +0.000 C 
ATOM     17  C   UNL     1       3.689   4.036  19.767  0.00  0.00    +0.000 A 
ENDBRANCH   6  17
ENDBRANCH   5   7
ENDBRANCH   1   5
BRANCH   3  18
ATOM     18  C   UNL     1       7.751   7.942  17.487  0.00  0.00    +0.000 C 
BRANCH  18  19
ATOM     19  C   UNL     1       8.605   8.681  18.510  0.00  0.00    +0.000 C 
BRANCH  19  20
ATOM     20  C   UNL     1       8.690  10.167  18.185  0.00  0.00    +0.000 C 
ATOM     21  O   UNL     1       7.863  10.724  17.466  0.00  0.00    +0.000 OA
BRANCH  20  22
ATOM     22  C   UNL     1       9.821  10.958  18.760  0.00  0.00    +0.000 A 
ATOM     23  C   UNL     1      10.896  11.387  17.976  0.00  0.00    +0.000 A 
ATOM     24  C   UNL     1      11.943  12.112  18.553  0.00  0.00    +0.000 A 
ATOM     25  C   UNL     1      11.918  12.415  19.913  0.00  0.00    +0.000 A 
ATOM     26  C   UNL     1      10.846  11.997  20.700  0.00  0.00    +0.000 A 
ATOM     27  C   UNL     1       9.800  11.273  20.126  0.00  0.00    +0.000 A 
ENDBRANCH  20  22
ENDBRANCH  19  20
ENDBRANCH  18  19
ENDBRANCH   3  18
TORSDOF 7
ENDMDL
MODEL 4
REMARK VINA RESULT:      -7.9      1.161      2.170
REMARK  Name = 
REMARK  10 active torsions:
REMARK  status: ('A' for Active; 'I' for Inactive)
REMARK    1  A    between atoms: C_1  and  C_2
REMARK    2  A    between atoms: C_6  and  C_7
REMARK    3  A    between atoms: C_8  and  N_9
REMARK    4  A    between atoms: C_10  and  C_12
REMARK    5  A    between atoms: C_12  and  N_13
REMARK    6  A    between atoms: N_13  and  C_14
REMARK    7  A    between atoms: C_15  and  C_17
REMARK    8  A    between atoms: C_17  and  C_18
REMARK    9  A    between atoms: C_18  and  C_19
REMARK   10  A    between atoms: C_19  and  C_21
REMARK                            x       y       z     vdW  Elec       q    Type
REMARK                         _______ _______ _______ _____ _____    ______ ____
ROOT
ATOM      1  N   UNL     1       6.501   6.434  17.325  0.00  0.00    +0.000 N 
ATOM      2  C   UNL     1       5.554   7.016  16.386  0.00  0.00    +0.000 C 
ATOM      3  C   UNL     1       7.485   7.178  17.962  0.00  0.00    +0.000 C 
ATOM      4  O   UNL     1       8.288   6.654  18.736  0.00  0.00    +0.000 OA
ENDROOT
BRANCH   1   5
ATOM      5  C   UNL     1       6.501   4.969  17.447  0.00  0.00    +0.000 C 
BRANCH   5   7
ATOM      6  N   UNL     1       4.207   4.323  18.090  0.00  0.00    +0.000 N 
ATOM      7  C   UNL     1       5.532   4.383  18.496  0.00  0.00    +0.000 C 
ATOM      8  O   UNL     1       5.926   4.169  19.642  0.00  0.00    +0.000 OA
ATOM      9  H   UNL     1       3.984   5.002  17.370  0.00  0.00    +0.000 HD
BRANCH   6  17
ATOM     10  C   UNL     1       3.430   1.429  18.402  0.00  0.00    +0.000 C 
ATOM     11  C   UNL     1       2.757   2.578  19.108  0.00  0.00    +0.000 A 
ATOM     12  C   UNL     1       1.673   2.259  19.943  0.00  0.00    +0.000 A 
ATOM     13  C   UNL     1       0.950   3.259  20.597  0.00  0.00    +0.000 A 
ATOM     14  C   UNL     1       1.315   4.587  20.424  0.00  0.00    +0.000 A 
ATOM     15  C   UNL     1       2.402   4.939  19.609  0.00  0.00    +0.000 A 
ATOM     16  C   UNL     1       2.788   6.394  19.535  0.00  0.00    +0.000 C 
ATOM     17  C   UNL     1       3.143   3.930  18.945  0.00  0.00    +0.000 A 
ENDBRANCH   6  17
ENDBRANCH   5   7
ENDBRANCH   1   5
BRANCH   3  18
ATOM     18  C   UNL     1       7.473   8.684  17.736  0.00  0.00    +0.000 C 
BRANCH  18  19
ATOM     19  C   UNL     1       8.875   9.256  17.563  0.00  0.00    +0.000 C 
BRANCH  19  20
ATOM     20  C   UNL     1       9.176  10.302  18.629  0.00  0.00    +0.000 C 
ATOM     21  O   UNL     1       8.960  10.096  19.822  0.00  0.00    +0.000 OA
BRANCH  20  22
ATOM     22  C   UNL     1       9.747  11.614  18.198  0.00  0.00    +0.000 A 
ATOM     23  C   UNL     1      11.020  11.714  17.626  0.00  0.00    +0.000 A 
ATOM     24  C   UNL     1      11.528  12.960  17.249  0.00  0.00    +0.000 A 
ATOM     25  C   UNL     1      10.765  14.112  17.436  0.00  0.00    +0.000 A 
ATOM     26  C   UNL     1       9.492  14.020  17.998  0.00  0.00    +0.000 A 
ATOM     27  C   UNL     1       8.984  12.777  18.375  0.00  0.00    +0.000 A 
ENDBRANCH  20  22
ENDBRANCH  19  20
ENDBRANCH  18  19
ENDBRANCH   3  18
TORSDOF 7
ENDMDL
MODEL 5
REMARK VINA RESULT:      -7.6      6.284      9.687
REMARK  Name = 
REMARK  10 active torsions:
REMARK  status: ('A' for Active; 'I' for Inactive)
REMARK    1  A    between atoms: C_1  and  C_2
REMARK    2  A    between atoms: C_6  and  C_7
REMARK    3  A    between atoms: C_8  and  N_9
REMARK    4  A    between atoms: C_10  and  C_12
REMARK    5  A    between atoms: C_12  and  N_13
REMARK    6  A    between atoms: N_13  and  C_14
REMARK    7  A    between atoms: C_15  and  C_17
REMARK    8  A    between atoms: C_17  and  C_18
REMARK    9  A    between atoms: C_18  and  C_19
REMARK   10  A    between atoms: C_19  and  C_21
REMARK                            x       y       z     vdW  Elec       q    Type
REMARK                         _______ _______ _______ _____ _____    ______ ____
ROOT
ATOM      1  N   UNL     1       1.073   9.867  19.511  0.00  0.00    +0.000 N 
ATOM      2  C   UNL     1       0.780   9.009  20.649  0.00  0.00    +0.000 C 
ATOM      3  C   UNL     1       1.703   9.408  18.362  0.00  0.00    +0.000 C 
ATOM      4  O   UNL     1       1.959  10.163  17.422  0.00  0.00    +0.000 OA
ENDROOT
BRANCH   1   5
ATOM      5  C   UNL     1       0.840  11.308  19.688  0.00  0.00    +0.000 C 
BRANCH   5   7
ATOM      6  N   UNL     1      -1.575  11.085  19.228  0.00  0.00    +0.000 N 
ATOM      7  C   UNL     1      -0.444  11.865  19.037  0.00  0.00    +0.000 C 
ATOM      8  O   UNL     1      -0.376  12.828  18.275  0.00  0.00    +0.000 OA
ATOM      9  H   UNL     1      -1.357  10.110  19.404  0.00  0.00    +0.000 HD
BRANCH   6  17
ATOM     10  C   UNL     1      -3.654  12.790  20.588  0.00  0.00    +0.000 C 
ATOM     11  C   UNL     1      -3.821  12.153  19.233  0.00  0.00    +0.000 A 
ATOM     12  C   UNL     1      -5.052  12.356  18.586  0.00  0.00    +0.000 A 
ATOM     13  C   UNL     1      -5.324  11.759  17.352  0.00  0.00    +0.000 A 
ATOM     14  C   UNL     1      -4.358  10.963  16.753  0.00  0.00    +0.000 A 
ATOM     15  C   UNL     1      -3.111  10.752  17.365  0.00  0.00    +0.000 A 
ATOM     16  C   UNL     1      -2.085   9.943  16.616  0.00  0.00    +0.000 C 
ATOM     17  C   UNL     1      -2.827  11.357  18.615  0.00  0.00    +0.000 A 
ENDBRANCH   6  17
ENDBRANCH   5   7
ENDBRANCH   1   5
BRANCH   3  18
ATOM     18  C   UNL     1       1.982   7.913  18.273  0.00  0.00    +0.000 C 
BRANCH  18  19
ATOM     19  C   UNL     1       3.356   7.612  17.689  0.00  0.00    +0.000 C 
BRANCH  19  20
ATOM     20  C   UNL     1       3.719   6.143  17.866  0.00  0.00    +0.000 C 
ATOM     21  O   UNL     1       4.766   5.673  17.424  0.00  0.00    +0.000 OA
BRANCH  20  22
ATOM     22  C   UNL     1       2.763   5.257  18.597  0.00  0.00    +0.000 A 
ATOM     23  C   UNL     1       1.919   4.366  17.926  0.00  0.00    +0.000 A 
ATOM     24  C   UNL     1       1.027   3.565  18.643  0.00  0.00    +0.000 A 
ATOM     25  C   UNL     1       0.976   3.645  20.034  0.00  0.00    +0.000 A 
ATOM     26  C   UNL     1       1.820   4.525  20.712  0.00  0.00    +0.000 A 
ATOM     27  C   UNL     1       2.711   5.326  19.997  0.00  0.00    +0.000 A 
ENDBRANCH  20  22
ENDBRANCH  19  20
ENDBRANCH  18  19
ENDBRANCH   3  18
TORSDOF 7
ENDMDL
MODEL 6
REMARK VINA RESULT:      -7.4      1.851      2.230
REMARK  Name = 
REMARK  10 active torsions:
REMARK  status: ('A' for Active; 'I' for Inactive)
REMARK    1  A    between atoms: C_1  and  C_2
REMARK    2  A    between atoms: C_6  and  C_7
REMARK    3  A    between atoms: C_8  and  N_9
REMARK    4  A    between atoms: C_10  and  C_12
REMARK    5  A    between atoms: C_12  and  N_13
REMARK    6  A    between atoms: N_13  and  C_14
REMARK    7  A    between atoms: C_15  and  C_17
REMARK    8  A    between atoms: C_17  and  C_18
REMARK    9  A    between atoms: C_18  and  C_19
REMARK   10  A    between atoms: C_19  and  C_21
REMARK                            x       y       z     vdW  Elec       q    Type
REMARK                         _______ _______ _______ _____ _____    ______ ____
ROOT
ATOM      1  N   UNL     1       6.795   6.621  17.484  0.00  0.00    +0.000 N 
ATOM      2  C   UNL     1       6.044   7.349  16.473  0.00  0.00    +0.000 C 
ATOM      3  C   UNL     1       7.841   7.187  18.202  0.00  0.00    +0.000 C 
ATOM      4  O   UNL     1       8.473   6.540  19.037  0.00  0.00    +0.000 OA
ENDROOT
BRANCH   1   5
ATOM      5  C   UNL     1       6.527   5.180  17.603  0.00  0.00    +0.000 C 
BRANCH   5   7
ATOM      6  N   UNL     1       4.735   4.817  19.261  0.00  0.00    +0.000 N 
ATOM      7  C   UNL     1       5.066   4.792  17.914  0.00  0.00    +0.000 C 
ATOM      8  O   UNL     1       4.350   4.336  17.024  0.00  0.00    +0.000 OA
ATOM      9  H   UNL     1       5.538   4.692  19.867  0.00  0.00    +0.000 HD
BRANCH   6  17
ATOM     10  C   UNL     1       2.423   6.722  19.586  0.00  0.00    +0.000 C 
ATOM     11  C   UNL     1       2.381   5.256  19.931  0.00  0.00    +0.000 A 
ATOM     12  C   UNL     1       1.178   4.768  20.470  0.00  0.00    +0.000 A 
ATOM     13  C   UNL     1       1.059   3.436  20.875  0.00  0.00    +0.000 A 
ATOM     14  C   UNL     1       2.143   2.581  20.733  0.00  0.00    +0.000 A 
ATOM     15  C   UNL     1       3.354   3.033  20.183  0.00  0.00    +0.000 A 
ATOM     16  C   UNL     1       4.458   2.027  19.986  0.00  0.00    +0.000 C 
ATOM     17  C   UNL     1       3.482   4.381  19.768  0.00  0.00    +0.000 A 
ENDBRANCH   6  17
ENDBRANCH   5   7
ENDBRANCH   1   5
BRANCH   3  18
ATOM     18  C   UNL     1       8.113   8.669  17.979  0.00  0.00    +0.000 C 
BRANCH  18  19
ATOM     19  C   UNL     1       8.888   9.297  19.130  0.00  0.00    +0.000 C 
BRANCH  19  20
ATOM     20  C   UNL     1       9.437  10.664  18.741  0.00  0.00    +0.000 C 
ATOM     21  O   UNL     1       9.797  10.918  17.593  0.00  0.00    +0.000 OA
BRANCH  20  22
ATOM     22  C   UNL     1       9.539  11.717  19.798  0.00  0.00    +0.000 A 
ATOM     23  C   UNL     1       9.146  11.479  21.118  0.00  0.00    +0.000 A 
ATOM     24  C   UNL     1       9.241  12.492  22.075  0.00  0.00    +0.000 A 
ATOM     25  C   UNL     1       9.735  13.747  21.720  0.00  0.00    +0.000 A 
ATOM     26  C   UNL     1      10.137  13.990  20.406  0.00  0.00    +0.000 A 
ATOM     27  C   UNL     1      10.042  12.979  19.450  0.00  0.00    +0.000 A 
ENDBRANCH  20  22
ENDBRANCH  19  20
ENDBRANCH  18  19
ENDBRANCH   3  18
TORSDOF 7
ENDMDL
MODEL 7
REMARK VINA RESULT:      -7.4      6.690     10.212
REMARK  Name = 
REMARK  10 active torsions:
REMARK  status: ('A' for Active; 'I' for Inactive)
REMARK    1  A    between atoms: C_1  and  C_2
REMARK    2  A    between atoms: C_6  and  C_7
REMARK    3  A    between atoms: C_8  and  N_9
REMARK    4  A    between atoms: C_10  and  C_12
REMARK    5  A    between atoms: C_12  and  N_13
REMARK    6  A    between atoms: N_13  and  C_14
REMARK    7  A    between atoms: C_15  and  C_17
REMARK    8  A    between atoms: C_17  and  C_18
REMARK    9  A    between atoms: C_18  and  C_19
REMARK   10  A    between atoms: C_19  and  C_21
REMARK                            x       y       z     vdW  Elec       q    Type
REMARK                         _______ _______ _______ _____ _____    ______ ____
ROOT
ATOM      1  N   UNL     1       1.317  11.057  19.155  0.00  0.00    +0.000 N 
ATOM      2  C   UNL     1       2.194  11.469  18.070  0.00  0.00    +0.000 C 
ATOM      3  C   UNL     1       1.044   9.725  19.441  0.00  0.00    +0.000 C 
ATOM      4  O   UNL     1       0.280   9.406  20.353  0.00  0.00    +0.000 OA
ENDROOT
BRANCH   1   5
ATOM      5  C   UNL     1       0.570  12.118  19.846  0.00  0.00    +0.000 C 
BRANCH   5   7
ATOM      6  N   UNL     1      -1.813  11.617  19.441  0.00  0.00    +0.000 N 
ATOM      7  C   UNL     1      -0.780  12.512  19.209  0.00  0.00    +0.000 C 
ATOM      8  O   UNL     1      -0.834  13.458  18.424  0.00  0.00    +0.000 OA
ATOM      9  H   UNL     1      -1.484  10.677  19.634  0.00  0.00    +0.000 HD
BRANCH   6  17
ATOM     10  C   UNL     1      -4.048  13.103  20.810  0.00  0.00    +0.000 C 
ATOM     11  C   UNL     1      -4.165  12.423  19.471  0.00  0.00    +0.000 A 
ATOM     12  C   UNL     1      -5.422  12.472  18.845  0.00  0.00    +0.000 A 
ATOM     13  C   UNL     1      -5.646  11.823  17.628  0.00  0.00    +0.000 A 
ATOM     14  C   UNL     1      -4.606  11.129  17.025  0.00  0.00    +0.000 A 
ATOM     15  C   UNL     1      -3.333  11.074  17.616  0.00  0.00    +0.000 A 
ATOM     16  C   UNL     1      -2.235  10.370  16.862  0.00  0.00    +0.000 C 
ATOM     17  C   UNL     1      -3.098  11.732  18.848  0.00  0.00    +0.000 A 
ENDBRANCH   6  17
ENDBRANCH   5   7
ENDBRANCH   1   5
BRANCH   3  18
ATOM     18  C   UNL     1       1.800   8.674  18.639  0.00  0.00    +0.000 C 
BRANCH  18  19
ATOM     19  C   UNL     1       2.293   7.524  19.508  0.00  0.00    +0.000 C 
BRANCH  19  20
ATOM     20  C   UNL     1       2.849   6.391  18.655  0.00  0.00    +0.000 C 
ATOM     21  O   UNL     1       3.765   6.568  17.854  0.00  0.00    +0.000 OA
BRANCH  20  22
ATOM     22  C   UNL     1       2.253   5.028  18.805  0.00  0.00    +0.000 A 
ATOM     23  C   UNL     1       2.419   4.038  17.832  0.00  0.00    +0.000 A 
ATOM     24  C   UNL     1       1.834   2.780  17.999  0.00  0.00    +0.000 A 
ATOM     25  C   UNL     1       1.083   2.504  19.141  0.00  0.00    +0.000 A 
ATOM     26  C   UNL     1       0.918   3.484  20.119  0.00  0.00    +0.000 A 
ATOM     27  C   UNL     1       1.502   4.740  19.954  0.00  0.00    +0.000 A 
ENDBRANCH  20  22
ENDBRANCH  19  20
ENDBRANCH  18  19
ENDBRANCH   3  18
TORSDOF 7
ENDMDL
MODEL 8
REMARK VINA RESULT:      -7.3      1.615      1.881
REMARK  Name = 
REMARK  10 active torsions:
REMARK  status: ('A' for Active; 'I' for Inactive)
REMARK    1  A    between atoms: C_1  and  C_2
REMARK    2  A    between atoms: C_6  and  C_7
REMARK    3  A    between atoms: C_8  and  N_9
REMARK    4  A    between atoms: C_10  and  C_12
REMARK    5  A    between atoms: C_12  and  N_13
REMARK    6  A    between atoms: N_13  and  C_14
REMARK    7  A    between atoms: C_15  and  C_17
REMARK    8  A    between atoms: C_17  and  C_18
REMARK    9  A    between atoms: C_18  and  C_19
REMARK   10  A    between atoms: C_19  and  C_21
REMARK                            x       y       z     vdW  Elec       q    Type
REMARK                         _______ _______ _______ _____ _____    ______ ____
ROOT
ATOM      1  N   UNL     1       6.376   6.181  16.502  0.00  0.00    +0.000 N 
ATOM      2  C   UNL     1       7.419   5.307  15.987  0.00  0.00    +0.000 C 
ATOM      3  C   UNL     1       6.647   7.345  17.209  0.00  0.00    +0.000 C 
ATOM      4  O   UNL     1       5.743   8.054  17.652  0.00  0.00    +0.000 OA
ENDROOT
BRANCH   1   5
ATOM      5  C   UNL     1       4.992   5.693  16.405  0.00  0.00    +0.000 C 
BRANCH   5   7
ATOM      6  N   UNL     1       3.088   4.785  17.687  0.00  0.00    +0.000 N 
ATOM      7  C   UNL     1       4.468   4.910  17.627  0.00  0.00    +0.000 C 
ATOM      8  O   UNL     1       5.241   4.602  18.534  0.00  0.00    +0.000 OA
ATOM      9  H   UNL     1       2.604   5.520  17.183  0.00  0.00    +0.000 HD
BRANCH   6  17
ATOM     10  C   UNL     1       2.164   6.457  20.017  0.00  0.00    +0.000 C 
ATOM     11  C   UNL     1       1.958   4.970  19.894  0.00  0.00    +0.000 A 
ATOM     12  C   UNL     1       1.313   4.331  20.967  0.00  0.00    +0.000 A 
ATOM     13  C   UNL     1       1.125   2.946  20.972  0.00  0.00    +0.000 A 
ATOM     14  C   UNL     1       1.576   2.194  19.896  0.00  0.00    +0.000 A 
ATOM     15  C   UNL     1       2.210   2.803  18.801  0.00  0.00    +0.000 A 
ATOM     16  C   UNL     1       2.598   1.931  17.635  0.00  0.00    +0.000 C 
ATOM     17  C   UNL     1       2.401   4.207  18.788  0.00  0.00    +0.000 A 
ENDBRANCH   6  17
ENDBRANCH   5   7
ENDBRANCH   1   5
BRANCH   3  18
ATOM     18  C   UNL     1       8.108   7.756  17.334  0.00  0.00    +0.000 C 
BRANCH  18  19
ATOM     19  C   UNL     1       8.363   8.630  18.556  0.00  0.00    +0.000 C 
BRANCH  19  20
ATOM     20  C   UNL     1       8.535  10.091  18.160  0.00  0.00    +0.000 C 
ATOM     21  O   UNL     1       7.767  10.648  17.378  0.00  0.00    +0.000 OA
BRANCH  20  22
ATOM     22  C   UNL     1       9.679  10.856  18.743  0.00  0.00    +0.000 A 
ATOM     23  C   UNL     1      10.736  11.321  17.954  0.00  0.00    +0.000 A 
ATOM     24  C   UNL     1      11.796  12.020  18.538  0.00  0.00    +0.000 A 
ATOM     25  C   UNL     1      11.803  12.263  19.911  0.00  0.00    +0.000 A 
ATOM     26  C   UNL     1      10.749  11.809  20.703  0.00  0.00    +0.000 A 
ATOM     27  C   UNL     1       9.690  11.111  20.122  0.00  0.00    +0.000 A 
ENDBRANCH  20  22
ENDBRANCH  19  20
ENDBRANCH  18  19
ENDBRANCH   3  18
TORSDOF 7
ENDMDL
MODEL 9
REMARK VINA RESULT:      -7.3      5.115      8.955
REMARK  Name = 
REMARK  10 active torsions:
REMARK  status: ('A' for Active; 'I' for Inactive)
REMARK    1  A    between atoms: C_1  and  C_2
REMARK    2  A    between atoms: C_6  and  C_7
REMARK    3  A    between atoms: C_8  and  N_9
REMARK    4  A    between atoms: C_10  and  C_12
REMARK    5  A    between atoms: C_12  and  N_13
REMARK    6  A    between atoms: N_13  and  C_14
REMARK    7  A    between atoms: C_15  and  C_17
REMARK    8  A    between atoms: C_17  and  C_18
REMARK    9  A    between atoms: C_18  and  C_19
REMARK   10  A    between atoms: C_19  and  C_21
REMARK                            x       y       z     vdW  Elec       q    Type
REMARK                         _______ _______ _______ _____ _____    ______ ____
ROOT
ATOM      1  N   UNL     1       2.902   7.234  18.300  0.00  0.00    +0.000 N 
ATOM      2  C   UNL     1       2.436   7.071  19.669  0.00  0.00    +0.000 C 
ATOM      3  C   UNL     1       4.094   6.691  17.838  0.00  0.00    +0.000 C 
ATOM      4  O   UNL     1       4.474   6.864  16.679  0.00  0.00    +0.000 OA
ENDROOT
BRANCH   1   5
ATOM      5  C   UNL     1       2.145   8.162  17.447  0.00  0.00    +0.000 C 
BRANCH   5   7
ATOM      6  N   UNL     1       0.278   9.236  18.652  0.00  0.00    +0.000 N 
ATOM      7  C   UNL     1       1.562   9.403  18.156  0.00  0.00    +0.000 C 
ATOM      8  O   UNL     1       2.159  10.478  18.099  0.00  0.00    +0.000 OA
ATOM      9  H   UNL     1      -0.242   8.514  18.165  0.00  0.00    +0.000 HD
BRANCH   6  17
ATOM     10  C   UNL     1       0.864  10.254  21.427  0.00  0.00    +0.000 C 
ATOM     11  C   UNL     1      -0.227  10.782  20.533  0.00  0.00    +0.000 A 
ATOM     12  C   UNL     1      -1.038  11.802  21.060  0.00  0.00    +0.000 A 
ATOM     13  C   UNL     1      -2.111  12.318  20.330  0.00  0.00    +0.000 A 
ATOM     14  C   UNL     1      -2.373  11.821  19.061  0.00  0.00    +0.000 A 
ATOM     15  C   UNL     1      -1.573  10.813  18.498  0.00  0.00    +0.000 A 
ATOM     16  C   UNL     1      -1.871  10.382  17.085  0.00  0.00    +0.000 C 
ATOM     17  C   UNL     1      -0.481  10.287  19.232  0.00  0.00    +0.000 A 
ENDBRANCH   6  17
ENDBRANCH   5   7
ENDBRANCH   1   5
BRANCH   3  18
ATOM     18  C   UNL     1       4.866   5.796  18.798  0.00  0.00    +0.000 C 
BRANCH  18  19
ATOM     19  C   UNL     1       5.054   4.386  18.253  0.00  0.00    +0.000 C 
BRANCH  19  20
ATOM     20  C   UNL     1       3.711   3.709  18.008  0.00  0.00    +0.000 C 
ATOM     21  O   UNL     1       3.325   3.421  16.876  0.00  0.00    +0.000 OA
BRANCH  20  22
ATOM     22  C   UNL     1       2.846   3.395  19.186  0.00  0.00    +0.000 A 
ATOM     23  C   UNL     1       1.468   3.639  19.177  0.00  0.00    +0.000 A 
ATOM     24  C   UNL     1       0.694   3.346  20.303  0.00  0.00    +0.000 A 
ATOM     25  C   UNL     1       1.290   2.805  21.441  0.00  0.00    +0.000 A 
ATOM     26  C   UNL     1       2.661   2.552  21.455  0.00  0.00    +0.000 A 
ATOM     27  C   UNL     1       3.436   2.843  20.332  0.00  0.00    +0.000 A 
ENDBRANCH  20  22
ENDBRANCH  19  20
ENDBRANCH  18  19
ENDBRANCH   3  18
TORSDOF 7
ENDMDL
