MODEL 1
REMARK VINA RESULT:      -8.2      0.000      0.000
REMARK  Name = 
REMARK  6 active torsions:
REMARK  status: ('A' for Active; 'I' for Inactive)
REMARK    1  A    between atoms: C_1  and  C_2
REMARK    2  A    between atoms: C_7  and  C_9
REMARK    3  A    between atoms: C_14  and  N_15
REMARK    4  A    between atoms: N_15  and  C_16
REMARK    5  A    between atoms: C_16  and  C_17
REMARK    6  A    between atoms: C_17  and  O_18
REMARK                            x       y       z     vdW  Elec       q    Type
REMARK                         _______ _______ _______ _____ _____    ______ ____
ROOT
ATOM      1  C   UNL     1       2.737   6.741  18.244  0.00  0.00    +0.000 A 
ATOM      2  C   UNL     1       2.609   7.789  17.324  0.00  0.00    +0.000 A 
ATOM      3  C   UNL     1       2.180   9.037  17.735  0.00  0.00    +0.000 A 
ATOM      4  C   UNL     1       1.668   9.198  19.021  0.00  0.00    +0.000 A 
ATOM      5  C   UNL     1       1.636   8.125  19.935  0.00  0.00    +0.000 A 
ATOM      6  C   UNL     1       2.247   6.874  19.588  0.00  0.00    +0.000 A 
ATOM      7  C   UNL     1       0.810   8.354  21.160  0.00  0.00    +0.000 C 
ATOM      8  O   UNL     1       0.353   7.440  21.832  0.00  0.00    +0.000 OA
ATOM      9  C   UNL     1       0.352   9.711  21.526  0.00  0.00    +0.000 A 
ATOM     10  C   UNL     1      -0.267   9.931  22.764  0.00  0.00    +0.000 A 
ATOM     11  C   UNL     1      -0.867  11.160  23.042  0.00  0.00    +0.000 A 
ATOM     12  C   UNL     1      -0.854  12.174  22.087  0.00  0.00    +0.000 A 
ATOM     13  C   UNL     1      -0.198  11.974  20.873  0.00  0.00    +0.000 A 
ATOM     14  C   UNL     1       0.416  10.743  20.603  0.00  0.00    +0.000 A 
ATOM     15  C   UNL     1       1.094  10.526  19.326  0.00  0.00    +0.000 C 
ATOM     16  O   UNL     1       1.186  11.447  18.520  0.00  0.00    +0.000 OA
ENDROOT
BRANCH   1  23
ATOM     17  C   UNL     1       6.914   6.781  18.263  0.00  0.00    +0.000 C 
ATOM     18  C   UNL     1       6.707   6.626  16.753  0.00  0.00    +0.000 C 
ATOM     19  C   UNL     1       7.303   5.332  16.194  0.00  0.00    +0.000 C 
ATOM     20  C   UNL     1       6.526   4.101  16.659  0.00  0.00    +0.000 C 
ATOM     21  C   UNL     1       5.025   4.236  16.389  0.00  0.00    +0.000 C 
ATOM     22  N   UNL     1       4.492   5.499  16.906  0.00  0.00    +0.000 N 
ATOM     23  C   UNL     1       3.356   5.464  17.752  0.00  0.00    +0.000 C 
ATOM     24  O   UNL     1       2.828   4.413  18.096  0.00  0.00    +0.000 OA
ATOM     25  C   UNL     1       5.217   6.691  16.436  0.00  0.00    +0.000 C 
ENDBRANCH   1  23
BRANCH   6  26
ATOM     26  N   UNL     1       2.443   5.778  20.440  0.00  0.00    +0.000 N 
ATOM     27  H   UNL     1       3.420   5.456  20.411  0.00  0.00    +0.000 HD
BRANCH  26  28
ATOM     28  C   UNL     1       1.465   4.727  20.724  0.00  0.00    +0.000 C 
BRANCH  28  29
ATOM     29  C   UNL     1       2.111   3.572  21.499  0.00  0.00    +0.000 C 
BRANCH  29  30
ATOM     30  O   UNL     1       2.870   2.736  20.629  0.00  0.00    +0.000 OA
ATOM     31  H   UNL     1       3.783   2.782  20.980  0.00  0.00    +0.000 HD
ENDBRANCH  29  30
ENDBRANCH  28  29
ENDBRANCH  26  28
ENDBRANCH   6  26
TORSDOF 5
ENDMDL
MODEL 2
REMARK VINA RESULT:      -8.1      4.177     10.318
REMARK  Name = 
REMARK  6 active torsions:
REMARK  status: ('A' for Active; 'I' for Inactive)
REMARK    1  A    between atoms: C_1  and  C_2
REMARK    2  A    between atoms: C_7  and  C_9
REMARK    3  A    between atoms: C_14  and  N_15
REMARK    4  A    between atoms: N_15  and  C_16
REMARK    5  A    between atoms: C_16  and  C_17
REMARK    6  A    between atoms: C_17  and  O_18
REMARK                            x       y       z     vdW  Elec       q    Type
REMARK                         _______ _______ _______ _____ _____    ______ ____
ROOT
ATOM      1  C   UNL     1      -1.807  13.146  22.028  0.00  0.00    +0.000 A 
ATOM      2  C   UNL     1      -1.702  12.194  23.050  0.00  0.00    +0.000 A 
ATOM      3  C   UNL     1      -0.848  11.115  22.921  0.00  0.00    +0.000 A 
ATOM      4  C   UNL     1      -0.252  10.854  21.689  0.00  0.00    +0.000 A 
ATOM      5  C   UNL     1      -0.453  11.707  20.584  0.00  0.00    +0.000 A 
ATOM      6  C   UNL     1      -1.185  12.930  20.751  0.00  0.00    +0.000 A 
ATOM      7  C   UNL     1       0.002  11.164  19.267  0.00  0.00    +0.000 C 
ATOM      8  O   UNL     1      -0.439  11.563  18.197  0.00  0.00    +0.000 OA
ATOM      9  C   UNL     1       0.888   9.984  19.197  0.00  0.00    +0.000 A 
ATOM     10  C   UNL     1       1.444   9.599  17.969  0.00  0.00    +0.000 A 
ATOM     11  C   UNL     1       2.127   8.387  17.855  0.00  0.00    +0.000 A 
ATOM     12  C   UNL     1       2.257   7.553  18.964  0.00  0.00    +0.000 A 
ATOM     13  C   UNL     1       1.745   7.955  20.197  0.00  0.00    +0.000 A 
ATOM     14  C   UNL     1       1.073   9.180  20.310  0.00  0.00    +0.000 A 
ATOM     15  C   UNL     1       0.525   9.599  21.600  0.00  0.00    +0.000 C 
ATOM     16  O   UNL     1       0.716   8.911  22.596  0.00  0.00    +0.000 OA
ENDROOT
BRANCH   1  23
ATOM     17  C   UNL     1      -4.940  12.479  24.710  0.00  0.00    +0.000 C 
ATOM     18  C   UNL     1      -5.781  12.854  23.485  0.00  0.00    +0.000 C 
ATOM     19  C   UNL     1      -6.636  14.104  23.702  0.00  0.00    +0.000 C 
ATOM     20  C   UNL     1      -5.782  15.369  23.790  0.00  0.00    +0.000 C 
ATOM     21  C   UNL     1      -4.824  15.495  22.602  0.00  0.00    +0.000 C 
ATOM     22  N   UNL     1      -4.045  14.271  22.400  0.00  0.00    +0.000 N 
ATOM     23  C   UNL     1      -2.635  14.368  22.307  0.00  0.00    +0.000 C 
ATOM     24  O   UNL     1      -2.042  15.434  22.428  0.00  0.00    +0.000 OA
ATOM     25  C   UNL     1      -4.864  13.053  22.283  0.00  0.00    +0.000 C 
ENDBRANCH   1  23
BRANCH   6  26
ATOM     26  N   UNL     1      -1.327  13.952  19.802  0.00  0.00    +0.000 N 
ATOM     27  H   UNL     1      -2.002  13.687  19.071  0.00  0.00    +0.000 HD
BRANCH  26  28
ATOM     28  C   UNL     1      -0.270  14.859  19.353  0.00  0.00    +0.000 C 
BRANCH  28  29
ATOM     29  C   UNL     1      -0.818  16.275  19.137  0.00  0.00    +0.000 C 
BRANCH  29  30
ATOM     30  O   UNL     1      -2.145  16.392  19.644  0.00  0.00    +0.000 OA
ATOM     31  H   UNL     1      -2.034  16.419  20.616  0.00  0.00    +0.000 HD
ENDBRANCH  29  30
ENDBRANCH  28  29
ENDBRANCH  26  28
ENDBRANCH   6  26
TORSDOF 5
ENDMDL
MODEL 3
REMARK VINA RESULT:      -8.0      2.854      7.170
REMARK  Name = 
REMARK  6 active torsions:
REMARK  status: ('A' for Active; 'I' for Inactive)
REMARK    1  A    between atoms: C_1  and  C_2
REMARK    2  A    between atoms: C_7  and  C_9
REMARK    3  A    between atoms: C_14  and  N_15
REMARK    4  A    between atoms: N_15  and  C_16
REMARK    5  A    between atoms: C_16  and  C_17
REMARK    6  A    between atoms: C_17  and  O_18
REMARK                            x       y       z     vdW  Elec       q    Type
REMARK                         _______ _______ _______ _____ _____    ______ ____
ROOT
ATOM      1  C   UNL     1       0.935  11.043  18.901  0.00  0.00    +0.000 A 
ATOM      2  C   UNL     1       1.920  10.910  17.914  0.00  0.00    +0.000 A 
ATOM      3  C   UNL     1       2.465   9.674  17.626  0.00  0.00    +0.000 A 
ATOM      4  C   UNL     1       2.194   8.592  18.461  0.00  0.00    +0.000 A 
ATOM      5  C   UNL     1       1.322   8.719  19.562  0.00  0.00    +0.000 A 
ATOM      6  C   UNL     1       0.605   9.944  19.766  0.00  0.00    +0.000 A 
ATOM      7  C   UNL     1       1.345   7.578  20.528  0.00  0.00    +0.000 C 
ATOM      8  O   UNL     1       0.983   7.687  21.692  0.00  0.00    +0.000 OA
ATOM      9  C   UNL     1       1.976   6.291  20.170  0.00  0.00    +0.000 A 
ATOM     10  C   UNL     1       1.832   5.182  21.016  0.00  0.00    +0.000 A 
ATOM     11  C   UNL     1       2.572   4.021  20.786  0.00  0.00    +0.000 A 
ATOM     12  C   UNL     1       3.459   3.961  19.713  0.00  0.00    +0.000 A 
ATOM     13  C   UNL     1       3.569   5.045  18.843  0.00  0.00    +0.000 A 
ATOM     14  C   UNL     1       2.814   6.204  19.070  0.00  0.00    +0.000 A 
ATOM     15  C   UNL     1       2.935   7.347  18.166  0.00  0.00    +0.000 C 
ATOM     16  O   UNL     1       3.647   7.264  17.170  0.00  0.00    +0.000 OA
ENDROOT
BRANCH   1  23
ATOM     17  C   UNL     1       3.534  14.252  18.273  0.00  0.00    +0.000 C 
ATOM     18  C   UNL     1       3.196  14.533  19.742  0.00  0.00    +0.000 C 
ATOM     19  C   UNL     1       2.511  15.885  19.953  0.00  0.00    +0.000 C 
ATOM     20  C   UNL     1       1.093  15.899  19.384  0.00  0.00    +0.000 C 
ATOM     21  C   UNL     1       0.261  14.718  19.893  0.00  0.00    +0.000 C 
ATOM     22  N   UNL     1       0.957  13.443  19.707  0.00  0.00    +0.000 N 
ATOM     23  C   UNL     1       0.282  12.388  19.047  0.00  0.00    +0.000 C 
ATOM     24  O   UNL     1      -0.849  12.516  18.594  0.00  0.00    +0.000 OA
ATOM     25  C   UNL     1       2.313  13.413  20.281  0.00  0.00    +0.000 C 
ENDBRANCH   1  23
BRANCH   6  26
ATOM     26  N   UNL     1      -0.412  10.168  20.706  0.00  0.00    +0.000 N 
ATOM     27  H   UNL     1      -1.335  10.197  20.253  0.00  0.00    +0.000 HD
BRANCH  26  28
ATOM     28  C   UNL     1      -0.299  10.990  21.911  0.00  0.00    +0.000 C 
BRANCH  28  29
ATOM     29  C   UNL     1      -0.745  10.206  23.153  0.00  0.00    +0.000 C 
BRANCH  29  30
ATOM     30  O   UNL     1       0.375   9.633  23.823  0.00  0.00    +0.000 OA
ATOM     31  H   UNL     1       0.943  10.398  24.047  0.00  0.00    +0.000 HD
ENDBRANCH  29  30
ENDBRANCH  28  29
ENDBRANCH  26  28
ENDBRANCH   6  26
TORSDOF 5
ENDMDL
MODEL 4
REMARK VINA RESULT:      -7.4      6.309      8.289
REMARK  Name = 
REMARK  6 active torsions:
REMARK  status: ('A' for Active; 'I' for Inactive)
REMARK    1  A    between atoms: C_1  and  C_2
REMARK    2  A    between atoms: C_7  and  C_9
REMARK    3  A    between atoms: C_14  and  N_15
REMARK    4  A    between atoms: N_15  and  C_16
REMARK    5  A    between atoms: C_16  and  C_17
REMARK    6  A    between atoms: C_17  and  O_18
REMARK                            x       y       z     vdW  Elec       q    Type
REMARK                         _______ _______ _______ _____ _____    ______ ____
ROOT
ATOM      1  C   UNL     1      -0.620  12.547  20.614  0.00  0.00    +0.000 A 
ATOM      2  C   UNL     1      -0.427  12.974  21.934  0.00  0.00    +0.000 A 
ATOM      3  C   UNL     1      -1.480  12.994  22.828  0.00  0.00    +0.000 A 
ATOM      4  C   UNL     1      -2.778  12.794  22.364  0.00  0.00    +0.000 A 
ATOM      5  C   UNL     1      -3.034  12.511  21.007  0.00  0.00    +0.000 A 
ATOM      6  C   UNL     1      -1.940  12.304  20.103  0.00  0.00    +0.000 A 
ATOM      7  C   UNL     1      -4.469  12.604  20.595  0.00  0.00    +0.000 C 
ATOM      8  O   UNL     1      -4.816  12.787  19.436  0.00  0.00    +0.000 OA
ATOM      9  C   UNL     1      -5.548  12.657  21.603  0.00  0.00    +0.000 A 
ATOM     10  C   UNL     1      -6.887  12.566  21.201  0.00  0.00    +0.000 A 
ATOM     11  C   UNL     1      -7.915  12.800  22.116  0.00  0.00    +0.000 A 
ATOM     12  C   UNL     1      -7.611  13.126  23.436  0.00  0.00    +0.000 A 
ATOM     13  C   UNL     1      -6.281  13.172  23.851  0.00  0.00    +0.000 A 
ATOM     14  C   UNL     1      -5.253  12.922  22.931  0.00  0.00    +0.000 A 
ATOM     15  C   UNL     1      -3.855  12.980  23.360  0.00  0.00    +0.000 C 
ATOM     16  O   UNL     1      -3.588  13.178  24.541  0.00  0.00    +0.000 OA
ENDROOT
BRANCH   1  23
ATOM     17  C   UNL     1       1.853  15.914  20.633  0.00  0.00    +0.000 C 
ATOM     18  C   UNL     1       1.471  15.936  19.149  0.00  0.00    +0.000 C 
ATOM     19  C   UNL     1       2.673  15.779  18.216  0.00  0.00    +0.000 C 
ATOM     20  C   UNL     1       3.262  14.370  18.280  0.00  0.00    +0.000 C 
ATOM     21  C   UNL     1       2.194  13.294  18.069  0.00  0.00    +0.000 C 
ATOM     22  N   UNL     1       1.043  13.491  18.953  0.00  0.00    +0.000 N 
ATOM     23  C   UNL     1       0.601  12.406  19.749  0.00  0.00    +0.000 C 
ATOM     24  O   UNL     1       1.171  11.321  19.753  0.00  0.00    +0.000 OA
ATOM     25  C   UNL     1       0.451  14.837  18.873  0.00  0.00    +0.000 C 
ENDBRANCH   1  23
BRANCH   6  26
ATOM     26  N   UNL     1      -2.028  11.856  18.777  0.00  0.00    +0.000 N 
ATOM     27  H   UNL     1      -2.471  12.564  18.176  0.00  0.00    +0.000 HD
BRANCH  26  28
ATOM     28  C   UNL     1      -2.250  10.474  18.352  0.00  0.00    +0.000 C 
BRANCH  28  29
ATOM     29  C   UNL     1      -2.219  10.358  16.822  0.00  0.00    +0.000 C 
BRANCH  29  30
ATOM     30  O   UNL     1      -2.200  11.648  16.214  0.00  0.00    +0.000 OA
ATOM     31  H   UNL     1      -2.424  11.479  15.276  0.00  0.00    +0.000 HD
ENDBRANCH  29  30
ENDBRANCH  28  29
ENDBRANCH  26  28
ENDBRANCH   6  26
TORSDOF 5
ENDMDL
MODEL 5
REMARK VINA RESULT:      -7.4      3.490      7.404
REMARK  Name = 
REMARK  6 active torsions:
REMARK  status: ('A' for Active; 'I' for Inactive)
REMARK    1  A    between atoms: C_1  and  C_2
REMARK    2  A    between atoms: C_7  and  C_9
REMARK    3  A    between atoms: C_14  and  N_15
REMARK    4  A    between atoms: N_15  and  C_16
REMARK    5  A    between atoms: C_16  and  C_17
REMARK    6  A    between atoms: C_17  and  O_18
REMARK                            x       y       z     vdW  Elec       q    Type
REMARK                         _______ _______ _______ _____ _____    ______ ____
ROOT
ATOM      1  C   UNL     1       1.341  12.243  19.412  0.00  0.00    +0.000 A 
ATOM      2  C   UNL     1       2.012  12.040  18.200  0.00  0.00    +0.000 A 
ATOM      3  C   UNL     1       2.223  10.763  17.717  0.00  0.00    +0.000 A 
ATOM      4  C   UNL     1       1.960   9.668  18.537  0.00  0.00    +0.000 A 
ATOM      5  C   UNL     1       1.424   9.834  19.831  0.00  0.00    +0.000 A 
ATOM      6  C   UNL     1       1.027  11.139  20.275  0.00  0.00    +0.000 A 
ATOM      7  C   UNL     1       1.461   8.616  20.698  0.00  0.00    +0.000 C 
ATOM      8  O   UNL     1       1.422   8.672  21.921  0.00  0.00    +0.000 OA
ATOM      9  C   UNL     1       1.727   7.281  20.125  0.00  0.00    +0.000 A 
ATOM     10  C   UNL     1       1.583   6.136  20.920  0.00  0.00    +0.000 A 
ATOM     11  C   UNL     1       2.008   4.893  20.448  0.00  0.00    +0.000 A 
ATOM     12  C   UNL     1       2.579   4.787  19.181  0.00  0.00    +0.000 A 
ATOM     13  C   UNL     1       2.680   5.916  18.369  0.00  0.00    +0.000 A 
ATOM     14  C   UNL     1       2.239   7.159  18.842  0.00  0.00    +0.000 A 
ATOM     15  C   UNL     1       2.354   8.348  17.998  0.00  0.00    +0.000 C 
ATOM     16  O   UNL     1       2.772   8.242  16.849  0.00  0.00    +0.000 OA
ENDROOT
BRANCH   1  23
ATOM     17  C   UNL     1       4.286  14.998  18.322  0.00  0.00    +0.000 C 
ATOM     18  C   UNL     1       4.367  15.185  19.841  0.00  0.00    +0.000 C 
ATOM     19  C   UNL     1       4.027  16.608  20.291  0.00  0.00    +0.000 C 
ATOM     20  C   UNL     1       2.544  16.925  20.101  0.00  0.00    +0.000 C 
ATOM     21  C   UNL     1       1.646  15.862  20.739  0.00  0.00    +0.000 C 
ATOM     22  N   UNL     1       2.018  14.510  20.315  0.00  0.00    +0.000 N 
ATOM     23  C   UNL     1       1.014  13.660  19.791  0.00  0.00    +0.000 C 
ATOM     24  O   UNL     1      -0.146  14.028  19.645  0.00  0.00    +0.000 OA
ATOM     25  C   UNL     1       3.439  14.187  20.525  0.00  0.00    +0.000 C 
ENDBRANCH   1  23
BRANCH   6  26
ATOM     26  N   UNL     1       0.332  11.441  21.456  0.00  0.00    +0.000 N 
ATOM     27  H   UNL     1       0.957  11.405  22.272  0.00  0.00    +0.000 HD
BRANCH  26  28
ATOM     28  C   UNL     1      -1.062  11.100  21.742  0.00  0.00    +0.000 C 
BRANCH  28  29
ATOM     29  C   UNL     1      -1.242  10.721  23.217  0.00  0.00    +0.000 C 
BRANCH  29  30
ATOM     30  O   UNL     1      -0.108  10.006  23.703  0.00  0.00    +0.000 OA
ATOM     31  H   UNL     1       0.124  10.455  24.541  0.00  0.00    +0.000 HD
ENDBRANCH  29  30
ENDBRANCH  28  29
ENDBRANCH  26  28
ENDBRANCH   6  26
TORSDOF 5
ENDMDL
MODEL 6
REMARK VINA RESULT:      -7.3      4.157     10.116
REMARK  Name = 
REMARK  6 active torsions:
REMARK  status: ('A' for Active; 'I' for Inactive)
REMARK    1  A    between atoms: C_1  and  C_2
REMARK    2  A    between atoms: C_7  and  C_9
REMARK    3  A    between atoms: C_14  and  N_15
REMARK    4  A    between atoms: N_15  and  C_16
REMARK    5  A    between atoms: C_16  and  C_17
REMARK    6  A    between atoms: C_17  and  O_18
REMARK                            x       y       z     vdW  Elec       q    Type
REMARK                         _______ _______ _______ _____ _____    ______ ____
ROOT
ATOM      1  C   UNL     1      -2.169  12.815  22.065  0.00  0.00    +0.000 A 
ATOM      2  C   UNL     1      -1.992  11.873  23.085  0.00  0.00    +0.000 A 
ATOM      3  C   UNL     1      -1.057  10.864  22.957  0.00  0.00    +0.000 A 
ATOM      4  C   UNL     1      -0.440  10.652  21.726  0.00  0.00    +0.000 A 
ATOM      5  C   UNL     1      -0.705  11.488  20.622  0.00  0.00    +0.000 A 
ATOM      6  C   UNL     1      -1.530  12.650  20.789  0.00  0.00    +0.000 A 
ATOM      7  C   UNL     1      -0.207  10.983  19.305  0.00  0.00    +0.000 C 
ATOM      8  O   UNL     1      -0.676  11.348  18.235  0.00  0.00    +0.000 OA
ATOM      9  C   UNL     1       0.768   9.876  19.235  0.00  0.00    +0.000 A 
ATOM     10  C   UNL     1       1.355   9.536  18.008  0.00  0.00    +0.000 A 
ATOM     11  C   UNL     1       2.130   8.381  17.894  0.00  0.00    +0.000 A 
ATOM     12  C   UNL     1       2.322   7.559  19.003  0.00  0.00    +0.000 A 
ATOM     13  C   UNL     1       1.779   7.918  20.235  0.00  0.00    +0.000 A 
ATOM     14  C   UNL     1       1.013   9.087  20.348  0.00  0.00    +0.000 A 
ATOM     15  C   UNL     1       0.432   9.461  21.637  0.00  0.00    +0.000 C 
ATOM     16  O   UNL     1       0.674   8.788  22.634  0.00  0.00    +0.000 OA
ENDROOT
BRANCH   1  23
ATOM     17  C   UNL     1      -0.215  16.222  23.487  0.00  0.00    +0.000 C 
ATOM     18  C   UNL     1      -1.080  15.939  24.720  0.00  0.00    +0.000 C 
ATOM     19  C   UNL     1      -2.053  17.074  25.046  0.00  0.00    +0.000 C 
ATOM     20  C   UNL     1      -3.167  17.184  24.005  0.00  0.00    +0.000 C 
ATOM     21  C   UNL     1      -3.866  15.841  23.772  0.00  0.00    +0.000 C 
ATOM     22  N   UNL     1      -2.906  14.769  23.497  0.00  0.00    +0.000 N 
ATOM     23  C   UNL     1      -3.090  13.969  22.343  0.00  0.00    +0.000 C 
ATOM     24  O   UNL     1      -4.002  14.166  21.548  0.00  0.00    +0.000 OA
ATOM     25  C   UNL     1      -1.848  14.638  24.513  0.00  0.00    +0.000 C 
ENDBRANCH   1  23
BRANCH   6  26
ATOM     26  N   UNL     1      -1.750  13.659  19.840  0.00  0.00    +0.000 N 
ATOM     27  H   UNL     1      -2.362  13.327  19.082  0.00  0.00    +0.000 HD
BRANCH  26  28
ATOM     28  C   UNL     1      -0.785  14.682  19.438  0.00  0.00    +0.000 C 
BRANCH  28  29
ATOM     29  C   UNL     1      -1.177  16.056  19.997  0.00  0.00    +0.000 C 
BRANCH  29  30
ATOM     30  O   UNL     1      -2.573  16.293  19.835  0.00  0.00    +0.000 OA
ATOM     31  H   UNL     1      -2.982  15.406  19.907  0.00  0.00    +0.000 HD
ENDBRANCH  29  30
ENDBRANCH  28  29
ENDBRANCH  26  28
ENDBRANCH   6  26
TORSDOF 5
ENDMDL
MODEL 7
REMARK VINA RESULT:      -7.3      3.781      9.813
REMARK  Name = 
REMARK  6 active torsions:
REMARK  status: ('A' for Active; 'I' for Inactive)
REMARK    1  A    between atoms: C_1  and  C_2
REMARK    2  A    between atoms: C_7  and  C_9
REMARK    3  A    between atoms: C_14  and  N_15
REMARK    4  A    between atoms: N_15  and  C_16
REMARK    5  A    between atoms: C_16  and  C_17
REMARK    6  A    between atoms: C_17  and  O_18
REMARK                            x       y       z     vdW  Elec       q    Type
REMARK                         _______ _______ _______ _____ _____    ______ ____
ROOT
ATOM      1  C   UNL     1      -0.809  12.734  22.454  0.00  0.00    +0.000 A 
ATOM      2  C   UNL     1      -1.080  11.571  23.185  0.00  0.00    +0.000 A 
ATOM      3  C   UNL     1      -0.479  10.373  22.851  0.00  0.00    +0.000 A 
ATOM      4  C   UNL     1       0.230  10.271  21.656  0.00  0.00    +0.000 A 
ATOM      5  C   UNL     1       0.400  11.385  20.809  0.00  0.00    +0.000 A 
ATOM      6  C   UNL     1      -0.058  12.678  21.231  0.00  0.00    +0.000 A 
ATOM      7  C   UNL     1       0.924  11.075  19.443  0.00  0.00    +0.000 C 
ATOM      8  O   UNL     1       0.757  11.817  18.484  0.00  0.00    +0.000 OA
ATOM      9  C   UNL     1       1.525   9.760  19.140  0.00  0.00    +0.000 A 
ATOM     10  C   UNL     1       2.168   9.550  17.912  0.00  0.00    +0.000 A 
ATOM     11  C   UNL     1       2.572   8.267  17.539  0.00  0.00    +0.000 A 
ATOM     12  C   UNL     1       2.338   7.188  18.389  0.00  0.00    +0.000 A 
ATOM     13  C   UNL     1       1.741   7.401  19.631  0.00  0.00    +0.000 A 
ATOM     14  C   UNL     1       1.349   8.693  20.007  0.00  0.00    +0.000 A 
ATOM     15  C   UNL     1       0.712   8.918  21.304  0.00  0.00    +0.000 C 
ATOM     16  O   UNL     1       0.586   7.985  22.091  0.00  0.00    +0.000 OA
ENDROOT
BRANCH   1  23
ATOM     17  C   UNL     1      -4.467  12.289  24.420  0.00  0.00    +0.000 C 
ATOM     18  C   UNL     1      -4.949  13.172  23.265  0.00  0.00    +0.000 C 
ATOM     19  C   UNL     1      -5.525  14.511  23.731  0.00  0.00    +0.000 C 
ATOM     20  C   UNL     1      -4.441  15.433  24.287  0.00  0.00    +0.000 C 
ATOM     21  C   UNL     1      -3.269  15.589  23.314  0.00  0.00    +0.000 C 
ATOM     22  N   UNL     1      -2.763  14.292  22.861  0.00  0.00    +0.000 N 
ATOM     23  C   UNL     1      -1.377  14.024  22.974  0.00  0.00    +0.000 C 
ATOM     24  O   UNL     1      -0.593  14.824  23.472  0.00  0.00    +0.000 OA
ATOM     25  C   UNL     1      -3.798  13.411  22.295  0.00  0.00    +0.000 C 
ENDBRANCH   1  23
BRANCH   6  26
ATOM     26  N   UNL     1       0.183  13.898  20.584  0.00  0.00    +0.000 N 
ATOM     27  H   UNL     1      -0.332  13.953  19.694  0.00  0.00    +0.000 HD
BRANCH  26  28
ATOM     28  C   UNL     1       1.439  14.648  20.606  0.00  0.00    +0.000 C 
BRANCH  28  29
ATOM     29  C   UNL     1       1.751  15.238  19.225  0.00  0.00    +0.000 C 
BRANCH  29  30
ATOM     30  O   UNL     1       2.338  14.258  18.373  0.00  0.00    +0.000 OA
ATOM     31  H   UNL     1       3.030  14.744  17.881  0.00  0.00    +0.000 HD
ENDBRANCH  29  30
ENDBRANCH  28  29
ENDBRANCH  26  28
ENDBRANCH   6  26
TORSDOF 5
ENDMDL
MODEL 8
REMARK VINA RESULT:      -7.2      6.641     10.671
REMARK  Name = 
REMARK  6 active torsions:
REMARK  status: ('A' for Active; 'I' for Inactive)
REMARK    1  A    between atoms: C_1  and  C_2
REMARK    2  A    between atoms: C_7  and  C_9
REMARK    3  A    between atoms: C_14  and  N_15
REMARK    4  A    between atoms: N_15  and  C_16
REMARK    5  A    between atoms: C_16  and  C_17
REMARK    6  A    between atoms: C_17  and  O_18
REMARK                            x       y       z     vdW  Elec       q    Type
REMARK                         _______ _______ _______ _____ _____    ______ ____
ROOT
ATOM      1  C   UNL     1      -2.461  12.951  22.592  0.00  0.00    +0.000 A 
ATOM      2  C   UNL     1      -1.377  12.064  22.564  0.00  0.00    +0.000 A 
ATOM      3  C   UNL     1      -0.984  11.470  21.380  0.00  0.00    +0.000 A 
ATOM      4  C   UNL     1      -1.794  11.585  20.253  0.00  0.00    +0.000 A 
ATOM      5  C   UNL     1      -2.980  12.347  20.278  0.00  0.00    +0.000 A 
ATOM      6  C   UNL     1      -3.306  13.120  21.443  0.00  0.00    +0.000 A 
ATOM      7  C   UNL     1      -3.889  12.152  19.107  0.00  0.00    +0.000 C 
ATOM      8  O   UNL     1      -5.087  12.401  19.149  0.00  0.00    +0.000 OA
ATOM      9  C   UNL     1      -3.416  11.478  17.881  0.00  0.00    +0.000 A 
ATOM     10  C   UNL     1      -4.223  11.462  16.735  0.00  0.00    +0.000 A 
ATOM     11  C   UNL     1      -3.872  10.674  15.638  0.00  0.00    +0.000 A 
ATOM     12  C   UNL     1      -2.716   9.898  15.679  0.00  0.00    +0.000 A 
ATOM     13  C   UNL     1      -1.887   9.947  16.799  0.00  0.00    +0.000 A 
ATOM     14  C   UNL     1      -2.236  10.751  17.893  0.00  0.00    +0.000 A 
ATOM     15  C   UNL     1      -1.374  10.796  19.074  0.00  0.00    +0.000 C 
ATOM     16  O   UNL     1      -0.311  10.185  19.077  0.00  0.00    +0.000 OA
ENDROOT
BRANCH   1  23
ATOM     17  C   UNL     1      -2.441  17.112  22.225  0.00  0.00    +0.000 C 
ATOM     18  C   UNL     1      -1.250  16.974  23.180  0.00  0.00    +0.000 C 
ATOM     19  C   UNL     1      -1.470  17.677  24.521  0.00  0.00    +0.000 C 
ATOM     20  C   UNL     1      -2.526  16.967  25.368  0.00  0.00    +0.000 C 
ATOM     21  C   UNL     1      -2.231  15.472  25.514  0.00  0.00    +0.000 C 
ATOM     22  N   UNL     1      -1.992  14.836  24.217  0.00  0.00    +0.000 N 
ATOM     23  C   UNL     1      -2.728  13.673  23.882  0.00  0.00    +0.000 C 
ATOM     24  O   UNL     1      -3.584  13.204  24.623  0.00  0.00    +0.000 OA
ATOM     25  C   UNL     1      -0.953  15.497  23.409  0.00  0.00    +0.000 C 
ENDBRANCH   1  23
BRANCH   6  26
ATOM     26  N   UNL     1      -4.350  14.048  21.560  0.00  0.00    +0.000 N 
ATOM     27  H   UNL     1      -3.994  14.970  21.848  0.00  0.00    +0.000 HD
BRANCH  26  28
ATOM     28  C   UNL     1      -5.712  13.755  22.007  0.00  0.00    +0.000 C 
BRANCH  28  29
ATOM     29  C   UNL     1      -6.306  14.945  22.772  0.00  0.00    +0.000 C 
BRANCH  29  30
ATOM     30  O   UNL     1      -5.862  14.952  24.127  0.00  0.00    +0.000 OA
ATOM     31  H   UNL     1      -4.995  15.404  24.098  0.00  0.00    +0.000 HD
ENDBRANCH  29  30
ENDBRANCH  28  29
ENDBRANCH  26  28
ENDBRANCH   6  26
TORSDOF 5
ENDMDL
MODEL 9
REMARK VINA RESULT:      -7.2      6.686     10.705
REMARK  Name = 
REMARK  6 active torsions:
REMARK  status: ('A' for Active; 'I' for Inactive)
REMARK    1  A    between atoms: C_1  and  C_2
REMARK    2  A    between atoms: C_7  and  C_9
REMARK    3  A    between atoms: C_14  and  N_15
REMARK    4  A    between atoms: N_15  and  C_16
REMARK    5  A    between atoms: C_16  and  C_17
REMARK    6  A    between atoms: C_17  and  O_18
REMARK                            x       y       z     vdW  Elec       q    Type
REMARK                         _______ _______ _______ _____ _____    ______ ____
ROOT
ATOM      1  C   UNL     1      -2.423  13.158  22.693  0.00  0.00    +0.000 A 
ATOM      2  C   UNL     1      -1.303  12.317  22.665  0.00  0.00    +0.000 A 
ATOM      3  C   UNL     1      -0.909  11.710  21.488  0.00  0.00    +0.000 A 
ATOM      4  C   UNL     1      -1.746  11.760  20.376  0.00  0.00    +0.000 A 
ATOM      5  C   UNL     1      -2.962  12.472  20.407  0.00  0.00    +0.000 A 
ATOM      6  C   UNL     1      -3.297  13.261  21.559  0.00  0.00    +0.000 A 
ATOM      7  C   UNL     1      -3.886  12.209  19.261  0.00  0.00    +0.000 C 
ATOM      8  O   UNL     1      -5.092  12.408  19.323  0.00  0.00    +0.000 OA
ATOM      9  C   UNL     1      -3.410  11.522  18.043  0.00  0.00    +0.000 A 
ATOM     10  C   UNL     1      -4.238  11.443  16.915  0.00  0.00    +0.000 A 
ATOM     11  C   UNL     1      -3.876  10.641  15.831  0.00  0.00    +0.000 A 
ATOM     12  C   UNL     1      -2.687   9.916  15.867  0.00  0.00    +0.000 A 
ATOM     13  C   UNL     1      -1.839  10.030  16.968  0.00  0.00    +0.000 A 
ATOM     14  C   UNL     1      -2.199  10.847  18.048  0.00  0.00    +0.000 A 
ATOM     15  C   UNL     1      -1.317  10.960  19.209  0.00  0.00    +0.000 C 
ATOM     16  O   UNL     1      -0.229  10.394  19.204  0.00  0.00    +0.000 OA
ENDROOT
BRANCH   1  23
ATOM     17  C   UNL     1      -1.759  17.273  22.416  0.00  0.00    +0.000 C 
ATOM     18  C   UNL     1      -0.691  16.952  23.468  0.00  0.00    +0.000 C 
ATOM     19  C   UNL     1      -0.924  17.670  24.799  0.00  0.00    +0.000 C 
ATOM     20  C   UNL     1      -2.144  17.118  25.536  0.00  0.00    +0.000 C 
ATOM     21  C   UNL     1      -2.086  15.594  25.676  0.00  0.00    +0.000 C 
ATOM     22  N   UNL     1      -1.828  14.940  24.392  0.00  0.00    +0.000 N 
ATOM     23  C   UNL     1      -2.695  13.902  23.970  0.00  0.00    +0.000 C 
ATOM     24  O   UNL     1      -3.673  13.559  24.624  0.00  0.00    +0.000 OA
ATOM     25  C   UNL     1      -0.636  15.446  23.691  0.00  0.00    +0.000 C 
ENDBRANCH   1  23
BRANCH   6  26
ATOM     26  N   UNL     1      -4.377  14.147  21.675  0.00  0.00    +0.000 N 
ATOM     27  H   UNL     1      -5.266  13.637  21.766  0.00  0.00    +0.000 HD
BRANCH  26  28
ATOM     28  C   UNL     1      -4.489  15.452  21.023  0.00  0.00    +0.000 C 
BRANCH  28  29
ATOM     29  C   UNL     1      -5.863  15.618  20.360  0.00  0.00    +0.000 C 
BRANCH  29  30
ATOM     30  O   UNL     1      -5.818  15.227  18.990  0.00  0.00    +0.000 OA
ATOM     31  H   UNL     1      -5.983  14.262  19.006  0.00  0.00    +0.000 HD
ENDBRANCH  29  30
ENDBRANCH  28  29
ENDBRANCH  26  28
ENDBRANCH   6  26
TORSDOF 5
ENDMDL
