MODEL 1
REMARK VINA RESULT:      -7.8      0.000      0.000
REMARK  Name = 
REMARK  7 active torsions:
REMARK  status: ('A' for Active; 'I' for Inactive)
REMARK    1  A    between atoms: C_1  and  C_2
REMARK    2  A    between atoms: C_2  and  N_3
REMARK    3  A    between atoms: C_10  and  N_11
REMARK    4  A    between atoms: N_11  and  C_12
REMARK    5  A    between atoms: N_11  and  C_14
REMARK    6  A    between atoms: C_12  and  C_13
REMARK    7  A    between atoms: C_14  and  C_15
REMARK                            x       y       z     vdW  Elec       q    Type
REMARK                         _______ _______ _______ _____ _____    ______ ____
ROOT
ATOM      1  N   UNL     1       4.544   5.525  16.734  0.00  0.00    +0.000 NA
ATOM      2  C   UNL     1       3.773   5.815  17.753  0.00  0.00    +0.000 A 
ATOM      3  C   UNL     1       3.260   7.140  17.772  0.00  0.00    +0.000 A 
ATOM      4  C   UNL     1       2.443   7.611  18.805  0.00  0.00    +0.000 A 
ATOM      5  O   UNL     1       1.965   8.859  18.820  0.00  0.00    +0.000 OA
ATOM      6  C   UNL     1       1.200   9.317  19.822  0.00  0.00    +0.000 A 
ATOM      7  C   UNL     1       0.719  10.639  19.811  0.00  0.00    +0.000 A 
ATOM      8  C   UNL     1      -0.075  11.158  20.880  0.00  0.00    +0.000 A 
ATOM      9  C   UNL     1      -0.373  10.273  21.949  0.00  0.00    +0.000 A 
ATOM     10  C   UNL     1       0.096   8.955  21.955  0.00  0.00    +0.000 A 
ATOM     11  C   UNL     1       0.878   8.476  20.903  0.00  0.00    +0.000 A 
ATOM     12  N   UNL     1       1.333   7.196  20.918  0.00  0.00    +0.000 NA
ATOM     13  C   UNL     1       2.110   6.716  19.913  0.00  0.00    +0.000 A 
ATOM     14  C   UNL     1       2.583   5.395  19.914  0.00  0.00    +0.000 A 
ATOM     15  C   UNL     1       2.225   4.545  20.986  0.00  0.00    +0.000 A 
ATOM     16  C   UNL     1       2.661   3.232  21.032  0.00  0.00    +0.000 A 
ATOM     17  C   UNL     1       3.459   2.736  20.023  0.00  0.00    +0.000 A 
ATOM     18  C   UNL     1       3.830   3.549  18.955  0.00  0.00    +0.000 A 
ATOM     19  C   UNL     1       3.415   4.912  18.846  0.00  0.00    +0.000 A 
ENDROOT
BRANCH   1  21
ATOM     20  C   UNL     1       6.754   4.374  16.493  0.00  0.00    +0.000 C 
ATOM     21  C   UNL     1       5.234   4.281  16.429  0.00  0.00    +0.000 C 
ENDBRANCH   1  21
BRANCH   8  22
ATOM     22  N   UNL     1      -0.549  12.537  20.898  0.00  0.00    +0.000 N 
BRANCH  22  23
ATOM     23  C   UNL     1      -0.127  13.434  21.994  0.00  0.00    +0.000 C 
ATOM     24  C   UNL     1      -1.143  13.655  23.130  0.00  0.00    +0.000 C 
ENDBRANCH  22  23
BRANCH  22  25
ATOM     25  C   UNL     1      -1.428  13.028  19.830  0.00  0.00    +0.000 C 
ATOM     26  C   UNL     1      -2.818  12.406  19.935  0.00  0.00    +0.000 C 
ENDBRANCH  22  25
ENDBRANCH   8  22
TORSDOF 4
ENDMDL
MODEL 2
REMARK VINA RESULT:      -7.8      1.313      8.163
REMARK  Name = 
REMARK  7 active torsions:
REMARK  status: ('A' for Active; 'I' for Inactive)
REMARK    1  A    between atoms: C_1  and  C_2
REMARK    2  A    between atoms: C_2  and  N_3
REMARK    3  A    between atoms: C_10  and  N_11
REMARK    4  A    between atoms: N_11  and  C_12
REMARK    5  A    between atoms: N_11  and  C_14
REMARK    6  A    between atoms: C_12  and  C_13
REMARK    7  A    between atoms: C_14  and  C_15
REMARK                            x       y       z     vdW  Elec       q    Type
REMARK                         _______ _______ _______ _____ _____    ______ ____
ROOT
ATOM      1  N   UNL     1       0.260  12.656  18.649  0.00  0.00    +0.000 NA
ATOM      2  C   UNL     1       0.459  11.523  19.278  0.00  0.00    +0.000 A 
ATOM      3  C   UNL     1       1.196  10.547  18.554  0.00  0.00    +0.000 A 
ATOM      4  C   UNL     1       1.470   9.280  19.077  0.00  0.00    +0.000 A 
ATOM      5  O   UNL     1       2.162   8.363  18.393  0.00  0.00    +0.000 OA
ATOM      6  C   UNL     1       2.405   7.140  18.885  0.00  0.00    +0.000 A 
ATOM      7  C   UNL     1       3.130   6.195  18.135  0.00  0.00    +0.000 A 
ATOM      8  C   UNL     1       3.379   4.876  18.628  0.00  0.00    +0.000 A 
ATOM      9  C   UNL     1       2.877   4.566  19.918  0.00  0.00    +0.000 A 
ATOM     10  C   UNL     1       2.166   5.508  20.668  0.00  0.00    +0.000 A 
ATOM     11  C   UNL     1       1.927   6.786  20.161  0.00  0.00    +0.000 A 
ATOM     12  N   UNL     1       1.232   7.694  20.893  0.00  0.00    +0.000 NA
ATOM     13  C   UNL     1       0.975   8.937  20.410  0.00  0.00    +0.000 A 
ATOM     14  C   UNL     1       0.262   9.885  21.159  0.00  0.00    +0.000 A 
ATOM     15  C   UNL     1      -0.184   9.535  22.453  0.00  0.00    +0.000 A 
ATOM     16  C   UNL     1      -0.887  10.435  23.235  0.00  0.00    +0.000 A 
ATOM     17  C   UNL     1      -1.164  11.697  22.751  0.00  0.00    +0.000 A 
ATOM     18  C   UNL     1      -0.739  12.072  21.478  0.00  0.00    +0.000 A 
ATOM     19  C   UNL     1      -0.010  11.191  20.621  0.00  0.00    +0.000 A 
ENDROOT
BRANCH   1  21
ATOM     20  C   UNL     1       0.422  15.053  19.354  0.00  0.00    +0.000 C 
ATOM     21  C   UNL     1      -0.461  13.839  19.094  0.00  0.00    +0.000 C 
ENDBRANCH   1  21
BRANCH   8  22
ATOM     22  N   UNL     1       4.098   3.878  17.845  0.00  0.00    +0.000 N 
BRANCH  22  23
ATOM     23  C   UNL     1       3.426   2.607  17.501  0.00  0.00    +0.000 C 
ATOM     24  C   UNL     1       3.651   1.428  18.466  0.00  0.00    +0.000 C 
ENDBRANCH  22  23
BRANCH  22  25
ATOM     25  C   UNL     1       5.471   4.140  17.397  0.00  0.00    +0.000 C 
ATOM     26  C   UNL     1       5.573   4.079  15.875  0.00  0.00    +0.000 C 
ENDBRANCH  22  25
ENDBRANCH   8  22
TORSDOF 4
ENDMDL
MODEL 3
REMARK VINA RESULT:      -7.7      1.389      8.138
REMARK  Name = 
REMARK  7 active torsions:
REMARK  status: ('A' for Active; 'I' for Inactive)
REMARK    1  A    between atoms: C_1  and  C_2
REMARK    2  A    between atoms: C_2  and  N_3
REMARK    3  A    between atoms: C_10  and  N_11
REMARK    4  A    between atoms: N_11  and  C_12
REMARK    5  A    between atoms: N_11  and  C_14
REMARK    6  A    between atoms: C_12  and  C_13
REMARK    7  A    between atoms: C_14  and  C_15
REMARK                            x       y       z     vdW  Elec       q    Type
REMARK                         _______ _______ _______ _____ _____    ______ ____
ROOT
ATOM      1  N   UNL     1       0.578  12.768  18.678  0.00  0.00    +0.000 NA
ATOM      2  C   UNL     1       0.683  11.617  19.296  0.00  0.00    +0.000 A 
ATOM      3  C   UNL     1       1.376  10.604  18.581  0.00  0.00    +0.000 A 
ATOM      4  C   UNL     1       1.551   9.315  19.093  0.00  0.00    +0.000 A 
ATOM      5  O   UNL     1       2.203   8.363  18.418  0.00  0.00    +0.000 OA
ATOM      6  C   UNL     1       2.350   7.120  18.899  0.00  0.00    +0.000 A 
ATOM      7  C   UNL     1       3.035   6.140  18.158  0.00  0.00    +0.000 A 
ATOM      8  C   UNL     1       3.182   4.801  18.639  0.00  0.00    +0.000 A 
ATOM      9  C   UNL     1       2.620   4.509  19.908  0.00  0.00    +0.000 A 
ATOM     10  C   UNL     1       1.949   5.486  20.650  0.00  0.00    +0.000 A 
ATOM     11  C   UNL     1       1.810   6.783  20.154  0.00  0.00    +0.000 A 
ATOM     12  N   UNL     1       1.154   7.726  20.878  0.00  0.00    +0.000 NA
ATOM     13  C   UNL     1       0.993   8.989  20.406  0.00  0.00    +0.000 A 
ATOM     14  C   UNL     1       0.321   9.972  21.146  0.00  0.00    +0.000 A 
ATOM     15  C   UNL     1      -0.188   9.636  22.421  0.00  0.00    +0.000 A 
ATOM     16  C   UNL     1      -0.855  10.571  23.194  0.00  0.00    +0.000 A 
ATOM     17  C   UNL     1      -1.033  11.854  22.721  0.00  0.00    +0.000 A 
ATOM     18  C   UNL     1      -0.545  12.216  21.467  0.00  0.00    +0.000 A 
ATOM     19  C   UNL     1       0.151  11.300  20.620  0.00  0.00    +0.000 A 
ENDROOT
BRANCH   1  21
ATOM     20  C   UNL     1       0.877  15.115  19.496  0.00  0.00    +0.000 C 
ATOM     21  C   UNL     1      -0.078  13.990  19.118  0.00  0.00    +0.000 C 
ENDBRANCH   1  21
BRANCH   8  22
ATOM     22  N   UNL     1       3.857   3.767  17.863  0.00  0.00    +0.000 N 
BRANCH  22  23
ATOM     23  C   UNL     1       5.226   4.016  17.363  0.00  0.00    +0.000 C 
ATOM     24  C   UNL     1       5.369   4.267  15.851  0.00  0.00    +0.000 C 
ENDBRANCH  22  23
BRANCH  22  25
ATOM     25  C   UNL     1       3.185   2.492  17.592  0.00  0.00    +0.000 C 
ATOM     26  C   UNL     1       3.709   1.389  18.508  0.00  0.00    +0.000 C 
ENDBRANCH  22  25
ENDBRANCH   8  22
TORSDOF 4
ENDMDL
MODEL 4
REMARK VINA RESULT:      -7.7      0.548      1.367
REMARK  Name = 
REMARK  7 active torsions:
REMARK  status: ('A' for Active; 'I' for Inactive)
REMARK    1  A    between atoms: C_1  and  C_2
REMARK    2  A    between atoms: C_2  and  N_3
REMARK    3  A    between atoms: C_10  and  N_11
REMARK    4  A    between atoms: N_11  and  C_12
REMARK    5  A    between atoms: N_11  and  C_14
REMARK    6  A    between atoms: C_12  and  C_13
REMARK    7  A    between atoms: C_14  and  C_15
REMARK                            x       y       z     vdW  Elec       q    Type
REMARK                         _______ _______ _______ _____ _____    ______ ____
ROOT
ATOM      1  N   UNL     1       4.784   5.370  16.738  0.00  0.00    +0.000 NA
ATOM      2  C   UNL     1       3.980   5.649  17.735  0.00  0.00    +0.000 A 
ATOM      3  C   UNL     1       3.460   6.971  17.745  0.00  0.00    +0.000 A 
ATOM      4  C   UNL     1       2.608   7.431  18.754  0.00  0.00    +0.000 A 
ATOM      5  O   UNL     1       2.122   8.677  18.763  0.00  0.00    +0.000 OA
ATOM      6  C   UNL     1       1.324   9.124  19.742  0.00  0.00    +0.000 A 
ATOM      7  C   UNL     1       0.836  10.444  19.725  0.00  0.00    +0.000 A 
ATOM      8  C   UNL     1       0.006  10.952  20.771  0.00  0.00    +0.000 A 
ATOM      9  C   UNL     1      -0.320  10.059  21.825  0.00  0.00    +0.000 A 
ATOM     10  C   UNL     1       0.156   8.744  21.837  0.00  0.00    +0.000 A 
ATOM     11  C   UNL     1       0.973   8.275  20.808  0.00  0.00    +0.000 A 
ATOM     12  N   UNL     1       1.435   6.998  20.829  0.00  0.00    +0.000 NA
ATOM     13  C   UNL     1       2.246   6.528  19.846  0.00  0.00    +0.000 A 
ATOM     14  C   UNL     1       2.725   5.209  19.855  0.00  0.00    +0.000 A 
ATOM     15  C   UNL     1       2.340   4.352  20.909  0.00  0.00    +0.000 A 
ATOM     16  C   UNL     1       2.782   3.041  20.962  0.00  0.00    +0.000 A 
ATOM     17  C   UNL     1       3.613   2.555  19.975  0.00  0.00    +0.000 A 
ATOM     18  C   UNL     1       4.013   3.377  18.924  0.00  0.00    +0.000 A 
ATOM     19  C   UNL     1       3.593   4.738  18.810  0.00  0.00    +0.000 A 
ENDROOT
BRANCH   1  21
ATOM     20  C   UNL     1       5.922   3.981  14.994  0.00  0.00    +0.000 C 
ATOM     21  C   UNL     1       5.490   4.132  16.448  0.00  0.00    +0.000 C 
ENDBRANCH   1  21
BRANCH   8  22
ATOM     22  N   UNL     1      -0.476  12.328  20.782  0.00  0.00    +0.000 N 
BRANCH  22  23
ATOM     23  C   UNL     1      -1.163  12.864  19.588  0.00  0.00    +0.000 C 
ATOM     24  C   UNL     1      -0.319  13.741  18.645  0.00  0.00    +0.000 C 
ENDBRANCH  22  23
BRANCH  22  25
ATOM     25  C   UNL     1      -0.285  13.167  21.971  0.00  0.00    +0.000 C 
ATOM     26  C   UNL     1      -1.593  13.331  22.742  0.00  0.00    +0.000 C 
ENDBRANCH  22  25
ENDBRANCH   8  22
TORSDOF 4
ENDMDL
MODEL 5
REMARK VINA RESULT:      -7.6      1.563      3.073
REMARK  Name = 
REMARK  7 active torsions:
REMARK  status: ('A' for Active; 'I' for Inactive)
REMARK    1  A    between atoms: C_1  and  C_2
REMARK    2  A    between atoms: C_2  and  N_3
REMARK    3  A    between atoms: C_10  and  N_11
REMARK    4  A    between atoms: N_11  and  C_12
REMARK    5  A    between atoms: N_11  and  C_14
REMARK    6  A    between atoms: C_12  and  C_13
REMARK    7  A    between atoms: C_14  and  C_15
REMARK                            x       y       z     vdW  Elec       q    Type
REMARK                         _______ _______ _______ _____ _____    ______ ____
ROOT
ATOM      1  N   UNL     1       3.435   3.449  19.959  0.00  0.00    +0.000 NA
ATOM      2  C   UNL     1       3.359   4.637  19.413  0.00  0.00    +0.000 A 
ATOM      3  C   UNL     1       2.524   5.566  20.091  0.00  0.00    +0.000 A 
ATOM      4  C   UNL     1       2.318   6.867  19.622  0.00  0.00    +0.000 A 
ATOM      5  O   UNL     1       1.530   7.737  20.261  0.00  0.00    +0.000 OA
ATOM      6  C   UNL     1       1.315   8.977  19.799  0.00  0.00    +0.000 A 
ATOM      7  C   UNL     1       0.473   9.866  20.492  0.00  0.00    +0.000 A 
ATOM      8  C   UNL     1       0.207  11.184  20.005  0.00  0.00    +0.000 A 
ATOM      9  C   UNL     1       0.845  11.563  18.796  0.00  0.00    +0.000 A 
ATOM     10  C   UNL     1       1.691  10.684  18.112  0.00  0.00    +0.000 A 
ATOM     11  C   UNL     1       1.926   9.399  18.603  0.00  0.00    +0.000 A 
ATOM     12  N   UNL     1       2.745   8.549  17.932  0.00  0.00    +0.000 NA
ATOM     13  C   UNL     1       2.973   7.289  18.384  0.00  0.00    +0.000 A 
ATOM     14  C   UNL     1       3.821   6.403  17.701  0.00  0.00    +0.000 A 
ATOM     15  C   UNL     1       4.459   6.846  16.521  0.00  0.00    +0.000 A 
ATOM     16  C   UNL     1       5.308   6.013  15.813  0.00  0.00    +0.000 A 
ATOM     17  C   UNL     1       5.540   4.728  16.256  0.00  0.00    +0.000 A 
ATOM     18  C   UNL     1       4.924   4.262  17.415  0.00  0.00    +0.000 A 
ATOM     19  C   UNL     1       4.037   5.069  18.193  0.00  0.00    +0.000 A 
ENDROOT
BRANCH   1  21
ATOM     20  C   UNL     1       3.443   1.421  18.490  0.00  0.00    +0.000 C 
ATOM     21  C   UNL     1       4.177   2.279  19.513  0.00  0.00    +0.000 C 
ENDBRANCH   1  21
BRANCH   8  22
ATOM     22  N   UNL     1      -0.692  12.100  20.696  0.00  0.00    +0.000 N 
BRANCH  22  23
ATOM     23  C   UNL     1      -0.592  12.243  22.164  0.00  0.00    +0.000 C 
ATOM     24  C   UNL     1      -1.580  11.413  23.004  0.00  0.00    +0.000 C 
ENDBRANCH  22  23
BRANCH  22  25
ATOM     25  C   UNL     1      -1.679  12.877  19.937  0.00  0.00    +0.000 C 
ATOM     26  C   UNL     1      -2.694  11.961  19.258  0.00  0.00    +0.000 C 
ENDBRANCH  22  25
ENDBRANCH   8  22
TORSDOF 4
ENDMDL
MODEL 6
REMARK VINA RESULT:      -7.6      0.647      1.387
REMARK  Name = 
REMARK  7 active torsions:
REMARK  status: ('A' for Active; 'I' for Inactive)
REMARK    1  A    between atoms: C_1  and  C_2
REMARK    2  A    between atoms: C_2  and  N_3
REMARK    3  A    between atoms: C_10  and  N_11
REMARK    4  A    between atoms: N_11  and  C_12
REMARK    5  A    between atoms: N_11  and  C_14
REMARK    6  A    between atoms: C_12  and  C_13
REMARK    7  A    between atoms: C_14  and  C_15
REMARK                            x       y       z     vdW  Elec       q    Type
REMARK                         _______ _______ _______ _____ _____    ______ ____
ROOT
ATOM      1  N   UNL     1       4.287   5.289  16.861  0.00  0.00    +0.000 NA
ATOM      2  C   UNL     1       3.562   5.620  17.901  0.00  0.00    +0.000 A 
ATOM      3  C   UNL     1       3.089   6.960  17.911  0.00  0.00    +0.000 A 
ATOM      4  C   UNL     1       2.324   7.474  18.963  0.00  0.00    +0.000 A 
ATOM      5  O   UNL     1       1.883   8.737  18.971  0.00  0.00    +0.000 OA
ATOM      6  C   UNL     1       1.169   9.236  19.989  0.00  0.00    +0.000 A 
ATOM      7  C   UNL     1       0.726  10.571  19.970  0.00  0.00    +0.000 A 
ATOM      8  C   UNL     1      -0.014  11.134  21.056  0.00  0.00    +0.000 A 
ATOM      9  C   UNL     1      -0.299  10.278  22.151  0.00  0.00    +0.000 A 
ATOM     10  C   UNL     1       0.131   8.947  22.166  0.00  0.00    +0.000 A 
ATOM     11  C   UNL     1       0.861   8.425  21.098  0.00  0.00    +0.000 A 
ATOM     12  N   UNL     1       1.279   7.133  21.121  0.00  0.00    +0.000 NA
ATOM     13  C   UNL     1       2.005   6.610  20.099  0.00  0.00    +0.000 A 
ATOM     14  C   UNL     1       2.438   5.276  20.110  0.00  0.00    +0.000 A 
ATOM     15  C   UNL     1       2.095   4.458  21.210  0.00  0.00    +0.000 A 
ATOM     16  C   UNL     1       2.494   3.134  21.267  0.00  0.00    +0.000 A 
ATOM     17  C   UNL     1       3.240   2.595  20.240  0.00  0.00    +0.000 A 
ATOM     18  C   UNL     1       3.596   3.376  19.143  0.00  0.00    +0.000 A 
ATOM     19  C   UNL     1       3.217   4.749  19.022  0.00  0.00    +0.000 A 
ENDROOT
BRANCH   1  21
ATOM     20  C   UNL     1       6.117   4.128  15.607  0.00  0.00    +0.000 C 
ATOM     21  C   UNL     1       4.929   4.020  16.556  0.00  0.00    +0.000 C 
ENDBRANCH   1  21
BRANCH   8  22
ATOM     22  N   UNL     1      -0.446  12.526  21.063  0.00  0.00    +0.000 N 
BRANCH  22  23
ATOM     23  C   UNL     1      -1.854  12.849  20.751  0.00  0.00    +0.000 C 
ATOM     24  C   UNL     1      -2.420  12.261  19.445  0.00  0.00    +0.000 C 
ENDBRANCH  22  23
BRANCH  22  25
ATOM     25  C   UNL     1       0.509  13.593  21.385  0.00  0.00    +0.000 C 
ATOM     26  C   UNL     1       1.117  14.186  20.116  0.00  0.00    +0.000 C 
ENDBRANCH  22  25
ENDBRANCH   8  22
TORSDOF 4
ENDMDL
MODEL 7
REMARK VINA RESULT:      -7.6      1.503      3.242
REMARK  Name = 
REMARK  7 active torsions:
REMARK  status: ('A' for Active; 'I' for Inactive)
REMARK    1  A    between atoms: C_1  and  C_2
REMARK    2  A    between atoms: C_2  and  N_3
REMARK    3  A    between atoms: C_10  and  N_11
REMARK    4  A    between atoms: N_11  and  C_12
REMARK    5  A    between atoms: N_11  and  C_14
REMARK    6  A    between atoms: C_12  and  C_13
REMARK    7  A    between atoms: C_14  and  C_15
REMARK                            x       y       z     vdW  Elec       q    Type
REMARK                         _______ _______ _______ _____ _____    ______ ____
ROOT
ATOM      1  N   UNL     1       3.486   3.378  20.014  0.00  0.00    +0.000 NA
ATOM      2  C   UNL     1       3.358   4.577  19.500  0.00  0.00    +0.000 A 
ATOM      3  C   UNL     1       2.508   5.459  20.219  0.00  0.00    +0.000 A 
ATOM      4  C   UNL     1       2.249   6.764  19.788  0.00  0.00    +0.000 A 
ATOM      5  O   UNL     1       1.446   7.591  20.465  0.00  0.00    +0.000 OA
ATOM      6  C   UNL     1       1.180   8.834  20.039  0.00  0.00    +0.000 A 
ATOM      7  C   UNL     1       0.325   9.677  20.773  0.00  0.00    +0.000 A 
ATOM      8  C   UNL     1       0.005  10.996  20.325  0.00  0.00    +0.000 A 
ATOM      9  C   UNL     1       0.604  11.427  19.113  0.00  0.00    +0.000 A 
ATOM     10  C   UNL     1       1.463  10.594  18.390  0.00  0.00    +0.000 A 
ATOM     11  C   UNL     1       1.752   9.306  18.843  0.00  0.00    +0.000 A 
ATOM     12  N   UNL     1       2.584   8.501  18.133  0.00  0.00    +0.000 NA
ATOM     13  C   UNL     1       2.863   7.238  18.548  0.00  0.00    +0.000 A 
ATOM     14  C   UNL     1       3.725   6.399  17.825  0.00  0.00    +0.000 A 
ATOM     15  C   UNL     1       4.323   6.893  16.644  0.00  0.00    +0.000 A 
ATOM     16  C   UNL     1       5.183   6.107  15.897  0.00  0.00    +0.000 A 
ATOM     17  C   UNL     1       5.467   4.820  16.303  0.00  0.00    +0.000 A 
ATOM     18  C   UNL     1       4.892   4.304  17.462  0.00  0.00    +0.000 A 
ATOM     19  C   UNL     1       3.996   5.061  18.278  0.00  0.00    +0.000 A 
ENDROOT
BRANCH   1  21
ATOM     20  C   UNL     1       3.516   1.369  18.520  0.00  0.00    +0.000 C 
ATOM     21  C   UNL     1       4.257   2.246  19.523  0.00  0.00    +0.000 C 
ENDBRANCH   1  21
BRANCH   8  22
ATOM     22  N   UNL     1      -0.909  11.865  21.058  0.00  0.00    +0.000 N 
BRANCH  22  23
ATOM     23  C   UNL     1      -1.718  12.855  20.316  0.00  0.00    +0.000 C 
ATOM     24  C   UNL     1      -3.051  12.353  19.732  0.00  0.00    +0.000 C 
ENDBRANCH  22  23
BRANCH  22  25
ATOM     25  C   UNL     1      -1.027  11.748  22.516  0.00  0.00    +0.000 C 
ATOM     26  C   UNL     1      -1.351  13.098  23.150  0.00  0.00    +0.000 C 
ENDBRANCH  22  25
ENDBRANCH   8  22
TORSDOF 4
ENDMDL
MODEL 8
REMARK VINA RESULT:      -7.5      1.555      8.201
REMARK  Name = 
REMARK  7 active torsions:
REMARK  status: ('A' for Active; 'I' for Inactive)
REMARK    1  A    between atoms: C_1  and  C_2
REMARK    2  A    between atoms: C_2  and  N_3
REMARK    3  A    between atoms: C_10  and  N_11
REMARK    4  A    between atoms: N_11  and  C_12
REMARK    5  A    between atoms: N_11  and  C_14
REMARK    6  A    between atoms: C_12  and  C_13
REMARK    7  A    between atoms: C_14  and  C_15
REMARK                            x       y       z     vdW  Elec       q    Type
REMARK                         _______ _______ _______ _____ _____    ______ ____
ROOT
ATOM      1  N   UNL     1      -0.107  12.212  18.530  0.00  0.00    +0.000 NA
ATOM      2  C   UNL     1       0.382  11.103  19.029  0.00  0.00    +0.000 A 
ATOM      3  C   UNL     1       1.282  10.400  18.184  0.00  0.00    +0.000 A 
ATOM      4  C   UNL     1       1.870   9.189  18.562  0.00  0.00    +0.000 A 
ATOM      5  O   UNL     1       2.715   8.528  17.763  0.00  0.00    +0.000 OA
ATOM      6  C   UNL     1       3.260   7.356  18.116  0.00  0.00    +0.000 A 
ATOM      7  C   UNL     1       4.140   6.683  17.248  0.00  0.00    +0.000 A 
ATOM      8  C   UNL     1       4.713   5.419  17.591  0.00  0.00    +0.000 A 
ATOM      9  C   UNL     1       4.368   4.879  18.857  0.00  0.00    +0.000 A 
ATOM     10  C   UNL     1       3.503   5.553  19.725  0.00  0.00    +0.000 A 
ATOM     11  C   UNL     1       2.949   6.781  19.362  0.00  0.00    +0.000 A 
ATOM     12  N   UNL     1       2.105   7.427  20.208  0.00  0.00    +0.000 NA
ATOM     13  C   UNL     1       1.542   8.615  19.867  0.00  0.00    +0.000 A 
ATOM     14  C   UNL     1       0.673   9.294  20.734  0.00  0.00    +0.000 A 
ATOM     15  C   UNL     1       0.393   8.728  21.998  0.00  0.00    +0.000 A 
ATOM     16  C   UNL     1      -0.454   9.360  22.892  0.00  0.00    +0.000 A 
ATOM     17  C   UNL     1      -1.040  10.561  22.553  0.00  0.00    +0.000 A 
ATOM     18  C   UNL     1      -0.785  11.144  21.313  0.00  0.00    +0.000 A 
ATOM     19  C   UNL     1       0.078  10.545  20.345  0.00  0.00    +0.000 A 
ENDROOT
BRANCH   1  21
ATOM     20  C   UNL     1      -0.448  14.478  19.538  0.00  0.00    +0.000 C 
ATOM     21  C   UNL     1      -1.055  13.144  19.120  0.00  0.00    +0.000 C 
ENDBRANCH   1  21
BRANCH   8  22
ATOM     22  N   UNL     1       5.597   4.696  16.685  0.00  0.00    +0.000 N 
BRANCH  22  23
ATOM     23  C   UNL     1       5.059   4.178  15.409  0.00  0.00    +0.000 C 
ATOM     24  C   UNL     1       6.059   4.046  14.245  0.00  0.00    +0.000 C 
ENDBRANCH  22  23
BRANCH  22  25
ATOM     25  C   UNL     1       7.007   4.493  17.036  0.00  0.00    +0.000 C 
ATOM     26  C   UNL     1       7.541   5.662  17.860  0.00  0.00    +0.000 C 
ENDBRANCH  22  25
ENDBRANCH   8  22
TORSDOF 4
ENDMDL
MODEL 9
REMARK VINA RESULT:      -7.5      1.543      8.142
REMARK  Name = 
REMARK  7 active torsions:
REMARK  status: ('A' for Active; 'I' for Inactive)
REMARK    1  A    between atoms: C_1  and  C_2
REMARK    2  A    between atoms: C_2  and  N_3
REMARK    3  A    between atoms: C_10  and  N_11
REMARK    4  A    between atoms: N_11  and  C_12
REMARK    5  A    between atoms: N_11  and  C_14
REMARK    6  A    between atoms: C_12  and  C_13
REMARK    7  A    between atoms: C_14  and  C_15
REMARK                            x       y       z     vdW  Elec       q    Type
REMARK                         _______ _______ _______ _____ _____    ______ ____
ROOT
ATOM      1  N   UNL     1      -0.277  12.260  18.594  0.00  0.00    +0.000 NA
ATOM      2  C   UNL     1       0.250  11.162  19.077  0.00  0.00    +0.000 A 
ATOM      3  C   UNL     1       1.114  10.462  18.194  0.00  0.00    +0.000 A 
ATOM      4  C   UNL     1       1.735   9.260  18.551  0.00  0.00    +0.000 A 
ATOM      5  O   UNL     1       2.546   8.602  17.717  0.00  0.00    +0.000 OA
ATOM      6  C   UNL     1       3.122   7.439  18.052  0.00  0.00    +0.000 A 
ATOM      7  C   UNL     1       3.964   6.768  17.146  0.00  0.00    +0.000 A 
ATOM      8  C   UNL     1       4.569   5.514  17.471  0.00  0.00    +0.000 A 
ATOM      9  C   UNL     1       4.295   4.982  18.757  0.00  0.00    +0.000 A 
ATOM     10  C   UNL     1       3.467   5.654  19.662  0.00  0.00    +0.000 A 
ATOM     11  C   UNL     1       2.881   6.872  19.317  0.00  0.00    +0.000 A 
ATOM     12  N   UNL     1       2.074   7.517  20.199  0.00  0.00    +0.000 NA
ATOM     13  C   UNL     1       1.480   8.695  19.877  0.00  0.00    +0.000 A 
ATOM     14  C   UNL     1       0.649   9.373  20.781  0.00  0.00    +0.000 A 
ATOM     15  C   UNL     1       0.440   8.816  22.062  0.00  0.00    +0.000 A 
ATOM     16  C   UNL     1      -0.368   9.447  22.993  0.00  0.00    +0.000 A 
ATOM     17  C   UNL     1      -0.984  10.638  22.673  0.00  0.00    +0.000 A 
ATOM     18  C   UNL     1      -0.800  11.212  21.417  0.00  0.00    +0.000 A 
ATOM     19  C   UNL     1       0.020  10.613  20.412  0.00  0.00    +0.000 A 
ENDROOT
BRANCH   1  21
ATOM     20  C   UNL     1      -0.579  14.511  19.647  0.00  0.00    +0.000 C 
ATOM     21  C   UNL     1      -1.204  13.188  19.223  0.00  0.00    +0.000 C 
ENDBRANCH   1  21
BRANCH   8  22
ATOM     22  N   UNL     1       5.414   4.792  16.527  0.00  0.00    +0.000 N 
BRANCH  22  23
ATOM     23  C   UNL     1       6.648   4.139  17.012  0.00  0.00    +0.000 C 
ATOM     24  C   UNL     1       7.625   5.024  17.808  0.00  0.00    +0.000 C 
ENDBRANCH  22  23
BRANCH  22  25
ATOM     25  C   UNL     1       5.035   4.709  15.112  0.00  0.00    +0.000 C 
ATOM     26  C   UNL     1       6.133   4.043  14.287  0.00  0.00    +0.000 C 
ENDBRANCH  22  25
ENDBRANCH   8  22
TORSDOF 4
ENDMDL
