MODEL 1
REMARK VINA RESULT:      -7.2      0.000      0.000
REMARK  Name = 
REMARK  13 active torsions:
REMARK  status: ('A' for Active; 'I' for Inactive)
REMARK    1  A    between atoms: C_1  and  C_2
REMARK    2  A    between atoms: N_4  and  C_5
REMARK    3  A    between atoms: C_5  and  C_6
REMARK    4  A    between atoms: C_9  and  N_10
REMARK    5  A    between atoms: C_11  and  O_13
REMARK    6  A    between atoms: O_13  and  C_14
REMARK    7  A    between atoms: C_14  and  C_15
REMARK    8  A    between atoms: C_14  and  C_16
REMARK    9  A    between atoms: C_14  and  C_17
REMARK   10  A    between atoms: C_20  and  C_21
REMARK   11  A    between atoms: C_22  and  C_23
REMARK   12  A    between atoms: C_23  and  C_24
REMARK   13  A    between atoms: C_24  and  O_26
REMARK                            x       y       z     vdW  Elec       q    Type
REMARK                         _______ _______ _______ _____ _____    ______ ____
ROOT
ATOM      1  C   UNL     1       2.222   7.880  18.778  0.00  0.00    +0.000 A 
ATOM      2  C   UNL     1       1.509   8.982  18.302  0.00  0.00    +0.000 A 
ATOM      3  C   UNL     1       0.656   9.699  19.146  0.00  0.00    +0.000 A 
ATOM      4  C   UNL     1       0.485   9.348  20.489  0.00  0.00    +0.000 A 
ATOM      5  C   UNL     1       1.268   8.306  20.994  0.00  0.00    +0.000 A 
ATOM      6  C   UNL     1       2.124   7.575  20.145  0.00  0.00    +0.000 A 
ENDROOT
BRANCH   4   7
ATOM      7  N   UNL     1      -0.433  10.018  21.338  0.00  0.00    +0.000 N 
ATOM      8  C   UNL     1      -0.171  11.196  21.998  0.00  0.00    +0.000 C 
ATOM      9  O   UNL     1       0.799  11.914  21.814  0.00  0.00    +0.000 OA
ATOM     10  H   UNL     1      -1.372   9.660  21.431  0.00  0.00    +0.000 HD
BRANCH   8  11
ATOM     11  O   UNL     1      -1.130  11.472  22.932  0.00  0.00    +0.000 OA
BRANCH  11  12
ATOM     12  C   UNL     1      -1.954  12.661  22.719  0.00  0.00    +0.000 C 
ATOM     13  C   UNL     1      -2.239  12.905  21.229  0.00  0.00    +0.000 C 
ATOM     14  C   UNL     1      -3.303  12.403  23.414  0.00  0.00    +0.000 C 
ATOM     15  C   UNL     1      -1.320  13.889  23.395  0.00  0.00    +0.000 C 
ENDBRANCH  11  12
ENDBRANCH   8  11
ENDBRANCH   4   7
BRANCH   1  16
ATOM     16  C   UNL     1       2.972   6.996  17.806  0.00  0.00    +0.000 C 
BRANCH  16  20
ATOM     17  C   UNL     1       1.027   2.623  18.517  0.00  0.00    +0.000 C 
ATOM     18  C   UNL     1       2.090   3.661  18.484  0.00  0.00    +0.000 A 
ATOM     19  N   UNL     1       1.795   4.905  18.098  0.00  0.00    +0.000 NA
ATOM     20  N   UNL     1       2.968   5.574  18.139  0.00  0.00    +0.000 N 
ATOM     21  C   UNL     1       3.975   4.819  18.698  0.00  0.00    +0.000 A 
ATOM     22  C   UNL     1       5.336   5.324  19.012  0.00  0.00    +0.000 C 
ATOM     23  C   UNL     1       3.458   3.540  18.848  0.00  0.00    +0.000 A 
BRANCH  23  24
ATOM     24  C   UNL     1       4.190   2.313  19.292  0.00  0.00    +0.000 C 
BRANCH  24  25
ATOM     25  C   UNL     1       4.271   2.068  20.783  0.00  0.00    +0.000 C 
ATOM     26  O   UNL     1       3.349   2.360  21.536  0.00  0.00    +0.000 OA
BRANCH  25  27
ATOM     27  O   UNL     1       5.402   1.511  21.259  0.00  0.00    +0.000 OA
ATOM     28  H   UNL     1       6.206   2.057  21.150  0.00  0.00    +0.000 HD
ENDBRANCH  25  27
ENDBRANCH  24  25
ENDBRANCH  23  24
ENDBRANCH  16  20
ENDBRANCH   1  16
TORSDOF 8
ENDMDL
MODEL 2
REMARK VINA RESULT:      -7.1      4.696      7.205
REMARK  Name = 
REMARK  13 active torsions:
REMARK  status: ('A' for Active; 'I' for Inactive)
REMARK    1  A    between atoms: C_1  and  C_2
REMARK    2  A    between atoms: N_4  and  C_5
REMARK    3  A    between atoms: C_5  and  C_6
REMARK    4  A    between atoms: C_9  and  N_10
REMARK    5  A    between atoms: C_11  and  O_13
REMARK    6  A    between atoms: O_13  and  C_14
REMARK    7  A    between atoms: C_14  and  C_15
REMARK    8  A    between atoms: C_14  and  C_16
REMARK    9  A    between atoms: C_14  and  C_17
REMARK   10  A    between atoms: C_20  and  C_21
REMARK   11  A    between atoms: C_22  and  C_23
REMARK   12  A    between atoms: C_23  and  C_24
REMARK   13  A    between atoms: C_24  and  O_26
REMARK                            x       y       z     vdW  Elec       q    Type
REMARK                         _______ _______ _______ _____ _____    ______ ____
ROOT
ATOM      1  C   UNL     1       5.940   5.466  17.489  0.00  0.00    +0.000 A 
ATOM      2  C   UNL     1       6.212   6.626  16.759  0.00  0.00    +0.000 A 
ATOM      3  C   UNL     1       7.180   7.534  17.197  0.00  0.00    +0.000 A 
ATOM      4  C   UNL     1       7.912   7.319  18.369  0.00  0.00    +0.000 A 
ATOM      5  C   UNL     1       7.712   6.116  19.050  0.00  0.00    +0.000 A 
ATOM      6  C   UNL     1       6.731   5.201  18.618  0.00  0.00    +0.000 A 
ENDROOT
BRANCH   4   7
ATOM      7  N   UNL     1       8.844   8.266  18.865  0.00  0.00    +0.000 N 
ATOM      8  C   UNL     1       8.838   9.606  18.555  0.00  0.00    +0.000 C 
ATOM      9  O   UNL     1       7.947  10.196  17.967  0.00  0.00    +0.000 OA
ATOM     10  H   UNL     1       9.531   7.974  19.545  0.00  0.00    +0.000 HD
BRANCH   8  11
ATOM     11  O   UNL     1       9.988  10.222  18.966  0.00  0.00    +0.000 OA
BRANCH  11  12
ATOM     12  C   UNL     1       9.851  11.446  19.754  0.00  0.00    +0.000 C 
ATOM     13  C   UNL     1       9.078  12.536  18.995  0.00  0.00    +0.000 C 
ATOM     14  C   UNL     1       9.036  11.086  21.008  0.00  0.00    +0.000 C 
ATOM     15  C   UNL     1      11.228  11.940  20.231  0.00  0.00    +0.000 C 
ENDBRANCH  11  12
ENDBRANCH   8  11
ENDBRANCH   4   7
BRANCH   1  16
ATOM     16  C   UNL     1       4.752   4.608  17.116  0.00  0.00    +0.000 C 
BRANCH  16  20
ATOM     17  C   UNL     1       1.749   6.349  20.487  0.00  0.00    +0.000 C 
ATOM     18  C   UNL     1       2.403   5.324  19.632  0.00  0.00    +0.000 A 
ATOM     19  N   UNL     1       3.343   5.689  18.756  0.00  0.00    +0.000 NA
ATOM     20  N   UNL     1       3.696   4.549  18.123  0.00  0.00    +0.000 N 
ATOM     21  C   UNL     1       3.111   3.439  18.692  0.00  0.00    +0.000 A 
ATOM     22  C   UNL     1       3.415   2.035  18.313  0.00  0.00    +0.000 C 
ATOM     23  C   UNL     1       2.195   3.919  19.617  0.00  0.00    +0.000 A 
BRANCH  23  24
ATOM     24  C   UNL     1       1.208   3.124  20.412  0.00  0.00    +0.000 C 
BRANCH  24  25
ATOM     25  C   UNL     1       1.676   2.597  21.752  0.00  0.00    +0.000 C 
ATOM     26  O   UNL     1       0.887   2.328  22.650  0.00  0.00    +0.000 OA
BRANCH  25  27
ATOM     27  O   UNL     1       3.002   2.432  21.924  0.00  0.00    +0.000 OA
ATOM     28  H   UNL     1       3.562   3.069  21.436  0.00  0.00    +0.000 HD
ENDBRANCH  25  27
ENDBRANCH  24  25
ENDBRANCH  23  24
ENDBRANCH  16  20
ENDBRANCH   1  16
TORSDOF 8
ENDMDL
MODEL 3
REMARK VINA RESULT:      -7.1      0.942      2.044
REMARK  Name = 
REMARK  13 active torsions:
REMARK  status: ('A' for Active; 'I' for Inactive)
REMARK    1  A    between atoms: C_1  and  C_2
REMARK    2  A    between atoms: N_4  and  C_5
REMARK    3  A    between atoms: C_5  and  C_6
REMARK    4  A    between atoms: C_9  and  N_10
REMARK    5  A    between atoms: C_11  and  O_13
REMARK    6  A    between atoms: O_13  and  C_14
REMARK    7  A    between atoms: C_14  and  C_15
REMARK    8  A    between atoms: C_14  and  C_16
REMARK    9  A    between atoms: C_14  and  C_17
REMARK   10  A    between atoms: C_20  and  C_21
REMARK   11  A    between atoms: C_22  and  C_23
REMARK   12  A    between atoms: C_23  and  C_24
REMARK   13  A    between atoms: C_24  and  O_26
REMARK                            x       y       z     vdW  Elec       q    Type
REMARK                         _______ _______ _______ _____ _____    ______ ____
ROOT
ATOM      1  C   UNL     1       2.070   8.172  18.375  0.00  0.00    +0.000 A 
ATOM      2  C   UNL     1       2.121   7.753  19.706  0.00  0.00    +0.000 A 
ATOM      3  C   UNL     1       1.352   8.388  20.685  0.00  0.00    +0.000 A 
ATOM      4  C   UNL     1       0.505   9.456  20.374  0.00  0.00    +0.000 A 
ATOM      5  C   UNL     1       0.378   9.817  19.030  0.00  0.00    +0.000 A 
ATOM      6  C   UNL     1       1.157   9.184  18.041  0.00  0.00    +0.000 A 
ENDROOT
BRANCH   4   7
ATOM      7  N   UNL     1      -0.225  10.159  21.367  0.00  0.00    +0.000 N 
ATOM      8  C   UNL     1       0.126  11.389  21.872  0.00  0.00    +0.000 C 
ATOM      9  O   UNL     1       0.994  12.121  21.424  0.00  0.00    +0.000 OA
ATOM     10  H   UNL     1      -1.102   9.781  21.696  0.00  0.00    +0.000 HD
BRANCH   8  11
ATOM     11  O   UNL     1      -0.607  11.704  22.982  0.00  0.00    +0.000 OA
BRANCH  11  12
ATOM     12  C   UNL     1      -1.667  12.699  22.829  0.00  0.00    +0.000 C 
ATOM     13  C   UNL     1      -1.989  12.976  21.352  0.00  0.00    +0.000 C 
ATOM     14  C   UNL     1      -2.933  12.112  23.478  0.00  0.00    +0.000 C 
ATOM     15  C   UNL     1      -1.317  13.988  23.595  0.00  0.00    +0.000 C 
ENDBRANCH  11  12
ENDBRANCH   8  11
ENDBRANCH   4   7
BRANCH   1  16
ATOM     16  C   UNL     1       3.059   7.615  17.375  0.00  0.00    +0.000 C 
BRANCH  16  20
ATOM     17  C   UNL     1       6.685   4.586  18.423  0.00  0.00    +0.000 C 
ATOM     18  C   UNL     1       5.281   5.012  18.183  0.00  0.00    +0.000 A 
ATOM     19  N   UNL     1       5.016   6.282  17.867  0.00  0.00    +0.000 NA
ATOM     20  N   UNL     1       3.671   6.345  17.759  0.00  0.00    +0.000 N 
ATOM     21  C   UNL     1       3.087   5.101  17.844  0.00  0.00    +0.000 A 
ATOM     22  C   UNL     1       1.644   4.826  17.619  0.00  0.00    +0.000 C 
ATOM     23  C   UNL     1       4.099   4.225  18.210  0.00  0.00    +0.000 A 
BRANCH  23  24
ATOM     24  C   UNL     1       3.963   2.777  18.560  0.00  0.00    +0.000 C 
BRANCH  24  25
ATOM     25  C   UNL     1       4.113   2.410  20.021  0.00  0.00    +0.000 C 
ATOM     26  O   UNL     1       3.250   2.686  20.847  0.00  0.00    +0.000 OA
BRANCH  25  27
ATOM     27  O   UNL     1       5.237   1.762  20.385  0.00  0.00    +0.000 OA
ATOM     28  H   UNL     1       5.201   0.790  20.285  0.00  0.00    +0.000 HD
ENDBRANCH  25  27
ENDBRANCH  24  25
ENDBRANCH  23  24
ENDBRANCH  16  20
ENDBRANCH   1  16
TORSDOF 8
ENDMDL
MODEL 4
REMARK VINA RESULT:      -7.0      0.814      2.058
REMARK  Name = 
REMARK  13 active torsions:
REMARK  status: ('A' for Active; 'I' for Inactive)
REMARK    1  A    between atoms: C_1  and  C_2
REMARK    2  A    between atoms: N_4  and  C_5
REMARK    3  A    between atoms: C_5  and  C_6
REMARK    4  A    between atoms: C_9  and  N_10
REMARK    5  A    between atoms: C_11  and  O_13
REMARK    6  A    between atoms: O_13  and  C_14
REMARK    7  A    between atoms: C_14  and  C_15
REMARK    8  A    between atoms: C_14  and  C_16
REMARK    9  A    between atoms: C_14  and  C_17
REMARK   10  A    between atoms: C_20  and  C_21
REMARK   11  A    between atoms: C_22  and  C_23
REMARK   12  A    between atoms: C_23  and  C_24
REMARK   13  A    between atoms: C_24  and  O_26
REMARK                            x       y       z     vdW  Elec       q    Type
REMARK                         _______ _______ _______ _____ _____    ______ ____
ROOT
ATOM      1  C   UNL     1       2.048   8.218  18.538  0.00  0.00    +0.000 A 
ATOM      2  C   UNL     1       1.330   9.375  18.229  0.00  0.00    +0.000 A 
ATOM      3  C   UNL     1       0.543  10.007  19.195  0.00  0.00    +0.000 A 
ATOM      4  C   UNL     1       0.446   9.514  20.500  0.00  0.00    +0.000 A 
ATOM      5  C   UNL     1       1.235   8.412  20.840  0.00  0.00    +0.000 A 
ATOM      6  C   UNL     1       2.025   7.767  19.867  0.00  0.00    +0.000 A 
ENDROOT
BRANCH   4   7
ATOM      7  N   UNL     1      -0.407  10.100  21.471  0.00  0.00    +0.000 N 
ATOM      8  C   UNL     1      -0.173  11.304  22.092  0.00  0.00    +0.000 C 
ATOM      9  O   UNL     1       0.687  12.112  21.778  0.00  0.00    +0.000 OA
ATOM     10  H   UNL     1      -1.285   9.653  21.692  0.00  0.00    +0.000 HD
BRANCH   8  11
ATOM     11  O   UNL     1      -1.015  11.495  23.152  0.00  0.00    +0.000 OA
BRANCH  11  12
ATOM     12  C   UNL     1      -2.059  12.508  23.008  0.00  0.00    +0.000 C 
ATOM     13  C   UNL     1      -3.308  12.171  23.836  0.00  0.00    +0.000 C 
ATOM     14  C   UNL     1      -1.483  13.828  23.551  0.00  0.00    +0.000 C 
ATOM     15  C   UNL     1      -2.394  12.734  21.523  0.00  0.00    +0.000 C 
ENDBRANCH  11  12
ENDBRANCH   8  11
ENDBRANCH   4   7
BRANCH   1  16
ATOM     16  C   UNL     1       2.722   7.436  17.432  0.00  0.00    +0.000 C 
BRANCH  16  20
ATOM     17  C   UNL     1       6.542   4.763  18.725  0.00  0.00    +0.000 C 
ATOM     18  C   UNL     1       5.121   5.057  18.404  0.00  0.00    +0.000 A 
ATOM     19  N   UNL     1       4.760   6.293  18.050  0.00  0.00    +0.000 NA
ATOM     20  N   UNL     1       3.423   6.232  17.870  0.00  0.00    +0.000 N 
ATOM     21  C   UNL     1       2.949   4.941  17.948  0.00  0.00    +0.000 A 
ATOM     22  C   UNL     1       1.551   4.534  17.651  0.00  0.00    +0.000 C 
ATOM     23  C   UNL     1       4.015   4.166  18.383  0.00  0.00    +0.000 A 
BRANCH  23  24
ATOM     24  C   UNL     1       3.990   2.716  18.751  0.00  0.00    +0.000 C 
BRANCH  24  25
ATOM     25  C   UNL     1       4.138   2.382  20.220  0.00  0.00    +0.000 C 
ATOM     26  O   UNL     1       5.137   1.821  20.656  0.00  0.00    +0.000 OA
BRANCH  25  27
ATOM     27  O   UNL     1       3.126   2.729  21.039  0.00  0.00    +0.000 OA
ATOM     28  H   UNL     1       2.452   3.310  20.635  0.00  0.00    +0.000 HD
ENDBRANCH  25  27
ENDBRANCH  24  25
ENDBRANCH  23  24
ENDBRANCH  16  20
ENDBRANCH   1  16
TORSDOF 8
ENDMDL
MODEL 5
REMARK VINA RESULT:      -7.0      3.124      4.263
REMARK  Name = 
REMARK  13 active torsions:
REMARK  status: ('A' for Active; 'I' for Inactive)
REMARK    1  A    between atoms: C_1  and  C_2
REMARK    2  A    between atoms: N_4  and  C_5
REMARK    3  A    between atoms: C_5  and  C_6
REMARK    4  A    between atoms: C_9  and  N_10
REMARK    5  A    between atoms: C_11  and  O_13
REMARK    6  A    between atoms: O_13  and  C_14
REMARK    7  A    between atoms: C_14  and  C_15
REMARK    8  A    between atoms: C_14  and  C_16
REMARK    9  A    between atoms: C_14  and  C_17
REMARK   10  A    between atoms: C_20  and  C_21
REMARK   11  A    between atoms: C_22  and  C_23
REMARK   12  A    between atoms: C_23  and  C_24
REMARK   13  A    between atoms: C_24  and  O_26
REMARK                            x       y       z     vdW  Elec       q    Type
REMARK                         _______ _______ _______ _____ _____    ______ ____
ROOT
ATOM      1  C   UNL     1       2.477   6.439  19.418  0.00  0.00    +0.000 A 
ATOM      2  C   UNL     1       1.911   7.111  20.503  0.00  0.00    +0.000 A 
ATOM      3  C   UNL     1       1.440   8.419  20.366  0.00  0.00    +0.000 A 
ATOM      4  C   UNL     1       1.512   9.102  19.147  0.00  0.00    +0.000 A 
ATOM      5  C   UNL     1       1.990   8.402  18.036  0.00  0.00    +0.000 A 
ATOM      6  C   UNL     1       2.473   7.085  18.171  0.00  0.00    +0.000 A 
ENDROOT
BRANCH   4   7
ATOM      7  N   UNL     1       1.107  10.455  19.010  0.00  0.00    +0.000 N 
ATOM      8  C   UNL     1      -0.199  10.876  18.934  0.00  0.00    +0.000 C 
ATOM      9  O   UNL     1      -1.183  10.187  19.149  0.00  0.00    +0.000 OA
ATOM     10  H   UNL     1       1.806  11.184  19.031  0.00  0.00    +0.000 HD
BRANCH   8  11
ATOM     11  O   UNL     1      -0.283  12.187  18.553  0.00  0.00    +0.000 OA
BRANCH  11  12
ATOM     12  C   UNL     1      -0.533  13.177  19.599  0.00  0.00    +0.000 C 
ATOM     13  C   UNL     1       0.434  13.022  20.783  0.00  0.00    +0.000 C 
ATOM     14  C   UNL     1      -0.286  14.562  18.976  0.00  0.00    +0.000 C 
ATOM     15  C   UNL     1      -2.005  13.133  20.047  0.00  0.00    +0.000 C 
ENDBRANCH  11  12
ENDBRANCH   8  11
ENDBRANCH   4   7
BRANCH   1  16
ATOM     16  C   UNL     1       3.167   5.110  19.636  0.00  0.00    +0.000 C 
BRANCH  16  20
ATOM     17  C   UNL     1       7.896   5.932  19.019  0.00  0.00    +0.000 C 
ATOM     18  C   UNL     1       6.549   5.383  18.713  0.00  0.00    +0.000 A 
ATOM     19  N   UNL     1       5.521   5.653  19.521  0.00  0.00    +0.000 NA
ATOM     20  N   UNL     1       4.473   4.983  18.993  0.00  0.00    +0.000 N 
ATOM     21  C   UNL     1       4.779   4.421  17.774  0.00  0.00    +0.000 A 
ATOM     22  C   UNL     1       3.800   3.747  16.883  0.00  0.00    +0.000 C 
ATOM     23  C   UNL     1       6.147   4.586  17.608  0.00  0.00    +0.000 A 
BRANCH  23  24
ATOM     24  C   UNL     1       6.999   4.038  16.507  0.00  0.00    +0.000 C 
BRANCH  24  25
ATOM     25  C   UNL     1       6.947   4.761  15.178  0.00  0.00    +0.000 C 
ATOM     26  O   UNL     1       7.676   5.716  14.935  0.00  0.00    +0.000 OA
BRANCH  25  27
ATOM     27  O   UNL     1       6.066   4.313  14.263  0.00  0.00    +0.000 OA
ATOM     28  H   UNL     1       5.662   3.447  14.472  0.00  0.00    +0.000 HD
ENDBRANCH  25  27
ENDBRANCH  24  25
ENDBRANCH  23  24
ENDBRANCH  16  20
ENDBRANCH   1  16
TORSDOF 8
ENDMDL
MODEL 6
REMARK VINA RESULT:      -7.0      3.217      4.348
REMARK  Name = 
REMARK  13 active torsions:
REMARK  status: ('A' for Active; 'I' for Inactive)
REMARK    1  A    between atoms: C_1  and  C_2
REMARK    2  A    between atoms: N_4  and  C_5
REMARK    3  A    between atoms: C_5  and  C_6
REMARK    4  A    between atoms: C_9  and  N_10
REMARK    5  A    between atoms: C_11  and  O_13
REMARK    6  A    between atoms: O_13  and  C_14
REMARK    7  A    between atoms: C_14  and  C_15
REMARK    8  A    between atoms: C_14  and  C_16
REMARK    9  A    between atoms: C_14  and  C_17
REMARK   10  A    between atoms: C_20  and  C_21
REMARK   11  A    between atoms: C_22  and  C_23
REMARK   12  A    between atoms: C_23  and  C_24
REMARK   13  A    between atoms: C_24  and  O_26
REMARK                            x       y       z     vdW  Elec       q    Type
REMARK                         _______ _______ _______ _____ _____    ______ ____
ROOT
ATOM      1  C   UNL     1       2.425   5.949  19.830  0.00  0.00    +0.000 A 
ATOM      2  C   UNL     1       1.634   6.200  20.953  0.00  0.00    +0.000 A 
ATOM      3  C   UNL     1       1.108   7.473  21.186  0.00  0.00    +0.000 A 
ATOM      4  C   UNL     1       1.346   8.537  20.311  0.00  0.00    +0.000 A 
ATOM      5  C   UNL     1       2.056   8.270  19.138  0.00  0.00    +0.000 A 
ATOM      6  C   UNL     1       2.596   6.989  18.902  0.00  0.00    +0.000 A 
ENDROOT
BRANCH   4   7
ATOM      7  N   UNL     1       0.881   9.853  20.571  0.00  0.00    +0.000 N 
ATOM      8  C   UNL     1      -0.026  10.531  19.791  0.00  0.00    +0.000 C 
ATOM      9  O   UNL     1      -0.684  10.049  18.883  0.00  0.00    +0.000 OA
ATOM     10  H   UNL     1       1.172  10.321  21.417  0.00  0.00    +0.000 HD
BRANCH   8  11
ATOM     11  O   UNL     1      -0.093  11.853  20.133  0.00  0.00    +0.000 OA
BRANCH  11  12
ATOM     12  C   UNL     1       0.632  12.804  19.293  0.00  0.00    +0.000 C 
ATOM     13  C   UNL     1       1.802  12.140  18.549  0.00  0.00    +0.000 C 
ATOM     14  C   UNL     1      -0.360  13.317  18.234  0.00  0.00    +0.000 C 
ATOM     15  C   UNL     1       1.088  14.020  20.119  0.00  0.00    +0.000 C 
ENDBRANCH  11  12
ENDBRANCH   8  11
ENDBRANCH   4   7
BRANCH   1  16
ATOM     16  C   UNL     1       3.155   4.630  19.706  0.00  0.00    +0.000 C 
BRANCH  16  20
ATOM     17  C   UNL     1       7.778   5.909  19.072  0.00  0.00    +0.000 C 
ATOM     18  C   UNL     1       6.465   5.302  18.731  0.00  0.00    +0.000 A 
ATOM     19  N   UNL     1       5.453   5.372  19.600  0.00  0.00    +0.000 NA
ATOM     20  N   UNL     1       4.438   4.700  19.013  0.00  0.00    +0.000 N 
ATOM     21  C   UNL     1       4.737   4.340  17.718  0.00  0.00    +0.000 A 
ATOM     22  C   UNL     1       3.775   3.720  16.769  0.00  0.00    +0.000 C 
ATOM     23  C   UNL     1       6.080   4.637  17.536  0.00  0.00    +0.000 A 
BRANCH  23  24
ATOM     24  C   UNL     1       6.925   4.319  16.343  0.00  0.00    +0.000 C 
BRANCH  24  25
ATOM     25  C   UNL     1       6.842   5.274  15.172  0.00  0.00    +0.000 C 
ATOM     26  O   UNL     1       5.823   5.912  14.932  0.00  0.00    +0.000 OA
BRANCH  25  27
ATOM     27  O   UNL     1       7.937   5.402  14.397  0.00  0.00    +0.000 OA
ATOM     28  H   UNL     1       7.973   4.791  13.634  0.00  0.00    +0.000 HD
ENDBRANCH  25  27
ENDBRANCH  24  25
ENDBRANCH  23  24
ENDBRANCH  16  20
ENDBRANCH   1  16
TORSDOF 8
ENDMDL
MODEL 7
REMARK VINA RESULT:      -6.9      0.952      2.318
REMARK  Name = 
REMARK  13 active torsions:
REMARK  status: ('A' for Active; 'I' for Inactive)
REMARK    1  A    between atoms: C_1  and  C_2
REMARK    2  A    between atoms: N_4  and  C_5
REMARK    3  A    between atoms: C_5  and  C_6
REMARK    4  A    between atoms: C_9  and  N_10
REMARK    5  A    between atoms: C_11  and  O_13
REMARK    6  A    between atoms: O_13  and  C_14
REMARK    7  A    between atoms: C_14  and  C_15
REMARK    8  A    between atoms: C_14  and  C_16
REMARK    9  A    between atoms: C_14  and  C_17
REMARK   10  A    between atoms: C_20  and  C_21
REMARK   11  A    between atoms: C_22  and  C_23
REMARK   12  A    between atoms: C_23  and  C_24
REMARK   13  A    between atoms: C_24  and  O_26
REMARK                            x       y       z     vdW  Elec       q    Type
REMARK                         _______ _______ _______ _____ _____    ______ ____
ROOT
ATOM      1  C   UNL     1       2.177   8.112  18.337  0.00  0.00    +0.000 A 
ATOM      2  C   UNL     1       2.196   7.672  19.663  0.00  0.00    +0.000 A 
ATOM      3  C   UNL     1       1.416   8.304  20.635  0.00  0.00    +0.000 A 
ATOM      4  C   UNL     1       0.591   9.389  20.323  0.00  0.00    +0.000 A 
ATOM      5  C   UNL     1       0.496   9.771  18.983  0.00  0.00    +0.000 A 
ATOM      6  C   UNL     1       1.286   9.142  18.000  0.00  0.00    +0.000 A 
ENDROOT
BRANCH   4   7
ATOM      7  N   UNL     1      -0.149  10.088  21.312  0.00  0.00    +0.000 N 
ATOM      8  C   UNL     1       0.217  11.298  21.854  0.00  0.00    +0.000 C 
ATOM      9  O   UNL     1       1.114  12.017  21.446  0.00  0.00    +0.000 OA
ATOM     10  H   UNL     1      -1.043   9.724  21.609  0.00  0.00    +0.000 HD
BRANCH   8  11
ATOM     11  O   UNL     1      -0.538  11.606  22.951  0.00  0.00    +0.000 OA
BRANCH  11  12
ATOM     12  C   UNL     1      -1.641  12.548  22.765  0.00  0.00    +0.000 C 
ATOM     13  C   UNL     1      -2.919  12.087  23.483  0.00  0.00    +0.000 C 
ATOM     14  C   UNL     1      -1.206  13.880  23.400  0.00  0.00    +0.000 C 
ATOM     15  C   UNL     1      -1.882  12.813  21.269  0.00  0.00    +0.000 C 
ENDBRANCH  11  12
ENDBRANCH   8  11
ENDBRANCH   4   7
BRANCH   1  16
ATOM     16  C   UNL     1       3.179   7.555  17.349  0.00  0.00    +0.000 C 
BRANCH  16  20
ATOM     17  C   UNL     1       6.851   4.611  18.473  0.00  0.00    +0.000 C 
ATOM     18  C   UNL     1       5.442   5.007  18.213  0.00  0.00    +0.000 A 
ATOM     19  N   UNL     1       5.156   6.267  17.877  0.00  0.00    +0.000 NA
ATOM     20  N   UNL     1       3.811   6.302  17.754  0.00  0.00    +0.000 N 
ATOM     21  C   UNL     1       3.250   5.048  17.849  0.00  0.00    +0.000 A 
ATOM     22  C   UNL     1       1.815   4.743  17.612  0.00  0.00    +0.000 C 
ATOM     23  C   UNL     1       4.275   4.197  18.237  0.00  0.00    +0.000 A 
BRANCH  23  24
ATOM     24  C   UNL     1       4.163   2.751  18.603  0.00  0.00    +0.000 C 
BRANCH  24  25
ATOM     25  C   UNL     1       4.189   2.416  20.079  0.00  0.00    +0.000 C 
ATOM     26  O   UNL     1       5.127   1.811  20.586  0.00  0.00    +0.000 OA
BRANCH  25  27
ATOM     27  O   UNL     1       3.138   2.811  20.823  0.00  0.00    +0.000 OA
ATOM     28  H   UNL     1       2.296   2.359  20.617  0.00  0.00    +0.000 HD
ENDBRANCH  25  27
ENDBRANCH  24  25
ENDBRANCH  23  24
ENDBRANCH  16  20
ENDBRANCH   1  16
TORSDOF 8
ENDMDL
MODEL 8
REMARK VINA RESULT:      -6.9      3.399      9.216
REMARK  Name = 
REMARK  13 active torsions:
REMARK  status: ('A' for Active; 'I' for Inactive)
REMARK    1  A    between atoms: C_1  and  C_2
REMARK    2  A    between atoms: N_4  and  C_5
REMARK    3  A    between atoms: C_5  and  C_6
REMARK    4  A    between atoms: C_9  and  N_10
REMARK    5  A    between atoms: C_11  and  O_13
REMARK    6  A    between atoms: O_13  and  C_14
REMARK    7  A    between atoms: C_14  and  C_15
REMARK    8  A    between atoms: C_14  and  C_16
REMARK    9  A    between atoms: C_14  and  C_17
REMARK   10  A    between atoms: C_20  and  C_21
REMARK   11  A    between atoms: C_22  and  C_23
REMARK   12  A    between atoms: C_23  and  C_24
REMARK   13  A    between atoms: C_24  and  O_26
REMARK                            x       y       z     vdW  Elec       q    Type
REMARK                         _______ _______ _______ _____ _____    ______ ____
ROOT
ATOM      1  C   UNL     1       0.988  10.134  18.945  0.00  0.00    +0.000 A 
ATOM      2  C   UNL     1       0.847   9.410  20.131  0.00  0.00    +0.000 A 
ATOM      3  C   UNL     1       1.477   8.173  20.292  0.00  0.00    +0.000 A 
ATOM      4  C   UNL     1       2.269   7.616  19.283  0.00  0.00    +0.000 A 
ATOM      5  C   UNL     1       2.491   8.378  18.133  0.00  0.00    +0.000 A 
ATOM      6  C   UNL     1       1.852   9.623  17.964  0.00  0.00    +0.000 A 
ENDROOT
BRANCH   4   7
ATOM      7  N   UNL     1       2.854   6.329  19.401  0.00  0.00    +0.000 N 
ATOM      8  C   UNL     1       2.460   5.222  18.687  0.00  0.00    +0.000 C 
ATOM      9  O   UNL     1       1.689   5.223  17.740  0.00  0.00    +0.000 OA
ATOM     10  H   UNL     1       3.660   6.205  19.998  0.00  0.00    +0.000 HD
BRANCH   8  11
ATOM     11  O   UNL     1       3.020   4.078  19.184  0.00  0.00    +0.000 OA
BRANCH  11  12
ATOM     12  C   UNL     1       2.138   3.145  19.883  0.00  0.00    +0.000 C 
ATOM     13  C   UNL     1       1.723   1.965  18.991  0.00  0.00    +0.000 C 
ATOM     14  C   UNL     1       2.935   2.574  21.068  0.00  0.00    +0.000 C 
ATOM     15  C   UNL     1       0.920   3.884  20.466  0.00  0.00    +0.000 C 
ENDBRANCH  11  12
ENDBRANCH   8  11
ENDBRANCH   4   7
BRANCH   1  16
ATOM     16  C   UNL     1       0.135  11.361  18.711  0.00  0.00    +0.000 C 
BRANCH  16  20
ATOM     17  C   UNL     1      -3.340   9.741  15.758  0.00  0.00    +0.000 C 
ATOM     18  C   UNL     1      -2.756  10.400  16.956  0.00  0.00    +0.000 A 
ATOM     19  N   UNL     1      -1.430  10.481  17.092  0.00  0.00    +0.000 NA
ATOM     20  N   UNL     1      -1.234  11.086  18.284  0.00  0.00    +0.000 N 
ATOM     21  C   UNL     1      -2.413  11.535  18.836  0.00  0.00    +0.000 A 
ATOM     22  C   UNL     1      -2.510  12.363  20.066  0.00  0.00    +0.000 C 
ATOM     23  C   UNL     1      -3.429  11.024  18.041  0.00  0.00    +0.000 A 
BRANCH  23  24
ATOM     24  C   UNL     1      -4.903  11.113  18.284  0.00  0.00    +0.000 C 
BRANCH  24  25
ATOM     25  C   UNL     1      -5.583  12.408  17.894  0.00  0.00    +0.000 C 
ATOM     26  O   UNL     1      -6.171  12.530  16.826  0.00  0.00    +0.000 OA
BRANCH  25  27
ATOM     27  O   UNL     1      -5.519  13.429  18.770  0.00  0.00    +0.000 OA
ATOM     28  H   UNL     1      -4.613  13.691  19.030  0.00  0.00    +0.000 HD
ENDBRANCH  25  27
ENDBRANCH  24  25
ENDBRANCH  23  24
ENDBRANCH  16  20
ENDBRANCH   1  16
TORSDOF 8
ENDMDL
MODEL 9
REMARK VINA RESULT:      -6.9      0.590      1.121
REMARK  Name = 
REMARK  13 active torsions:
REMARK  status: ('A' for Active; 'I' for Inactive)
REMARK    1  A    between atoms: C_1  and  C_2
REMARK    2  A    between atoms: N_4  and  C_5
REMARK    3  A    between atoms: C_5  and  C_6
REMARK    4  A    between atoms: C_9  and  N_10
REMARK    5  A    between atoms: C_11  and  O_13
REMARK    6  A    between atoms: O_13  and  C_14
REMARK    7  A    between atoms: C_14  and  C_15
REMARK    8  A    between atoms: C_14  and  C_16
REMARK    9  A    between atoms: C_14  and  C_17
REMARK   10  A    between atoms: C_20  and  C_21
REMARK   11  A    between atoms: C_22  and  C_23
REMARK   12  A    between atoms: C_23  and  C_24
REMARK   13  A    between atoms: C_24  and  O_26
REMARK                            x       y       z     vdW  Elec       q    Type
REMARK                         _______ _______ _______ _____ _____    ______ ____
ROOT
ATOM      1  C   UNL     1       2.479   7.837  18.419  0.00  0.00    +0.000 A 
ATOM      2  C   UNL     1       1.857   8.905  17.770  0.00  0.00    +0.000 A 
ATOM      3  C   UNL     1       0.912   9.693  18.434  0.00  0.00    +0.000 A 
ATOM      4  C   UNL     1       0.557   9.448  19.764  0.00  0.00    +0.000 A 
ATOM      5  C   UNL     1       1.245   8.441  20.447  0.00  0.00    +0.000 A 
ATOM      6  C   UNL     1       2.192   7.640  19.779  0.00  0.00    +0.000 A 
ENDROOT
BRANCH   4   7
ATOM      7  N   UNL     1      -0.453  10.190  20.429  0.00  0.00    +0.000 N 
ATOM      8  C   UNL     1      -0.229  11.050  21.479  0.00  0.00    +0.000 C 
ATOM      9  O   UNL     1       0.864  11.429  21.867  0.00  0.00    +0.000 OA
ATOM     10  H   UNL     1      -1.402  10.151  20.085  0.00  0.00    +0.000 HD
BRANCH   8  11
ATOM     11  O   UNL     1      -1.399  11.425  22.079  0.00  0.00    +0.000 OA
BRANCH  11  12
ATOM     12  C   UNL     1      -1.870  12.788  21.840  0.00  0.00    +0.000 C 
ATOM     13  C   UNL     1      -3.397  12.902  21.975  0.00  0.00    +0.000 C 
ATOM     14  C   UNL     1      -1.240  13.679  22.926  0.00  0.00    +0.000 C 
ATOM     15  C   UNL     1      -1.370  13.304  20.479  0.00  0.00    +0.000 C 
ENDBRANCH  11  12
ENDBRANCH   8  11
ENDBRANCH   4   7
BRANCH   1  16
ATOM     16  C   UNL     1       3.335   6.874  17.626  0.00  0.00    +0.000 C 
BRANCH  16  20
ATOM     17  C   UNL     1       0.980   2.730  18.465  0.00  0.00    +0.000 C 
ATOM     18  C   UNL     1       2.138   3.661  18.406  0.00  0.00    +0.000 A 
ATOM     19  N   UNL     1       1.963   4.914  17.977  0.00  0.00    +0.000 NA
ATOM     20  N   UNL     1       3.194   5.471  18.006  0.00  0.00    +0.000 N 
ATOM     21  C   UNL     1       4.122   4.643  18.598  0.00  0.00    +0.000 A 
ATOM     22  C   UNL     1       5.524   5.028  18.907  0.00  0.00    +0.000 C 
ATOM     23  C   UNL     1       3.486   3.425  18.786  0.00  0.00    +0.000 A 
BRANCH  23  24
ATOM     24  C   UNL     1       4.096   2.149  19.276  0.00  0.00    +0.000 C 
BRANCH  24  25
ATOM     25  C   UNL     1       4.330   2.033  20.767  0.00  0.00    +0.000 C 
ATOM     26  O   UNL     1       5.373   1.578  21.222  0.00  0.00    +0.000 OA
BRANCH  25  27
ATOM     27  O   UNL     1       3.344   2.452  21.584  0.00  0.00    +0.000 OA
ATOM     28  H   UNL     1       3.500   3.321  22.004  0.00  0.00    +0.000 HD
ENDBRANCH  25  27
ENDBRANCH  24  25
ENDBRANCH  23  24
ENDBRANCH  16  20
ENDBRANCH   1  16
TORSDOF 8
ENDMDL
