MODEL 1
REMARK VINA RESULT:      -8.0      0.000      0.000
REMARK  Name = 
REMARK  12 active torsions:
REMARK  status: ('A' for Active; 'I' for Inactive)
REMARK    1  A    between atoms: C_1  and  C_2
REMARK    2  A    between atoms: C_4  and  O_5
REMARK    3  A    between atoms: C_7  and  C_8
REMARK    4  A    between atoms: C_9  and  C_10
REMARK    5  A    between atoms: C_10  and  C_11
REMARK    6  A    between atoms: C_11  and  N_12
REMARK    7  A    between atoms: C_11  and  C_13
REMARK    8  A    between atoms: C_19  and  C_20
REMARK    9  A    between atoms: N_22  and  C_23
REMARK   10  A    between atoms: C_23  and  C_24
REMARK   11  A    between atoms: C_23  and  C_34
REMARK   12  A    between atoms: C_24  and  C_25
REMARK                            x       y       z     vdW  Elec       q    Type
REMARK                         _______ _______ _______ _____ _____    ______ ____
ROOT
ATOM      1  C   UNL     1      -4.748  11.951  18.556  0.00  0.00    +0.000 C 
ATOM      2  O   UNL     1      -5.900  12.303  18.308  0.00  0.00    +0.000 OA
ATOM      3  N   UNL     1      -3.836  11.547  17.567  0.00  0.00    +0.000 N 
ATOM      4  C   UNL     1      -4.351  11.429  16.208  0.00  0.00    +0.000 C 
ATOM      5  C   UNL     1      -3.743  10.157  15.655  0.00  0.00    +0.000 C 
ATOM      6  C   UNL     1      -2.393  10.098  16.341  0.00  0.00    +0.000 C 
ATOM      7  C   UNL     1      -2.641  10.661  17.756  0.00  0.00    +0.000 C 
ENDROOT
BRANCH   7   8
ATOM      8  C   UNL     1      -1.233  11.085  18.338  0.00  0.00    +0.000 C 
ATOM      9  O   UNL     1      -0.874  12.260  18.300  0.00  0.00    +0.000 OA
ATOM     10  N   UNL     1      -0.394  10.070  18.688  0.00  0.00    +0.000 N 
ATOM     11  H   UNL     1      -0.822   9.185  18.905  0.00  0.00    +0.000 HD
BRANCH  10  12
ATOM     12  C   UNL     1       1.053   9.985  18.921  0.00  0.00    +0.000 C 
BRANCH  12  13
ATOM     13  C   UNL     1       1.607  11.419  19.038  0.00  0.00    +0.000 C 
ATOM     14  N   UNL     1       2.155  11.942  17.896  0.00  0.00    +0.000 N 
ATOM     15  O   UNL     1       1.602  12.080  20.071  0.00  0.00    +0.000 OA
ATOM     16  H   UNL     1       2.463  11.348  17.138  0.00  0.00    +0.000 HD
ATOM     17  H   UNL     1       2.634  12.828  18.007  0.00  0.00    +0.000 HD
ENDBRANCH  12  13
BRANCH  12  18
ATOM     18  C   UNL     1       1.923   9.152  17.995  0.00  0.00    +0.000 C 
BRANCH  18  19
ATOM     19  C   UNL     1       2.427   7.855  18.564  0.00  0.00    +0.000 A 
ATOM     20  C   UNL     1       2.019   7.374  19.796  0.00  0.00    +0.000 A 
ATOM     21  N   UNL     1       2.794   6.303  20.120  0.00  0.00    +0.000 N 
ATOM     22  C   UNL     1       3.698   6.047  19.107  0.00  0.00    +0.000 A 
ATOM     23  C   UNL     1       4.724   5.093  19.055  0.00  0.00    +0.000 A 
ATOM     24  C   UNL     1       5.501   5.038  17.896  0.00  0.00    +0.000 A 
ATOM     25  C   UNL     1       5.226   5.872  16.819  0.00  0.00    +0.000 A 
ATOM     26  C   UNL     1       4.196   6.814  16.890  0.00  0.00    +0.000 A 
ATOM     27  C   UNL     1       3.432   6.944  18.075  0.00  0.00    +0.000 A 
ATOM     28  H   UNL     1       2.767   5.813  21.001  0.00  0.00    +0.000 HD
ENDBRANCH  18  19
ENDBRANCH  12  18
ENDBRANCH  10  12
ENDBRANCH   7   8
BRANCH   1  29
ATOM     29  C   UNL     1      -4.127  12.189  19.931  0.00  0.00    +0.000 C 
BRANCH  29  30
ATOM     30  N   UNL     1      -3.323  13.460  19.733  0.00  0.00    +0.000 NA
ATOM     31  H   UNL     1      -3.602  14.106  20.484  0.00  0.00    +0.000 HD
ATOM     32  H   UNL     1      -3.702  13.974  18.920  0.00  0.00    +0.000 HD
ENDBRANCH  29  30
BRANCH  29  33
ATOM     33  C   UNL     1      -5.031  12.424  21.136  0.00  0.00    +0.000 C 
BRANCH  33  41
ATOM     34  C   UNL     1      -6.643  14.801  21.138  0.00  0.00    +0.000 C 
ATOM     35  C   UNL     1      -5.625  14.576  22.237  0.00  0.00    +0.000 A 
ATOM     36  C   UNL     1      -5.515  15.572  23.219  0.00  0.00    +0.000 A 
ATOM     37  C   UNL     1      -4.589  15.437  24.234  0.00  0.00    +0.000 A 
ATOM     38  C   UNL     1      -3.761  14.327  24.282  0.00  0.00    +0.000 A 
ATOM     39  C   UNL     1      -3.848  13.297  23.322  0.00  0.00    +0.000 A 
ATOM     40  C   UNL     1      -2.874  12.172  23.521  0.00  0.00    +0.000 C 
ATOM     41  C   UNL     1      -4.788  13.411  22.270  0.00  0.00    +0.000 A 
BRANCH  37  42
ATOM     42  O   UNL     1      -4.453  16.378  25.209  0.00  0.00    +0.000 OA
ATOM     43  H   UNL     1      -4.214  15.929  26.035  0.00  0.00    +0.000 HD
ENDBRANCH  37  42
ENDBRANCH  33  41
ENDBRANCH  29  33
ENDBRANCH   1  29
TORSDOF 10
ENDMDL
MODEL 2
REMARK VINA RESULT:      -8.0      4.249     11.171
REMARK  Name = 
REMARK  12 active torsions:
REMARK  status: ('A' for Active; 'I' for Inactive)
REMARK    1  A    between atoms: C_1  and  C_2
REMARK    2  A    between atoms: C_4  and  O_5
REMARK    3  A    between atoms: C_7  and  C_8
REMARK    4  A    between atoms: C_9  and  C_10
REMARK    5  A    between atoms: C_10  and  C_11
REMARK    6  A    between atoms: C_11  and  N_12
REMARK    7  A    between atoms: C_11  and  C_13
REMARK    8  A    between atoms: C_19  and  C_20
REMARK    9  A    between atoms: N_22  and  C_23
REMARK   10  A    between atoms: C_23  and  C_24
REMARK   11  A    between atoms: C_23  and  C_34
REMARK   12  A    between atoms: C_24  and  C_25
REMARK                            x       y       z     vdW  Elec       q    Type
REMARK                         _______ _______ _______ _____ _____    ______ ____
ROOT
ATOM      1  C   UNL     1       4.449   4.069  19.744  0.00  0.00    +0.000 C 
ATOM      2  O   UNL     1       5.089   3.019  19.754  0.00  0.00    +0.000 OA
ATOM      3  N   UNL     1       3.139   4.176  20.240  0.00  0.00    +0.000 N 
ATOM      4  C   UNL     1       2.492   2.939  20.661  0.00  0.00    +0.000 C 
ATOM      5  C   UNL     1       1.072   3.029  20.144  0.00  0.00    +0.000 C 
ATOM      6  C   UNL     1       0.778   4.515  20.211  0.00  0.00    +0.000 C 
ATOM      7  C   UNL     1       2.113   5.200  19.852  0.00  0.00    +0.000 C 
ENDROOT
BRANCH   7   8
ATOM      8  C   UNL     1       2.023   6.691  20.372  0.00  0.00    +0.000 C 
ATOM      9  O   UNL     1       1.923   6.922  21.576  0.00  0.00    +0.000 OA
ATOM     10  N   UNL     1       1.867   7.654  19.421  0.00  0.00    +0.000 N 
ATOM     11  H   UNL     1       2.181   7.426  18.493  0.00  0.00    +0.000 HD
BRANCH  10  12
ATOM     12  C   UNL     1       1.407   9.047  19.456  0.00  0.00    +0.000 C 
BRANCH  12  13
ATOM     13  C   UNL     1       0.556   9.243  20.727  0.00  0.00    +0.000 C 
ATOM     14  N   UNL     1       1.167   9.905  21.758  0.00  0.00    +0.000 N 
ATOM     15  O   UNL     1      -0.590   8.827  20.862  0.00  0.00    +0.000 OA
ATOM     16  H   UNL     1       2.174   9.980  21.815  0.00  0.00    +0.000 HD
ATOM     17  H   UNL     1       0.656   9.917  22.634  0.00  0.00    +0.000 HD
ENDBRANCH  12  13
BRANCH  12  18
ATOM     18  C   UNL     1       0.705   9.645  18.248  0.00  0.00    +0.000 C 
BRANCH  18  19
ATOM     19  C   UNL     1       0.074  10.992  18.460  0.00  0.00    +0.000 A 
ATOM     20  C   UNL     1      -1.279  11.218  18.276  0.00  0.00    +0.000 A 
ATOM     21  N   UNL     1      -1.506  12.559  18.341  0.00  0.00    +0.000 N 
ATOM     22  C   UNL     1      -0.324  13.229  18.591  0.00  0.00    +0.000 A 
ATOM     23  C   UNL     1      -0.086  14.609  18.664  0.00  0.00    +0.000 A 
ATOM     24  C   UNL     1       1.217  15.029  18.941  0.00  0.00    +0.000 A 
ATOM     25  C   UNL     1       2.224  14.102  19.184  0.00  0.00    +0.000 A 
ATOM     26  C   UNL     1       1.963  12.731  19.111  0.00  0.00    +0.000 A 
ATOM     27  C   UNL     1       0.670  12.269  18.766  0.00  0.00    +0.000 A 
ATOM     28  H   UNL     1      -2.391  13.007  18.158  0.00  0.00    +0.000 HD
ENDBRANCH  18  19
ENDBRANCH  12  18
ENDBRANCH  10  12
ENDBRANCH   7   8
BRANCH   1  29
ATOM     29  C   UNL     1       5.124   5.405  19.446  0.00  0.00    +0.000 C 
BRANCH  29  30
ATOM     30  N   UNL     1       6.585   5.131  19.750  0.00  0.00    +0.000 NA
ATOM     31  H   UNL     1       6.733   5.380  20.738  0.00  0.00    +0.000 HD
ATOM     32  H   UNL     1       7.164   5.863  19.304  0.00  0.00    +0.000 HD
ENDBRANCH  29  30
BRANCH  29  33
ATOM     33  C   UNL     1       5.069   5.978  18.033  0.00  0.00    +0.000 C 
BRANCH  33  41
ATOM     34  C   UNL     1       7.477   6.766  16.679  0.00  0.00    +0.000 C 
ATOM     35  C   UNL     1       6.618   5.655  16.111  0.00  0.00    +0.000 A 
ATOM     36  C   UNL     1       7.052   5.060  14.917  0.00  0.00    +0.000 A 
ATOM     37  C   UNL     1       6.300   4.058  14.336  0.00  0.00    +0.000 A 
ATOM     38  C   UNL     1       5.115   3.644  14.921  0.00  0.00    +0.000 A 
ATOM     39  C   UNL     1       4.649   4.208  16.128  0.00  0.00    +0.000 A 
ATOM     40  C   UNL     1       3.346   3.646  16.619  0.00  0.00    +0.000 C 
ATOM     41  C   UNL     1       5.399   5.238  16.744  0.00  0.00    +0.000 A 
BRANCH  37  42
ATOM     42  O   UNL     1       6.687   3.451  13.180  0.00  0.00    +0.000 OA
ATOM     43  H   UNL     1       7.048   2.578  13.400  0.00  0.00    +0.000 HD
ENDBRANCH  37  42
ENDBRANCH  33  41
ENDBRANCH  29  33
ENDBRANCH   1  29
TORSDOF 10
ENDMDL
MODEL 3
REMARK VINA RESULT:      -8.0      3.981     11.136
REMARK  Name = 
REMARK  12 active torsions:
REMARK  status: ('A' for Active; 'I' for Inactive)
REMARK    1  A    between atoms: C_1  and  C_2
REMARK    2  A    between atoms: C_4  and  O_5
REMARK    3  A    between atoms: C_7  and  C_8
REMARK    4  A    between atoms: C_9  and  C_10
REMARK    5  A    between atoms: C_10  and  C_11
REMARK    6  A    between atoms: C_11  and  N_12
REMARK    7  A    between atoms: C_11  and  C_13
REMARK    8  A    between atoms: C_19  and  C_20
REMARK    9  A    between atoms: N_22  and  C_23
REMARK   10  A    between atoms: C_23  and  C_24
REMARK   11  A    between atoms: C_23  and  C_34
REMARK   12  A    between atoms: C_24  and  C_25
REMARK                            x       y       z     vdW  Elec       q    Type
REMARK                         _______ _______ _______ _____ _____    ______ ____
ROOT
ATOM      1  C   UNL     1       4.433   3.953  19.900  0.00  0.00    +0.000 C 
ATOM      2  O   UNL     1       5.155   2.968  20.045  0.00  0.00    +0.000 OA
ATOM      3  N   UNL     1       3.105   4.009  20.355  0.00  0.00    +0.000 N 
ATOM      4  C   UNL     1       2.549   2.780  20.909  0.00  0.00    +0.000 C 
ATOM      5  C   UNL     1       1.140   2.692  20.360  0.00  0.00    +0.000 C 
ATOM      6  C   UNL     1       0.727   4.146  20.245  0.00  0.00    +0.000 C 
ATOM      7  C   UNL     1       2.012   4.892  19.831  0.00  0.00    +0.000 C 
ENDROOT
BRANCH   7   8
ATOM      8  C   UNL     1       1.789   6.421  20.169  0.00  0.00    +0.000 C 
ATOM      9  O   UNL     1       1.459   6.763  21.303  0.00  0.00    +0.000 OA
ATOM     10  N   UNL     1       1.791   7.280  19.112  0.00  0.00    +0.000 N 
ATOM     11  H   UNL     1       2.280   6.977  18.285  0.00  0.00    +0.000 HD
BRANCH  10  12
ATOM     12  C   UNL     1       1.299   8.649  18.916  0.00  0.00    +0.000 C 
BRANCH  12  13
ATOM     13  C   UNL     1       2.208   9.345  17.884  0.00  0.00    +0.000 C 
ATOM     14  N   UNL     1       2.135  10.713  17.850  0.00  0.00    +0.000 N 
ATOM     15  O   UNL     1       2.948   8.754  17.104  0.00  0.00    +0.000 OA
ATOM     16  H   UNL     1       1.339  11.209  18.229  0.00  0.00    +0.000 HD
ATOM     17  H   UNL     1       2.632  11.158  17.086  0.00  0.00    +0.000 HD
ENDBRANCH  12  13
BRANCH  12  18
ATOM     18  C   UNL     1       1.069   9.552  20.116  0.00  0.00    +0.000 C 
BRANCH  18  19
ATOM     19  C   UNL     1      -0.015  10.580  19.962  0.00  0.00    +0.000 A 
ATOM     20  C   UNL     1      -0.145  11.660  20.819  0.00  0.00    +0.000 A 
ATOM     21  N   UNL     1      -1.324  12.286  20.549  0.00  0.00    +0.000 N 
ATOM     22  C   UNL     1      -1.971  11.652  19.506  0.00  0.00    +0.000 A 
ATOM     23  C   UNL     1      -3.233  11.915  18.956  0.00  0.00    +0.000 A 
ATOM     24  C   UNL     1      -3.654  11.120  17.888  0.00  0.00    +0.000 A 
ATOM     25  C   UNL     1      -2.821  10.138  17.365  0.00  0.00    +0.000 A 
ATOM     26  C   UNL     1      -1.565   9.895  17.926  0.00  0.00    +0.000 A 
ATOM     27  C   UNL     1      -1.133  10.636  19.052  0.00  0.00    +0.000 A 
ATOM     28  H   UNL     1      -1.708  13.052  21.081  0.00  0.00    +0.000 HD
ENDBRANCH  18  19
ENDBRANCH  12  18
ENDBRANCH  10  12
ENDBRANCH   7   8
BRANCH   1  29
ATOM     29  C   UNL     1       5.007   5.297  19.456  0.00  0.00    +0.000 C 
BRANCH  29  30
ATOM     30  N   UNL     1       6.504   5.096  19.595  0.00  0.00    +0.000 NA
ATOM     31  H   UNL     1       6.785   5.560  20.470  0.00  0.00    +0.000 HD
ATOM     32  H   UNL     1       6.990   5.709  18.918  0.00  0.00    +0.000 HD
ENDBRANCH  29  30
BRANCH  29  33
ATOM     33  C   UNL     1       4.760   5.790  18.034  0.00  0.00    +0.000 C 
BRANCH  33  41
ATOM     34  C   UNL     1       3.409   3.625  16.718  0.00  0.00    +0.000 C 
ATOM     35  C   UNL     1       4.691   4.182  16.135  0.00  0.00    +0.000 A 
ATOM     36  C   UNL     1       5.168   3.589  14.957  0.00  0.00    +0.000 A 
ATOM     37  C   UNL     1       6.345   4.036  14.390  0.00  0.00    +0.000 A 
ATOM     38  C   UNL     1       7.062   5.062  14.984  0.00  0.00    +0.000 A 
ATOM     39  C   UNL     1       6.611   5.693  16.163  0.00  0.00    +0.000 A 
ATOM     40  C   UNL     1       7.512   6.781  16.674  0.00  0.00    +0.000 C 
ATOM     41  C   UNL     1       5.409   5.253  16.766  0.00  0.00    +0.000 A 
BRANCH  37  42
ATOM     42  O   UNL     1       6.840   3.491  13.245  0.00  0.00    +0.000 OA
ATOM     43  H   UNL     1       6.407   3.921  12.490  0.00  0.00    +0.000 HD
ENDBRANCH  37  42
ENDBRANCH  33  41
ENDBRANCH  29  33
ENDBRANCH   1  29
TORSDOF 10
ENDMDL
MODEL 4
REMARK VINA RESULT:      -7.9      3.767     11.168
REMARK  Name = 
REMARK  12 active torsions:
REMARK  status: ('A' for Active; 'I' for Inactive)
REMARK    1  A    between atoms: C_1  and  C_2
REMARK    2  A    between atoms: C_4  and  O_5
REMARK    3  A    between atoms: C_7  and  C_8
REMARK    4  A    between atoms: C_9  and  C_10
REMARK    5  A    between atoms: C_10  and  C_11
REMARK    6  A    between atoms: C_11  and  N_12
REMARK    7  A    between atoms: C_11  and  C_13
REMARK    8  A    between atoms: C_19  and  C_20
REMARK    9  A    between atoms: N_22  and  C_23
REMARK   10  A    between atoms: C_23  and  C_24
REMARK   11  A    between atoms: C_23  and  C_34
REMARK   12  A    between atoms: C_24  and  C_25
REMARK                            x       y       z     vdW  Elec       q    Type
REMARK                         _______ _______ _______ _____ _____    ______ ____
ROOT
ATOM      1  C   UNL     1       4.516   3.921  19.835  0.00  0.00    +0.000 C 
ATOM      2  O   UNL     1       5.250   2.938  19.935  0.00  0.00    +0.000 OA
ATOM      3  N   UNL     1       3.171   3.921  20.239  0.00  0.00    +0.000 N 
ATOM      4  C   UNL     1       2.616   2.645  20.675  0.00  0.00    +0.000 C 
ATOM      5  C   UNL     1       1.232   2.577  20.064  0.00  0.00    +0.000 C 
ATOM      6  C   UNL     1       0.797   4.029  20.043  0.00  0.00    +0.000 C 
ATOM      7  C   UNL     1       2.084   4.825  19.739  0.00  0.00    +0.000 C 
ENDROOT
BRANCH   7   8
ATOM      8  C   UNL     1       1.819   6.320  20.183  0.00  0.00    +0.000 C 
ATOM      9  O   UNL     1       1.395   6.566  21.311  0.00  0.00    +0.000 OA
ATOM     10  N   UNL     1       1.898   7.263  19.204  0.00  0.00    +0.000 N 
ATOM     11  H   UNL     1       2.454   7.032  18.398  0.00  0.00    +0.000 HD
BRANCH  10  12
ATOM     12  C   UNL     1       1.409   8.642  19.082  0.00  0.00    +0.000 C 
BRANCH  12  13
ATOM     13  C   UNL     1       2.248   9.357  18.004  0.00  0.00    +0.000 C 
ATOM     14  N   UNL     1       3.238   8.608  17.424  0.00  0.00    +0.000 N 
ATOM     15  O   UNL     1       2.092  10.527  17.670  0.00  0.00    +0.000 OA
ATOM     16  H   UNL     1       3.603   7.778  17.872  0.00  0.00    +0.000 HD
ATOM     17  H   UNL     1       3.869   9.116  16.814  0.00  0.00    +0.000 HD
ENDBRANCH  12  13
BRANCH  12  18
ATOM     18  C   UNL     1       1.281   9.513  20.320  0.00  0.00    +0.000 C 
BRANCH  18  19
ATOM     19  C   UNL     1       0.272  10.624  20.235  0.00  0.00    +0.000 A 
ATOM     20  C   UNL     1       0.278  11.703  21.103  0.00  0.00    +0.000 A 
ATOM     21  N   UNL     1      -0.863  12.421  20.908  0.00  0.00    +0.000 N 
ATOM     22  C   UNL     1      -1.618  11.848  19.903  0.00  0.00    +0.000 A 
ATOM     23  C   UNL     1      -2.887  12.212  19.431  0.00  0.00    +0.000 A 
ATOM     24  C   UNL     1      -3.432  11.461  18.387  0.00  0.00    +0.000 A 
ATOM     25  C   UNL     1      -2.710  10.422  17.810  0.00  0.00    +0.000 A 
ATOM     26  C   UNL     1      -1.444  10.078  18.293  0.00  0.00    +0.000 A 
ATOM     27  C   UNL     1      -0.890  10.774  19.394  0.00  0.00    +0.000 A 
ATOM     28  H   UNL     1      -1.154  13.209  21.464  0.00  0.00    +0.000 HD
ENDBRANCH  18  19
ENDBRANCH  12  18
ENDBRANCH  10  12
ENDBRANCH   7   8
BRANCH   1  29
ATOM     29  C   UNL     1       5.083   5.303  19.519  0.00  0.00    +0.000 C 
BRANCH  29  30
ATOM     30  N   UNL     1       6.565   5.143  19.800  0.00  0.00    +0.000 NA
ATOM     31  H   UNL     1       6.813   4.178  19.540  0.00  0.00    +0.000 HD
ATOM     32  H   UNL     1       6.708   5.082  20.823  0.00  0.00    +0.000 HD
ENDBRANCH  29  30
BRANCH  29  33
ATOM     33  C   UNL     1       4.962   5.862  18.104  0.00  0.00    +0.000 C 
BRANCH  33  41
ATOM     34  C   UNL     1       7.364   6.732  16.793  0.00  0.00    +0.000 C 
ATOM     35  C   UNL     1       6.547   5.602  16.202  0.00  0.00    +0.000 A 
ATOM     36  C   UNL     1       7.015   5.031  15.010  0.00  0.00    +0.000 A 
ATOM     37  C   UNL     1       6.301   4.012  14.409  0.00  0.00    +0.000 A 
ATOM     38  C   UNL     1       5.121   3.558  14.974  0.00  0.00    +0.000 A 
ATOM     39  C   UNL     1       4.622   4.097  16.179  0.00  0.00    +0.000 A 
ATOM     40  C   UNL     1       3.328   3.493  16.646  0.00  0.00    +0.000 C 
ATOM     41  C   UNL     1       5.332   5.143  16.814  0.00  0.00    +0.000 A 
BRANCH  37  42
ATOM     42  O   UNL     1       6.723   3.427  13.254  0.00  0.00    +0.000 OA
ATOM     43  H   UNL     1       7.665   3.213  13.347  0.00  0.00    +0.000 HD
ENDBRANCH  37  42
ENDBRANCH  33  41
ENDBRANCH  29  33
ENDBRANCH   1  29
TORSDOF 10
ENDMDL
MODEL 5
REMARK VINA RESULT:      -7.8      3.924     11.247
REMARK  Name = 
REMARK  12 active torsions:
REMARK  status: ('A' for Active; 'I' for Inactive)
REMARK    1  A    between atoms: C_1  and  C_2
REMARK    2  A    between atoms: C_4  and  O_5
REMARK    3  A    between atoms: C_7  and  C_8
REMARK    4  A    between atoms: C_9  and  C_10
REMARK    5  A    between atoms: C_10  and  C_11
REMARK    6  A    between atoms: C_11  and  N_12
REMARK    7  A    between atoms: C_11  and  C_13
REMARK    8  A    between atoms: C_19  and  C_20
REMARK    9  A    between atoms: N_22  and  C_23
REMARK   10  A    between atoms: C_23  and  C_24
REMARK   11  A    between atoms: C_23  and  C_34
REMARK   12  A    between atoms: C_24  and  C_25
REMARK                            x       y       z     vdW  Elec       q    Type
REMARK                         _______ _______ _______ _____ _____    ______ ____
ROOT
ATOM      1  C   UNL     1       4.459   3.999  19.773  0.00  0.00    +0.000 C 
ATOM      2  O   UNL     1       5.125   2.965  19.765  0.00  0.00    +0.000 OA
ATOM      3  N   UNL     1       3.142   4.064  20.258  0.00  0.00    +0.000 N 
ATOM      4  C   UNL     1       2.523   2.802  20.645  0.00  0.00    +0.000 C 
ATOM      5  C   UNL     1       1.105   2.869  20.117  0.00  0.00    +0.000 C 
ATOM      6  C   UNL     1       0.775   4.346  20.214  0.00  0.00    +0.000 C 
ATOM      7  C   UNL     1       2.096   5.071  19.883  0.00  0.00    +0.000 C 
ENDROOT
BRANCH   7   8
ATOM      8  C   UNL     1       1.964   6.547  20.436  0.00  0.00    +0.000 C 
ATOM      9  O   UNL     1       1.998   6.761  21.646  0.00  0.00    +0.000 OA
ATOM     10  N   UNL     1       1.623   7.503  19.528  0.00  0.00    +0.000 N 
ATOM     11  H   UNL     1       1.835   7.307  18.564  0.00  0.00    +0.000 HD
BRANCH  10  12
ATOM     12  C   UNL     1       1.072   8.859  19.642  0.00  0.00    +0.000 C 
BRANCH  12  13
ATOM     13  C   UNL     1       1.180   9.541  18.263  0.00  0.00    +0.000 C 
ATOM     14  N   UNL     1       1.873  10.721  18.233  0.00  0.00    +0.000 N 
ATOM     15  O   UNL     1       0.672   9.104  17.235  0.00  0.00    +0.000 OA
ATOM     16  H   UNL     1       2.027  11.265  19.072  0.00  0.00    +0.000 HD
ATOM     17  H   UNL     1       1.831  11.231  17.357  0.00  0.00    +0.000 HD
ENDBRANCH  12  13
BRANCH  12  18
ATOM     18  C   UNL     1       1.568   9.790  20.735  0.00  0.00    +0.000 C 
BRANCH  18  19
ATOM     19  C   UNL     1       0.546  10.195  21.761  0.00  0.00    +0.000 A 
ATOM     20  C   UNL     1       0.209   9.389  22.835  0.00  0.00    +0.000 A 
ATOM     21  N   UNL     1      -0.874   9.929  23.458  0.00  0.00    +0.000 N 
ATOM     22  C   UNL     1      -1.249  11.100  22.828  0.00  0.00    +0.000 A 
ATOM     23  C   UNL     1      -2.344  11.935  23.089  0.00  0.00    +0.000 A 
ATOM     24  C   UNL     1      -2.493  13.077  22.299  0.00  0.00    +0.000 A 
ATOM     25  C   UNL     1      -1.554  13.391  21.323  0.00  0.00    +0.000 A 
ATOM     26  C   UNL     1      -0.467  12.546  21.082  0.00  0.00    +0.000 A 
ATOM     27  C   UNL     1      -0.321  11.346  21.818  0.00  0.00    +0.000 A 
ATOM     28  H   UNL     1      -1.378   9.502  24.219  0.00  0.00    +0.000 HD
ENDBRANCH  18  19
ENDBRANCH  12  18
ENDBRANCH  10  12
ENDBRANCH   7   8
BRANCH   1  29
ATOM     29  C   UNL     1       5.104   5.358  19.510  0.00  0.00    +0.000 C 
BRANCH  29  30
ATOM     30  N   UNL     1       6.568   5.114  19.827  0.00  0.00    +0.000 NA
ATOM     31  H   UNL     1       7.006   4.775  18.959  0.00  0.00    +0.000 HD
ATOM     32  H   UNL     1       6.649   4.258  20.401  0.00  0.00    +0.000 HD
ENDBRANCH  29  30
BRANCH  29  33
ATOM     33  C   UNL     1       5.052   5.960  18.109  0.00  0.00    +0.000 C 
BRANCH  33  41
ATOM     34  C   UNL     1       7.471   6.779  16.795  0.00  0.00    +0.000 C 
ATOM     35  C   UNL     1       6.619   5.681  16.194  0.00  0.00    +0.000 A 
ATOM     36  C   UNL     1       7.064   5.113  14.992  0.00  0.00    +0.000 A 
ATOM     37  C   UNL     1       6.318   4.123  14.382  0.00  0.00    +0.000 A 
ATOM     38  C   UNL     1       5.128   3.695  14.947  0.00  0.00    +0.000 A 
ATOM     39  C   UNL     1       4.651   4.232  16.162  0.00  0.00    +0.000 A 
ATOM     40  C   UNL     1       3.344   3.658  16.629  0.00  0.00    +0.000 C 
ATOM     41  C   UNL     1       5.395   5.248  16.807  0.00  0.00    +0.000 A 
BRANCH  37  42
ATOM     42  O   UNL     1       6.717   3.542  13.216  0.00  0.00    +0.000 OA
ATOM     43  H   UNL     1       7.430   4.079  12.837  0.00  0.00    +0.000 HD
ENDBRANCH  37  42
ENDBRANCH  33  41
ENDBRANCH  29  33
ENDBRANCH   1  29
TORSDOF 10
ENDMDL
MODEL 6
REMARK VINA RESULT:      -7.8      3.626      5.946
REMARK  Name = 
REMARK  12 active torsions:
REMARK  status: ('A' for Active; 'I' for Inactive)
REMARK    1  A    between atoms: C_1  and  C_2
REMARK    2  A    between atoms: C_4  and  O_5
REMARK    3  A    between atoms: C_7  and  C_8
REMARK    4  A    between atoms: C_9  and  C_10
REMARK    5  A    between atoms: C_10  and  C_11
REMARK    6  A    between atoms: C_11  and  N_12
REMARK    7  A    between atoms: C_11  and  C_13
REMARK    8  A    between atoms: C_19  and  C_20
REMARK    9  A    between atoms: N_22  and  C_23
REMARK   10  A    between atoms: C_23  and  C_24
REMARK   11  A    between atoms: C_23  and  C_34
REMARK   12  A    between atoms: C_24  and  C_25
REMARK                            x       y       z     vdW  Elec       q    Type
REMARK                         _______ _______ _______ _____ _____    ______ ____
ROOT
ATOM      1  C   UNL     1      -0.791  11.341  20.441  0.00  0.00    +0.000 C 
ATOM      2  O   UNL     1      -1.740  12.040  20.792  0.00  0.00    +0.000 OA
ATOM      3  N   UNL     1      -0.359  10.212  21.156  0.00  0.00    +0.000 N 
ATOM      4  C   UNL     1      -1.007   9.960  22.438  0.00  0.00    +0.000 C 
ATOM      5  C   UNL     1       0.107   9.553  23.380  0.00  0.00    +0.000 C 
ATOM      6  C   UNL     1       1.081   8.835  22.467  0.00  0.00    +0.000 C 
ATOM      7  C   UNL     1       1.011   9.603  21.130  0.00  0.00    +0.000 C 
ENDROOT
BRANCH   7   8
ATOM      8  C   UNL     1       1.598   8.645  20.016  0.00  0.00    +0.000 C 
ATOM      9  O   UNL     1       1.396   8.881  18.827  0.00  0.00    +0.000 OA
ATOM     10  N   UNL     1       2.150   7.478  20.453  0.00  0.00    +0.000 N 
ATOM     11  H   UNL     1       2.478   7.463  21.404  0.00  0.00    +0.000 HD
BRANCH  10  12
ATOM     12  C   UNL     1       2.474   6.204  19.801  0.00  0.00    +0.000 C 
BRANCH  12  13
ATOM     13  C   UNL     1       1.747   5.076  20.560  0.00  0.00    +0.000 C 
ATOM     14  N   UNL     1       2.397   4.582  21.660  0.00  0.00    +0.000 N 
ATOM     15  O   UNL     1       0.667   4.601  20.224  0.00  0.00    +0.000 OA
ATOM     16  H   UNL     1       3.392   4.708  21.787  0.00  0.00    +0.000 HD
ATOM     17  H   UNL     1       1.982   3.757  22.079  0.00  0.00    +0.000 HD
ENDBRANCH  12  13
BRANCH  12  18
ATOM     18  C   UNL     1       3.924   5.827  19.549  0.00  0.00    +0.000 C 
BRANCH  18  19
ATOM     19  C   UNL     1       4.162   4.864  18.420  0.00  0.00    +0.000 A 
ATOM     20  C   UNL     1       3.995   3.497  18.561  0.00  0.00    +0.000 A 
ATOM     21  N   UNL     1       4.478   2.886  17.444  0.00  0.00    +0.000 N 
ATOM     22  C   UNL     1       4.943   3.830  16.549  0.00  0.00    +0.000 A 
ATOM     23  C   UNL     1       5.583   3.643  15.316  0.00  0.00    +0.000 A 
ATOM     24  C   UNL     1       5.949   4.781  14.595  0.00  0.00    +0.000 A 
ATOM     25  C   UNL     1       5.641   6.051  15.071  0.00  0.00    +0.000 A 
ATOM     26  C   UNL     1       4.998   6.214  16.301  0.00  0.00    +0.000 A 
ATOM     27  C   UNL     1       4.672   5.085  17.090  0.00  0.00    +0.000 A 
ATOM     28  H   UNL     1       4.558   1.889  17.317  0.00  0.00    +0.000 HD
ENDBRANCH  18  19
ENDBRANCH  12  18
ENDBRANCH  10  12
ENDBRANCH   7   8
BRANCH   1  29
ATOM     29  C   UNL     1      -0.178  11.481  19.049  0.00  0.00    +0.000 C 
BRANCH  29  30
ATOM     30  N   UNL     1      -1.091  10.636  18.181  0.00  0.00    +0.000 NA
ATOM     31  H   UNL     1      -1.645  10.047  18.819  0.00  0.00    +0.000 HD
ATOM     32  H   UNL     1      -0.530   9.900  17.720  0.00  0.00    +0.000 HD
ENDBRANCH  29  30
BRANCH  29  33
ATOM     33  C   UNL     1      -0.099  12.857  18.395  0.00  0.00    +0.000 C 
BRANCH  33  41
ATOM     34  C   UNL     1       2.729  12.754  17.905  0.00  0.00    +0.000 C 
ATOM     35  C   UNL     1       2.126  13.954  18.604  0.00  0.00    +0.000 A 
ATOM     36  C   UNL     1       3.005  14.975  18.994  0.00  0.00    +0.000 A 
ATOM     37  C   UNL     1       2.520  16.085  19.657  0.00  0.00    +0.000 A 
ATOM     38  C   UNL     1       1.170  16.190  19.948  0.00  0.00    +0.000 A 
ATOM     39  C   UNL     1       0.250  15.192  19.564  0.00  0.00    +0.000 A 
ATOM     40  C   UNL     1      -1.172  15.463  19.963  0.00  0.00    +0.000 C 
ATOM     41  C   UNL     1       0.721  14.043  18.884  0.00  0.00    +0.000 A 
BRANCH  37  42
ATOM     42  O   UNL     1       3.338  17.101  20.048  0.00  0.00    +0.000 OA
ATOM     43  H   UNL     1       2.890  17.941  19.865  0.00  0.00    +0.000 HD
ENDBRANCH  37  42
ENDBRANCH  33  41
ENDBRANCH  29  33
ENDBRANCH   1  29
TORSDOF 10
ENDMDL
MODEL 7
REMARK VINA RESULT:      -7.8      4.123     11.215
REMARK  Name = 
REMARK  12 active torsions:
REMARK  status: ('A' for Active; 'I' for Inactive)
REMARK    1  A    between atoms: C_1  and  C_2
REMARK    2  A    between atoms: C_4  and  O_5
REMARK    3  A    between atoms: C_7  and  C_8
REMARK    4  A    between atoms: C_9  and  C_10
REMARK    5  A    between atoms: C_10  and  C_11
REMARK    6  A    between atoms: C_11  and  N_12
REMARK    7  A    between atoms: C_11  and  C_13
REMARK    8  A    between atoms: C_19  and  C_20
REMARK    9  A    between atoms: N_22  and  C_23
REMARK   10  A    between atoms: C_23  and  C_24
REMARK   11  A    between atoms: C_23  and  C_34
REMARK   12  A    between atoms: C_24  and  C_25
REMARK                            x       y       z     vdW  Elec       q    Type
REMARK                         _______ _______ _______ _____ _____    ______ ____
ROOT
ATOM      1  C   UNL     1       4.495   3.902  19.678  0.00  0.00    +0.000 C 
ATOM      2  O   UNL     1       5.227   2.915  19.621  0.00  0.00    +0.000 OA
ATOM      3  N   UNL     1       3.179   3.857  20.169  0.00  0.00    +0.000 N 
ATOM      4  C   UNL     1       2.647   2.540  20.499  0.00  0.00    +0.000 C 
ATOM      5  C   UNL     1       1.225   2.538  19.979  0.00  0.00    +0.000 C 
ATOM      6  C   UNL     1       0.798   3.983  20.145  0.00  0.00    +0.000 C 
ATOM      7  C   UNL     1       2.067   4.808  19.844  0.00  0.00    +0.000 C 
ENDROOT
BRANCH   7   8
ATOM      8  C   UNL     1       1.841   6.246  20.465  0.00  0.00    +0.000 C 
ATOM      9  O   UNL     1       1.226   6.375  21.521  0.00  0.00    +0.000 OA
ATOM     10  N   UNL     1       2.186   7.303  19.679  0.00  0.00    +0.000 N 
ATOM     11  H   UNL     1       2.870   7.128  18.961  0.00  0.00    +0.000 HD
BRANCH  10  12
ATOM     12  C   UNL     1       1.844   8.731  19.692  0.00  0.00    +0.000 C 
BRANCH  12  13
ATOM     13  C   UNL     1       1.132   9.043  21.024  0.00  0.00    +0.000 C 
ATOM     14  N   UNL     1      -0.222   8.839  21.039  0.00  0.00    +0.000 N 
ATOM     15  O   UNL     1       1.696   9.472  22.025  0.00  0.00    +0.000 OA
ATOM     16  H   UNL     1      -0.760   8.798  20.183  0.00  0.00    +0.000 HD
ATOM     17  H   UNL     1      -0.705   9.167  21.868  0.00  0.00    +0.000 HD
ENDBRANCH  12  13
BRANCH  12  18
ATOM     18  C   UNL     1       1.083   9.340  18.527  0.00  0.00    +0.000 C 
BRANCH  18  19
ATOM     19  C   UNL     1       1.192  10.832  18.384  0.00  0.00    +0.000 A 
ATOM     20  C   UNL     1       2.315  11.449  17.859  0.00  0.00    +0.000 A 
ATOM     21  N   UNL     1       2.198  12.792  18.049  0.00  0.00    +0.000 N 
ATOM     22  C   UNL     1       0.998  13.081  18.671  0.00  0.00    +0.000 A 
ATOM     23  C   UNL     1       0.507  14.316  19.117  0.00  0.00    +0.000 A 
ATOM     24  C   UNL     1      -0.755  14.334  19.716  0.00  0.00    +0.000 A 
ATOM     25  C   UNL     1      -1.509  13.170  19.815  0.00  0.00    +0.000 A 
ATOM     26  C   UNL     1      -1.001  11.951  19.359  0.00  0.00    +0.000 A 
ATOM     27  C   UNL     1       0.301  11.883  18.809  0.00  0.00    +0.000 A 
ATOM     28  H   UNL     1       2.911  13.472  17.838  0.00  0.00    +0.000 HD
ENDBRANCH  18  19
ENDBRANCH  12  18
ENDBRANCH  10  12
ENDBRANCH   7   8
BRANCH   1  29
ATOM     29  C   UNL     1       5.047   5.311  19.476  0.00  0.00    +0.000 C 
BRANCH  29  30
ATOM     30  N   UNL     1       6.505   5.171  19.871  0.00  0.00    +0.000 NA
ATOM     31  H   UNL     1       6.725   5.971  20.481  0.00  0.00    +0.000 HD
ATOM     32  H   UNL     1       7.098   5.413  19.058  0.00  0.00    +0.000 HD
ENDBRANCH  29  30
BRANCH  29  33
ATOM     33  C   UNL     1       5.026   5.938  18.086  0.00  0.00    +0.000 C 
BRANCH  33  41
ATOM     34  C   UNL     1       7.468   6.771  16.824  0.00  0.00    +0.000 C 
ATOM     35  C   UNL     1       6.622   5.685  16.192  0.00  0.00    +0.000 A 
ATOM     36  C   UNL     1       7.085   5.136  14.987  0.00  0.00    +0.000 A 
ATOM     37  C   UNL     1       6.346   4.159  14.349  0.00  0.00    +0.000 A 
ATOM     38  C   UNL     1       5.146   3.725  14.888  0.00  0.00    +0.000 A 
ATOM     39  C   UNL     1       4.652   4.243  16.104  0.00  0.00    +0.000 A 
ATOM     40  C   UNL     1       3.335   3.666  16.541  0.00  0.00    +0.000 C 
ATOM     41  C   UNL     1       5.387   5.246  16.778  0.00  0.00    +0.000 A 
BRANCH  37  42
ATOM     42  O   UNL     1       6.761   3.596  13.180  0.00  0.00    +0.000 OA
ATOM     43  H   UNL     1       7.710   3.772  13.077  0.00  0.00    +0.000 HD
ENDBRANCH  37  42
ENDBRANCH  33  41
ENDBRANCH  29  33
ENDBRANCH   1  29
TORSDOF 10
ENDMDL
MODEL 8
REMARK VINA RESULT:      -7.8      3.919     11.059
REMARK  Name = 
REMARK  12 active torsions:
REMARK  status: ('A' for Active; 'I' for Inactive)
REMARK    1  A    between atoms: C_1  and  C_2
REMARK    2  A    between atoms: C_4  and  O_5
REMARK    3  A    between atoms: C_7  and  C_8
REMARK    4  A    between atoms: C_9  and  C_10
REMARK    5  A    between atoms: C_10  and  C_11
REMARK    6  A    between atoms: C_11  and  N_12
REMARK    7  A    between atoms: C_11  and  C_13
REMARK    8  A    between atoms: C_19  and  C_20
REMARK    9  A    between atoms: N_22  and  C_23
REMARK   10  A    between atoms: C_23  and  C_24
REMARK   11  A    between atoms: C_23  and  C_34
REMARK   12  A    between atoms: C_24  and  C_25
REMARK                            x       y       z     vdW  Elec       q    Type
REMARK                         _______ _______ _______ _____ _____    ______ ____
ROOT
ATOM      1  C   UNL     1       4.470   4.314  19.890  0.00  0.00    +0.000 C 
ATOM      2  O   UNL     1       5.102   3.284  20.120  0.00  0.00    +0.000 OA
ATOM      3  N   UNL     1       3.133   4.501  20.280  0.00  0.00    +0.000 N 
ATOM      4  C   UNL     1       2.456   3.353  20.871  0.00  0.00    +0.000 C 
ATOM      5  C   UNL     1       1.068   3.347  20.264  0.00  0.00    +0.000 C 
ATOM      6  C   UNL     1       0.781   4.820  20.054  0.00  0.00    +0.000 C 
ATOM      7  C   UNL     1       2.139   5.437  19.660  0.00  0.00    +0.000 C 
ENDROOT
BRANCH   7   8
ATOM      8  C   UNL     1       2.028   6.996  19.907  0.00  0.00    +0.000 C 
ATOM      9  O   UNL     1       2.662   7.782  19.205  0.00  0.00    +0.000 OA
ATOM     10  N   UNL     1       1.366   7.383  21.033  0.00  0.00    +0.000 N 
ATOM     11  H   UNL     1       0.702   6.728  21.414  0.00  0.00    +0.000 HD
BRANCH  10  12
ATOM     12  C   UNL     1       1.327   8.628  21.809  0.00  0.00    +0.000 C 
BRANCH  12  13
ATOM     13  C   UNL     1      -0.062   8.741  22.469  0.00  0.00    +0.000 C 
ATOM     14  N   UNL     1      -0.097   9.382  23.679  0.00  0.00    +0.000 N 
ATOM     15  O   UNL     1      -1.094   8.279  21.993  0.00  0.00    +0.000 OA
ATOM     16  H   UNL     1       0.735   9.491  24.244  0.00  0.00    +0.000 HD
ATOM     17  H   UNL     1      -0.983   9.340  24.171  0.00  0.00    +0.000 HD
ENDBRANCH  12  13
BRANCH  12  18
ATOM     18  C   UNL     1       1.712   9.943  21.153  0.00  0.00    +0.000 C 
BRANCH  18  19
ATOM     19  C   UNL     1       0.572  10.776  20.640  0.00  0.00    +0.000 A 
ATOM     20  C   UNL     1       0.051  11.844  21.351  0.00  0.00    +0.000 A 
ATOM     21  N   UNL     1      -1.088  12.261  20.731  0.00  0.00    +0.000 N 
ATOM     22  C   UNL     1      -1.320  11.501  19.601  0.00  0.00    +0.000 A 
ATOM     23  C   UNL     1      -2.405  11.538  18.715  0.00  0.00    +0.000 A 
ATOM     24  C   UNL     1      -2.391  10.655  17.633  0.00  0.00    +0.000 A 
ATOM     25  C   UNL     1      -1.309   9.808  17.424  0.00  0.00    +0.000 A 
ATOM     26  C   UNL     1      -0.235   9.790  18.318  0.00  0.00    +0.000 A 
ATOM     27  C   UNL     1      -0.247  10.623  19.462  0.00  0.00    +0.000 A 
ATOM     28  H   UNL     1      -1.714  12.969  21.083  0.00  0.00    +0.000 HD
ENDBRANCH  18  19
ENDBRANCH  12  18
ENDBRANCH  10  12
ENDBRANCH   7   8
BRANCH   1  29
ATOM     29  C   UNL     1       5.170   5.581  19.403  0.00  0.00    +0.000 C 
BRANCH  29  30
ATOM     30  N   UNL     1       6.640   5.259  19.595  0.00  0.00    +0.000 NA
ATOM     31  H   UNL     1       6.685   4.322  20.020  0.00  0.00    +0.000 HD
ATOM     32  H   UNL     1       7.006   5.818  20.385  0.00  0.00    +0.000 HD
ENDBRANCH  29  30
BRANCH  29  33
ATOM     33  C   UNL     1       5.003   6.025  17.954  0.00  0.00    +0.000 C 
BRANCH  33  41
ATOM     34  C   UNL     1       7.367   6.806  16.522  0.00  0.00    +0.000 C 
ATOM     35  C   UNL     1       6.545   5.629  16.040  0.00  0.00    +0.000 A 
ATOM     36  C   UNL     1       6.989   4.971  14.883  0.00  0.00    +0.000 A 
ATOM     37  C   UNL     1       6.269   3.906  14.380  0.00  0.00    +0.000 A 
ATOM     38  C   UNL     1       5.105   3.490  15.006  0.00  0.00    +0.000 A 
ATOM     39  C   UNL     1       4.631   4.116  16.177  0.00  0.00    +0.000 A 
ATOM     40  C   UNL     1       3.353   3.542  16.720  0.00  0.00    +0.000 C 
ATOM     41  C   UNL     1       5.348   5.212  16.714  0.00  0.00    +0.000 A 
BRANCH  37  42
ATOM     42  O   UNL     1       6.668   3.236  13.263  0.00  0.00    +0.000 OA
ATOM     43  H   UNL     1       6.117   3.528  12.519  0.00  0.00    +0.000 HD
ENDBRANCH  37  42
ENDBRANCH  33  41
ENDBRANCH  29  33
ENDBRANCH   1  29
TORSDOF 10
ENDMDL
MODEL 9
REMARK VINA RESULT:      -7.8      5.453      8.184
REMARK  Name = 
REMARK  12 active torsions:
REMARK  status: ('A' for Active; 'I' for Inactive)
REMARK    1  A    between atoms: C_1  and  C_2
REMARK    2  A    between atoms: C_4  and  O_5
REMARK    3  A    between atoms: C_7  and  C_8
REMARK    4  A    between atoms: C_9  and  C_10
REMARK    5  A    between atoms: C_10  and  C_11
REMARK    6  A    between atoms: C_11  and  N_12
REMARK    7  A    between atoms: C_11  and  C_13
REMARK    8  A    between atoms: C_19  and  C_20
REMARK    9  A    between atoms: N_22  and  C_23
REMARK   10  A    between atoms: C_23  and  C_24
REMARK   11  A    between atoms: C_23  and  C_34
REMARK   12  A    between atoms: C_24  and  C_25
REMARK                            x       y       z     vdW  Elec       q    Type
REMARK                         _______ _______ _______ _____ _____    ______ ____
ROOT
ATOM      1  C   UNL     1      -0.038  13.445  19.525  0.00  0.00    +0.000 C 
ATOM      2  O   UNL     1      -1.251  13.363  19.711  0.00  0.00    +0.000 OA
ATOM      3  N   UNL     1       0.652  14.667  19.471  0.00  0.00    +0.000 N 
ATOM      4  C   UNL     1      -0.157  15.880  19.515  0.00  0.00    +0.000 C 
ATOM      5  C   UNL     1       0.456  16.810  18.489  0.00  0.00    +0.000 C 
ATOM      6  C   UNL     1       1.928  16.454  18.541  0.00  0.00    +0.000 C 
ATOM      7  C   UNL     1       1.959  14.931  18.786  0.00  0.00    +0.000 C 
ENDROOT
BRANCH   7   8
ATOM      8  C   UNL     1       3.401  14.580  19.334  0.00  0.00    +0.000 C 
ATOM      9  O   UNL     1       3.550  14.214  20.498  0.00  0.00    +0.000 OA
ATOM     10  N   UNL     1       4.449  14.893  18.521  0.00  0.00    +0.000 N 
ATOM     11  H   UNL     1       4.250  14.966  17.536  0.00  0.00    +0.000 HD
BRANCH  10  12
ATOM     12  C   UNL     1       5.889  15.069  18.744  0.00  0.00    +0.000 C 
BRANCH  12  13
ATOM     13  C   UNL     1       6.109  16.448  19.399  0.00  0.00    +0.000 C 
ATOM     14  N   UNL     1       6.372  16.435  20.743  0.00  0.00    +0.000 N 
ATOM     15  O   UNL     1       6.038  17.516  18.801  0.00  0.00    +0.000 OA
ATOM     16  H   UNL     1       6.132  15.640  21.322  0.00  0.00    +0.000 HD
ATOM     17  H   UNL     1       6.386  17.343  21.195  0.00  0.00    +0.000 HD
ENDBRANCH  12  13
BRANCH  12  18
ATOM     18  C   UNL     1       6.866  14.861  17.600  0.00  0.00    +0.000 C 
BRANCH  18  19
ATOM     19  C   UNL     1       8.303  14.669  17.995  0.00  0.00    +0.000 A 
ATOM     20  C   UNL     1       9.150  15.732  18.262  0.00  0.00    +0.000 A 
ATOM     21  N   UNL     1      10.418  15.252  18.387  0.00  0.00    +0.000 N 
ATOM     22  C   UNL     1      10.424  13.879  18.232  0.00  0.00    +0.000 A 
ATOM     23  C   UNL     1      11.512  12.995  18.211  0.00  0.00    +0.000 A 
ATOM     24  C   UNL     1      11.240  11.635  18.044  0.00  0.00    +0.000 A 
ATOM     25  C   UNL     1       9.929  11.181  17.952  0.00  0.00    +0.000 A 
ATOM     26  C   UNL     1       8.859  12.080  17.979  0.00  0.00    +0.000 A 
ATOM     27  C   UNL     1       9.101  13.471  18.079  0.00  0.00    +0.000 A 
ATOM     28  H   UNL     1      11.244  15.819  18.499  0.00  0.00    +0.000 HD
ENDBRANCH  18  19
ENDBRANCH  12  18
ENDBRANCH  10  12
ENDBRANCH   7   8
BRANCH   1  29
ATOM     29  C   UNL     1       0.861  12.214  19.613  0.00  0.00    +0.000 C 
BRANCH  29  30
ATOM     30  N   UNL     1       1.293  12.203  21.067  0.00  0.00    +0.000 NA
ATOM     31  H   UNL     1       1.570  11.236  21.286  0.00  0.00    +0.000 HD
ATOM     32  H   UNL     1       0.454  12.277  21.667  0.00  0.00    +0.000 HD
ENDBRANCH  29  30
BRANCH  29  33
ATOM     33  C   UNL     1       0.282  10.834  19.316  0.00  0.00    +0.000 C 
BRANCH  33  41
ATOM     34  C   UNL     1       2.062   9.372  17.601  0.00  0.00    +0.000 C 
ATOM     35  C   UNL     1       1.696   8.816  18.961  0.00  0.00    +0.000 A 
ATOM     36  C   UNL     1       2.254   7.580  19.317  0.00  0.00    +0.000 A 
ATOM     37  C   UNL     1       1.940   7.009  20.535  0.00  0.00    +0.000 A 
ATOM     38  C   UNL     1       1.070   7.647  21.402  0.00  0.00    +0.000 A 
ATOM     39  C   UNL     1       0.496   8.897  21.088  0.00  0.00    +0.000 A 
ATOM     40  C   UNL     1      -0.429   9.443  22.139  0.00  0.00    +0.000 C 
ATOM     41  C   UNL     1       0.799   9.504  19.846  0.00  0.00    +0.000 A 
BRANCH  37  42
ATOM     42  O   UNL     1       2.464   5.812  20.921  0.00  0.00    +0.000 OA
ATOM     43  H   UNL     1       2.764   5.894  21.840  0.00  0.00    +0.000 HD
ENDBRANCH  37  42
ENDBRANCH  33  41
ENDBRANCH  29  33
ENDBRANCH   1  29
TORSDOF 10
ENDMDL
