MODEL 1
REMARK VINA RESULT:      -7.5      0.000      0.000
REMARK  Name = 
REMARK  11 active torsions:
REMARK  status: ('A' for Active; 'I' for Inactive)
REMARK    1  A    between atoms: C_1  and  N_2
REMARK    2  A    between atoms: N_2  and  C_3
REMARK    3  A    between atoms: N_2  and  C_20
REMARK    4  A    between atoms: C_3  and  C_4
REMARK    5  A    between atoms: C_4  and  O_5
REMARK    6  A    between atoms: O_5  and  N_6
REMARK    7  A    between atoms: C_7  and  C_8
REMARK    8  A    between atoms: C_7  and  C_14
REMARK    9  A    between atoms: C_20  and  C_21
REMARK   10  A    between atoms: C_21  and  C_22
REMARK   11  A    between atoms: C_22  and  O_24
REMARK                            x       y       z     vdW  Elec       q    Type
REMARK                         _______ _______ _______ _____ _____    ______ ____
ROOT
ATOM      1  N   UNL     1       3.921   5.890  18.172  0.00  0.00    +0.000 NA
ATOM      2  C   UNL     1       2.886   6.009  18.966  0.00  0.00    +0.000 C 
ENDROOT
BRANCH   2   3
ATOM      3  C   UNL     1       2.268   4.876  19.743  0.00  0.00    +0.000 A 
ATOM      4  C   UNL     1       2.676   4.571  21.051  0.00  0.00    +0.000 A 
ATOM      5  C   UNL     1       2.145   3.469  21.725  0.00  0.00    +0.000 A 
ATOM      6  C   UNL     1       1.156   2.695  21.124  0.00  0.00    +0.000 A 
ATOM      7  C   UNL     1       0.716   3.004  19.838  0.00  0.00    +0.000 A 
ATOM      8  C   UNL     1       1.285   4.073  19.140  0.00  0.00    +0.000 A 
ENDBRANCH   2   3
BRANCH   2   9
ATOM      9  C   UNL     1       2.261   7.379  19.060  0.00  0.00    +0.000 A 
ATOM     10  C   UNL     1       2.218   8.188  17.916  0.00  0.00    +0.000 A 
ATOM     11  C   UNL     1       1.603   9.440  17.963  0.00  0.00    +0.000 A 
ATOM     12  C   UNL     1       1.022   9.892  19.141  0.00  0.00    +0.000 A 
ATOM     13  C   UNL     1       1.072   9.105  20.288  0.00  0.00    +0.000 A 
ATOM     14  C   UNL     1       1.705   7.857  20.253  0.00  0.00    +0.000 A 
ENDBRANCH   2   9
BRANCH   1  15
ATOM     15  O   UNL     1       4.396   4.579  18.127  0.00  0.00    +0.000 OA
BRANCH  15  16
ATOM     16  C   UNL     1       4.194   4.019  16.837  0.00  0.00    +0.000 C 
BRANCH  16  17
ATOM     17  C   UNL     1       5.576   3.814  16.181  0.00  0.00    +0.000 C 
BRANCH  17  19
ATOM     18  C   UNL     1       6.743   4.534  14.172  0.00  0.00    +0.000 C 
ATOM     19  N   UNL     1       6.136   4.974  15.430  0.00  0.00    +0.000 NA
BRANCH  19  20
ATOM     20  C   UNL     1       7.104   5.692  16.295  0.00  0.00    +0.000 C 
BRANCH  20  21
ATOM     21  C   UNL     1       7.561   4.880  17.509  0.00  0.00    +0.000 C 
BRANCH  21  22
ATOM     22  C   UNL     1       7.572   5.724  18.759  0.00  0.00    +0.000 C 
ATOM     23  O   UNL     1       8.245   6.728  18.934  0.00  0.00    +0.000 OA
BRANCH  22  24
ATOM     24  O   UNL     1       6.720   5.252  19.701  0.00  0.00    +0.000 OA
ATOM     25  H   UNL     1       5.861   4.957  19.341  0.00  0.00    +0.000 HD
ENDBRANCH  22  24
ENDBRANCH  21  22
ENDBRANCH  20  21
ENDBRANCH  19  20
ENDBRANCH  17  19
ENDBRANCH  16  17
ENDBRANCH  15  16
ENDBRANCH   1  15
TORSDOF 10
ENDMDL
MODEL 2
REMARK VINA RESULT:      -7.5      0.898      1.142
REMARK  Name = 
REMARK  11 active torsions:
REMARK  status: ('A' for Active; 'I' for Inactive)
REMARK    1  A    between atoms: C_1  and  N_2
REMARK    2  A    between atoms: N_2  and  C_3
REMARK    3  A    between atoms: N_2  and  C_20
REMARK    4  A    between atoms: C_3  and  C_4
REMARK    5  A    between atoms: C_4  and  O_5
REMARK    6  A    between atoms: O_5  and  N_6
REMARK    7  A    between atoms: C_7  and  C_8
REMARK    8  A    between atoms: C_7  and  C_14
REMARK    9  A    between atoms: C_20  and  C_21
REMARK   10  A    between atoms: C_21  and  C_22
REMARK   11  A    between atoms: C_22  and  O_24
REMARK                            x       y       z     vdW  Elec       q    Type
REMARK                         _______ _______ _______ _____ _____    ______ ____
ROOT
ATOM      1  N   UNL     1       3.321   5.908  17.638  0.00  0.00    +0.000 NA
ATOM      2  C   UNL     1       2.547   6.032  18.687  0.00  0.00    +0.000 C 
ENDROOT
BRANCH   2   3
ATOM      3  C   UNL     1       2.108   4.891  19.567  0.00  0.00    +0.000 A 
ATOM      4  C   UNL     1       2.637   4.708  20.854  0.00  0.00    +0.000 A 
ATOM      5  C   UNL     1       2.274   3.600  21.624  0.00  0.00    +0.000 A 
ATOM      6  C   UNL     1       1.333   2.695  21.141  0.00  0.00    +0.000 A 
ATOM      7  C   UNL     1       0.772   2.881  19.878  0.00  0.00    +0.000 A 
ATOM      8  C   UNL     1       1.175   3.958  19.084  0.00  0.00    +0.000 A 
ENDBRANCH   2   3
BRANCH   2   9
ATOM      9  C   UNL     1       2.038   7.419  18.991  0.00  0.00    +0.000 A 
ATOM     10  C   UNL     1       1.964   8.359  17.954  0.00  0.00    +0.000 A 
ATOM     11  C   UNL     1       1.452   9.635  18.196  0.00  0.00    +0.000 A 
ATOM     12  C   UNL     1       1.005   9.982  19.465  0.00  0.00    +0.000 A 
ATOM     13  C   UNL     1       1.087   9.062  20.508  0.00  0.00    +0.000 A 
ATOM     14  C   UNL     1       1.619   7.788  20.276  0.00  0.00    +0.000 A 
ENDBRANCH   2   9
BRANCH   1  15
ATOM     15  O   UNL     1       3.702   4.583  17.424  0.00  0.00    +0.000 OA
BRANCH  15  16
ATOM     16  C   UNL     1       4.677   4.505  16.393  0.00  0.00    +0.000 C 
BRANCH  16  17
ATOM     17  C   UNL     1       5.162   5.936  16.083  0.00  0.00    +0.000 C 
BRANCH  17  19
ATOM     18  C   UNL     1       7.378   4.933  16.131  0.00  0.00    +0.000 C 
ATOM     19  N   UNL     1       6.625   6.188  16.217  0.00  0.00    +0.000 NA
BRANCH  19  20
ATOM     20  C   UNL     1       6.882   6.904  17.490  0.00  0.00    +0.000 C 
BRANCH  20  21
ATOM     21  C   UNL     1       7.904   6.207  18.392  0.00  0.00    +0.000 C 
BRANCH  21  22
ATOM     22  C   UNL     1       7.234   5.552  19.573  0.00  0.00    +0.000 C 
ATOM     23  O   UNL     1       6.078   5.161  19.610  0.00  0.00    +0.000 OA
BRANCH  22  24
ATOM     24  O   UNL     1       8.076   5.420  20.628  0.00  0.00    +0.000 OA
ATOM     25  H   UNL     1       8.562   4.573  20.637  0.00  0.00    +0.000 HD
ENDBRANCH  22  24
ENDBRANCH  21  22
ENDBRANCH  20  21
ENDBRANCH  19  20
ENDBRANCH  17  19
ENDBRANCH  16  17
ENDBRANCH  15  16
ENDBRANCH   1  15
TORSDOF 10
ENDMDL
MODEL 3
REMARK VINA RESULT:      -7.4      2.514      6.771
REMARK  Name = 
REMARK  11 active torsions:
REMARK  status: ('A' for Active; 'I' for Inactive)
REMARK    1  A    between atoms: C_1  and  N_2
REMARK    2  A    between atoms: N_2  and  C_3
REMARK    3  A    between atoms: N_2  and  C_20
REMARK    4  A    between atoms: C_3  and  C_4
REMARK    5  A    between atoms: C_4  and  O_5
REMARK    6  A    between atoms: O_5  and  N_6
REMARK    7  A    between atoms: C_7  and  C_8
REMARK    8  A    between atoms: C_7  and  C_14
REMARK    9  A    between atoms: C_20  and  C_21
REMARK   10  A    between atoms: C_21  and  C_22
REMARK   11  A    between atoms: C_22  and  O_24
REMARK                            x       y       z     vdW  Elec       q    Type
REMARK                         _______ _______ _______ _____ _____    ______ ____
ROOT
ATOM      1  N   UNL     1       4.527   4.145  16.397  0.00  0.00    +0.000 NA
ATOM      2  C   UNL     1       5.686   4.671  16.088  0.00  0.00    +0.000 C 
ENDROOT
BRANCH   2   3
ATOM      3  C   UNL     1       6.531   5.492  17.028  0.00  0.00    +0.000 A 
ATOM      4  C   UNL     1       6.599   6.890  16.925  0.00  0.00    +0.000 A 
ATOM      5  C   UNL     1       7.448   7.625  17.755  0.00  0.00    +0.000 A 
ATOM      6  C   UNL     1       8.193   6.978  18.738  0.00  0.00    +0.000 A 
ATOM      7  C   UNL     1       8.111   5.593  18.875  0.00  0.00    +0.000 A 
ATOM      8  C   UNL     1       7.304   4.850  18.010  0.00  0.00    +0.000 A 
ENDBRANCH   2   3
BRANCH   2   9
ATOM      9  C   UNL     1       6.168   4.462  14.674  0.00  0.00    +0.000 A 
ATOM     10  C   UNL     1       5.433   3.628  13.821  0.00  0.00    +0.000 A 
ATOM     11  C   UNL     1       5.829   3.454  12.494  0.00  0.00    +0.000 A 
ATOM     12  C   UNL     1       6.952   4.112  12.006  0.00  0.00    +0.000 A 
ATOM     13  C   UNL     1       7.700   4.931  12.848  0.00  0.00    +0.000 A 
ATOM     14  C   UNL     1       7.319   5.092  14.185  0.00  0.00    +0.000 A 
ENDBRANCH   2   9
BRANCH   1  15
ATOM     15  O   UNL     1       4.157   4.430  17.712  0.00  0.00    +0.000 OA
BRANCH  15  16
ATOM     16  C   UNL     1       2.951   5.180  17.739  0.00  0.00    +0.000 C 
BRANCH  16  17
ATOM     17  C   UNL     1       1.777   4.192  17.906  0.00  0.00    +0.000 C 
BRANCH  17  19
ATOM     18  C   UNL     1       1.745   5.001  20.200  0.00  0.00    +0.000 C 
ATOM     19  N   UNL     1       1.328   3.921  19.302  0.00  0.00    +0.000 NA
BRANCH  19  20
ATOM     20  C   UNL     1       1.853   2.604  19.735  0.00  0.00    +0.000 C 
BRANCH  20  21
ATOM     21  C   UNL     1       2.948   2.699  20.799  0.00  0.00    +0.000 C 
BRANCH  21  22
ATOM     22  C   UNL     1       4.245   2.108  20.306  0.00  0.00    +0.000 C 
ATOM     23  O   UNL     1       5.161   1.714  21.010  0.00  0.00    +0.000 OA
BRANCH  22  24
ATOM     24  O   UNL     1       4.293   2.041  18.953  0.00  0.00    +0.000 OA
ATOM     25  H   UNL     1       3.814   1.275  18.582  0.00  0.00    +0.000 HD
ENDBRANCH  22  24
ENDBRANCH  21  22
ENDBRANCH  20  21
ENDBRANCH  19  20
ENDBRANCH  17  19
ENDBRANCH  16  17
ENDBRANCH  15  16
ENDBRANCH   1  15
TORSDOF 10
ENDMDL
MODEL 4
REMARK VINA RESULT:      -7.3      1.753      2.775
REMARK  Name = 
REMARK  11 active torsions:
REMARK  status: ('A' for Active; 'I' for Inactive)
REMARK    1  A    between atoms: C_1  and  N_2
REMARK    2  A    between atoms: N_2  and  C_3
REMARK    3  A    between atoms: N_2  and  C_20
REMARK    4  A    between atoms: C_3  and  C_4
REMARK    5  A    between atoms: C_4  and  O_5
REMARK    6  A    between atoms: O_5  and  N_6
REMARK    7  A    between atoms: C_7  and  C_8
REMARK    8  A    between atoms: C_7  and  C_14
REMARK    9  A    between atoms: C_20  and  C_21
REMARK   10  A    between atoms: C_21  and  C_22
REMARK   11  A    between atoms: C_22  and  O_24
REMARK                            x       y       z     vdW  Elec       q    Type
REMARK                         _______ _______ _______ _____ _____    ______ ____
ROOT
ATOM      1  N   UNL     1       4.248   6.396  19.125  0.00  0.00    +0.000 NA
ATOM      2  C   UNL     1       2.961   6.307  19.346  0.00  0.00    +0.000 C 
ENDROOT
BRANCH   2   3
ATOM      3  C   UNL     1       2.226   5.021  19.620  0.00  0.00    +0.000 A 
ATOM      4  C   UNL     1       2.033   4.547  20.927  0.00  0.00    +0.000 A 
ATOM      5  C   UNL     1       1.418   3.314  21.155  0.00  0.00    +0.000 A 
ATOM      6  C   UNL     1       0.933   2.569  20.083  0.00  0.00    +0.000 A 
ATOM      7  C   UNL     1       1.086   3.042  18.781  0.00  0.00    +0.000 A 
ATOM      8  C   UNL     1       1.751   4.248  18.547  0.00  0.00    +0.000 A 
ENDBRANCH   2   3
BRANCH   2   9
ATOM      9  C   UNL     1       2.172   7.592  19.276  0.00  0.00    +0.000 A 
ATOM     10  C   UNL     1       1.453   8.012  20.402  0.00  0.00    +0.000 A 
ATOM     11  C   UNL     1       0.753   9.220  20.381  0.00  0.00    +0.000 A 
ATOM     12  C   UNL     1       0.770  10.019  19.244  0.00  0.00    +0.000 A 
ATOM     13  C   UNL     1       1.468   9.605  18.112  0.00  0.00    +0.000 A 
ATOM     14  C   UNL     1       2.154   8.385  18.121  0.00  0.00    +0.000 A 
ENDBRANCH   2   9
BRANCH   1  15
ATOM     15  O   UNL     1       4.874   5.150  19.173  0.00  0.00    +0.000 OA
BRANCH  15  16
ATOM     16  C   UNL     1       6.277   5.303  19.336  0.00  0.00    +0.000 C 
BRANCH  16  17
ATOM     17  C   UNL     1       6.960   4.897  18.012  0.00  0.00    +0.000 C 
BRANCH  17  19
ATOM     18  C   UNL     1       7.718   7.208  17.921  0.00  0.00    +0.000 C 
ATOM     19  N   UNL     1       7.420   6.010  17.132  0.00  0.00    +0.000 NA
BRANCH  19  20
ATOM     20  C   UNL     1       6.391   6.268  16.096  0.00  0.00    +0.000 C 
BRANCH  20  21
ATOM     21  C   UNL     1       5.843   4.996  15.444  0.00  0.00    +0.000 C 
BRANCH  21  22
ATOM     22  C   UNL     1       6.622   4.638  14.204  0.00  0.00    +0.000 C 
ATOM     23  O   UNL     1       6.342   3.742  13.422  0.00  0.00    +0.000 OA
BRANCH  22  24
ATOM     24  O   UNL     1       7.697   5.444  14.024  0.00  0.00    +0.000 OA
ATOM     25  H   UNL     1       7.854   6.058  14.768  0.00  0.00    +0.000 HD
ENDBRANCH  22  24
ENDBRANCH  21  22
ENDBRANCH  20  21
ENDBRANCH  19  20
ENDBRANCH  17  19
ENDBRANCH  16  17
ENDBRANCH  15  16
ENDBRANCH   1  15
TORSDOF 10
ENDMDL
MODEL 5
REMARK VINA RESULT:      -7.3      1.947      2.802
REMARK  Name = 
REMARK  11 active torsions:
REMARK  status: ('A' for Active; 'I' for Inactive)
REMARK    1  A    between atoms: C_1  and  N_2
REMARK    2  A    between atoms: N_2  and  C_3
REMARK    3  A    between atoms: N_2  and  C_20
REMARK    4  A    between atoms: C_3  and  C_4
REMARK    5  A    between atoms: C_4  and  O_5
REMARK    6  A    between atoms: O_5  and  N_6
REMARK    7  A    between atoms: C_7  and  C_8
REMARK    8  A    between atoms: C_7  and  C_14
REMARK    9  A    between atoms: C_20  and  C_21
REMARK   10  A    between atoms: C_21  and  C_22
REMARK   11  A    between atoms: C_22  and  O_24
REMARK                            x       y       z     vdW  Elec       q    Type
REMARK                         _______ _______ _______ _____ _____    ______ ____
ROOT
ATOM      1  N   UNL     1       4.344   6.101  18.770  0.00  0.00    +0.000 NA
ATOM      2  C   UNL     1       3.108   6.103  19.204  0.00  0.00    +0.000 C 
ENDROOT
BRANCH   2   3
ATOM      3  C   UNL     1       2.386   4.893  19.737  0.00  0.00    +0.000 A 
ATOM      4  C   UNL     1       2.481   4.513  21.085  0.00  0.00    +0.000 A 
ATOM      5  C   UNL     1       1.866   3.345  21.541  0.00  0.00    +0.000 A 
ATOM      6  C   UNL     1       1.099   2.575  20.670  0.00  0.00    +0.000 A 
ATOM      7  C   UNL     1       0.967   2.957  19.336  0.00  0.00    +0.000 A 
ATOM      8  C   UNL     1       1.627   4.095  18.864  0.00  0.00    +0.000 A 
ENDBRANCH   2   3
BRANCH   2   9
ATOM      9  C   UNL     1       2.363   7.412  19.115  0.00  0.00    +0.000 A 
ATOM     10  C   UNL     1       1.709   7.902  20.254  0.00  0.00    +0.000 A 
ATOM     11  C   UNL     1       1.052   9.133  20.213  0.00  0.00    +0.000 A 
ATOM     12  C   UNL     1       1.046   9.886  19.046  0.00  0.00    +0.000 A 
ATOM     13  C   UNL     1       1.678   9.403  17.903  0.00  0.00    +0.000 A 
ATOM     14  C   UNL     1       2.321   8.160  17.931  0.00  0.00    +0.000 A 
ENDBRANCH   2   9
BRANCH   1  15
ATOM     15  O   UNL     1       4.927   4.836  18.860  0.00  0.00    +0.000 OA
BRANCH  15  16
ATOM     16  C   UNL     1       6.252   4.861  18.347  0.00  0.00    +0.000 C 
BRANCH  16  17
ATOM     17  C   UNL     1       6.441   6.182  17.572  0.00  0.00    +0.000 C 
BRANCH  17  19
ATOM     18  C   UNL     1       5.185   6.435  15.504  0.00  0.00    +0.000 C 
ATOM     19  N   UNL     1       6.483   6.082  16.085  0.00  0.00    +0.000 NA
BRANCH  19  20
ATOM     20  C   UNL     1       6.910   4.714  15.702  0.00  0.00    +0.000 C 
BRANCH  20  21
ATOM     21  C   UNL     1       6.398   4.273  14.328  0.00  0.00    +0.000 C 
BRANCH  21  22
ATOM     22  C   UNL     1       7.321   4.730  13.227  0.00  0.00    +0.000 C 
ATOM     23  O   UNL     1       7.331   4.303  12.084  0.00  0.00    +0.000 OA
BRANCH  22  24
ATOM     24  O   UNL     1       8.163   5.709  13.640  0.00  0.00    +0.000 OA
ATOM     25  H   UNL     1       8.623   6.164  12.908  0.00  0.00    +0.000 HD
ENDBRANCH  22  24
ENDBRANCH  21  22
ENDBRANCH  20  21
ENDBRANCH  19  20
ENDBRANCH  17  19
ENDBRANCH  16  17
ENDBRANCH  15  16
ENDBRANCH   1  15
TORSDOF 10
ENDMDL
MODEL 6
REMARK VINA RESULT:      -7.2      2.629      6.916
REMARK  Name = 
REMARK  11 active torsions:
REMARK  status: ('A' for Active; 'I' for Inactive)
REMARK    1  A    between atoms: C_1  and  N_2
REMARK    2  A    between atoms: N_2  and  C_3
REMARK    3  A    between atoms: N_2  and  C_20
REMARK    4  A    between atoms: C_3  and  C_4
REMARK    5  A    between atoms: C_4  and  O_5
REMARK    6  A    between atoms: O_5  and  N_6
REMARK    7  A    between atoms: C_7  and  C_8
REMARK    8  A    between atoms: C_7  and  C_14
REMARK    9  A    between atoms: C_20  and  C_21
REMARK   10  A    between atoms: C_21  and  C_22
REMARK   11  A    between atoms: C_22  and  O_24
REMARK                            x       y       z     vdW  Elec       q    Type
REMARK                         _______ _______ _______ _____ _____    ______ ____
ROOT
ATOM      1  N   UNL     1       4.735   4.286  16.362  0.00  0.00    +0.000 NA
ATOM      2  C   UNL     1       5.890   4.811  16.039  0.00  0.00    +0.000 C 
ENDROOT
BRANCH   2   3
ATOM      3  C   UNL     1       6.738   5.647  16.962  0.00  0.00    +0.000 A 
ATOM      4  C   UNL     1       7.416   5.082  18.053  0.00  0.00    +0.000 A 
ATOM      5  C   UNL     1       8.134   5.886  18.941  0.00  0.00    +0.000 A 
ATOM      6  C   UNL     1       8.234   7.257  18.715  0.00  0.00    +0.000 A 
ATOM      7  C   UNL     1       7.594   7.829  17.616  0.00  0.00    +0.000 A 
ATOM      8  C   UNL     1       6.829   7.035  16.758  0.00  0.00    +0.000 A 
ENDBRANCH   2   3
BRANCH   2   9
ATOM      9  C   UNL     1       6.364   4.584  14.625  0.00  0.00    +0.000 A 
ATOM     10  C   UNL     1       5.665   3.685  13.808  0.00  0.00    +0.000 A 
ATOM     11  C   UNL     1       6.053   3.492  12.481  0.00  0.00    +0.000 A 
ATOM     12  C   UNL     1       7.131   4.195  11.957  0.00  0.00    +0.000 A 
ATOM     13  C   UNL     1       7.844   5.079  12.762  0.00  0.00    +0.000 A 
ATOM     14  C   UNL     1       7.473   5.261  14.099  0.00  0.00    +0.000 A 
ENDBRANCH   2   9
BRANCH   1  15
ATOM     15  O   UNL     1       4.372   4.588  17.675  0.00  0.00    +0.000 OA
BRANCH  15  16
ATOM     16  C   UNL     1       3.090   5.199  17.709  0.00  0.00    +0.000 C 
BRANCH  16  17
ATOM     17  C   UNL     1       2.026   4.081  17.706  0.00  0.00    +0.000 C 
BRANCH  17  19
ATOM     18  C   UNL     1       2.731   1.793  18.139  0.00  0.00    +0.000 C 
ATOM     19  N   UNL     1       2.180   3.013  18.735  0.00  0.00    +0.000 NA
BRANCH  19  20
ATOM     20  C   UNL     1       0.869   2.771  19.385  0.00  0.00    +0.000 C 
BRANCH  20  21
ATOM     21  C   UNL     1       0.850   3.115  20.876  0.00  0.00    +0.000 C 
BRANCH  21  22
ATOM     22  C   UNL     1       2.239   3.392  21.392  0.00  0.00    +0.000 C 
ATOM     23  O   UNL     1       2.988   2.570  21.898  0.00  0.00    +0.000 OA
BRANCH  22  24
ATOM     24  O   UNL     1       2.599   4.688  21.221  0.00  0.00    +0.000 OA
ATOM     25  H   UNL     1       1.842   5.287  21.070  0.00  0.00    +0.000 HD
ENDBRANCH  22  24
ENDBRANCH  21  22
ENDBRANCH  20  21
ENDBRANCH  19  20
ENDBRANCH  17  19
ENDBRANCH  16  17
ENDBRANCH  15  16
ENDBRANCH   1  15
TORSDOF 10
ENDMDL
MODEL 7
REMARK VINA RESULT:      -7.2      1.635      2.940
REMARK  Name = 
REMARK  11 active torsions:
REMARK  status: ('A' for Active; 'I' for Inactive)
REMARK    1  A    between atoms: C_1  and  N_2
REMARK    2  A    between atoms: N_2  and  C_3
REMARK    3  A    between atoms: N_2  and  C_20
REMARK    4  A    between atoms: C_3  and  C_4
REMARK    5  A    between atoms: C_4  and  O_5
REMARK    6  A    between atoms: O_5  and  N_6
REMARK    7  A    between atoms: C_7  and  C_8
REMARK    8  A    between atoms: C_7  and  C_14
REMARK    9  A    between atoms: C_20  and  C_21
REMARK   10  A    between atoms: C_21  and  C_22
REMARK   11  A    between atoms: C_22  and  O_24
REMARK                            x       y       z     vdW  Elec       q    Type
REMARK                         _______ _______ _______ _____ _____    ______ ____
ROOT
ATOM      1  N   UNL     1       4.348   6.393  19.257  0.00  0.00    +0.000 NA
ATOM      2  C   UNL     1       3.045   6.272  19.294  0.00  0.00    +0.000 C 
ENDROOT
BRANCH   2   3
ATOM      3  C   UNL     1       2.309   4.961  19.390  0.00  0.00    +0.000 A 
ATOM      4  C   UNL     1       1.936   4.241  18.245  0.00  0.00    +0.000 A 
ATOM      5  C   UNL     1       1.186   3.067  18.354  0.00  0.00    +0.000 A 
ATOM      6  C   UNL     1       0.853   2.567  19.611  0.00  0.00    +0.000 A 
ATOM      7  C   UNL     1       1.245   3.254  20.759  0.00  0.00    +0.000 A 
ATOM      8  C   UNL     1       1.947   4.457  20.651  0.00  0.00    +0.000 A 
ENDBRANCH   2   3
BRANCH   2   9
ATOM      9  C   UNL     1       2.245   7.547  19.188  0.00  0.00    +0.000 A 
ATOM     10  C   UNL     1       1.617   8.054  20.334  0.00  0.00    +0.000 A 
ATOM     11  C   UNL     1       0.911   9.256  20.275  0.00  0.00    +0.000 A 
ATOM     12  C   UNL     1       0.829   9.964  19.083  0.00  0.00    +0.000 A 
ATOM     13  C   UNL     1       1.436   9.464  17.933  0.00  0.00    +0.000 A 
ATOM     14  C   UNL     1       2.128   8.248  17.981  0.00  0.00    +0.000 A 
ENDBRANCH   2   9
BRANCH   1  15
ATOM     15  O   UNL     1       4.990   5.155  19.321  0.00  0.00    +0.000 OA
BRANCH  15  16
ATOM     16  C   UNL     1       6.400   5.325  19.351  0.00  0.00    +0.000 C 
BRANCH  16  17
ATOM     17  C   UNL     1       6.983   4.718  18.058  0.00  0.00    +0.000 C 
BRANCH  17  19
ATOM     18  C   UNL     1       7.481   7.019  17.442  0.00  0.00    +0.000 C 
ATOM     19  N   UNL     1       7.242   5.665  16.935  0.00  0.00    +0.000 NA
BRANCH  19  20
ATOM     20  C   UNL     1       6.103   5.619  15.986  0.00  0.00    +0.000 C 
BRANCH  20  21
ATOM     21  C   UNL     1       6.516   5.306  14.546  0.00  0.00    +0.000 C 
BRANCH  21  22
ATOM     22  C   UNL     1       6.223   3.870  14.192  0.00  0.00    +0.000 C 
ATOM     23  O   UNL     1       6.043   3.437  13.065  0.00  0.00    +0.000 OA
BRANCH  22  24
ATOM     24  O   UNL     1       6.192   3.070  15.286  0.00  0.00    +0.000 OA
ATOM     25  H   UNL     1       6.616   2.201  15.148  0.00  0.00    +0.000 HD
ENDBRANCH  22  24
ENDBRANCH  21  22
ENDBRANCH  20  21
ENDBRANCH  19  20
ENDBRANCH  17  19
ENDBRANCH  16  17
ENDBRANCH  15  16
ENDBRANCH   1  15
TORSDOF 10
ENDMDL
MODEL 8
REMARK VINA RESULT:      -7.1      1.789      2.693
REMARK  Name = 
REMARK  11 active torsions:
REMARK  status: ('A' for Active; 'I' for Inactive)
REMARK    1  A    between atoms: C_1  and  N_2
REMARK    2  A    between atoms: N_2  and  C_3
REMARK    3  A    between atoms: N_2  and  C_20
REMARK    4  A    between atoms: C_3  and  C_4
REMARK    5  A    between atoms: C_4  and  O_5
REMARK    6  A    between atoms: O_5  and  N_6
REMARK    7  A    between atoms: C_7  and  C_8
REMARK    8  A    between atoms: C_7  and  C_14
REMARK    9  A    between atoms: C_20  and  C_21
REMARK   10  A    between atoms: C_21  and  C_22
REMARK   11  A    between atoms: C_22  and  O_24
REMARK                            x       y       z     vdW  Elec       q    Type
REMARK                         _______ _______ _______ _____ _____    ______ ____
ROOT
ATOM      1  N   UNL     1       4.313   6.040  19.514  0.00  0.00    +0.000 NA
ATOM      2  C   UNL     1       3.010   6.006  19.396  0.00  0.00    +0.000 C 
ENDROOT
BRANCH   2   3
ATOM      3  C   UNL     1       2.184   4.746  19.379  0.00  0.00    +0.000 A 
ATOM      4  C   UNL     1       1.966   4.025  18.196  0.00  0.00    +0.000 A 
ATOM      5  C   UNL     1       1.134   2.903  18.187  0.00  0.00    +0.000 A 
ATOM      6  C   UNL     1       0.559   2.453  19.373  0.00  0.00    +0.000 A 
ATOM      7  C   UNL     1       0.793   3.139  20.564  0.00  0.00    +0.000 A 
ATOM      8  C   UNL     1       1.580   4.294  20.565  0.00  0.00    +0.000 A 
ENDBRANCH   2   3
BRANCH   2   9
ATOM      9  C   UNL     1       2.312   7.333  19.224  0.00  0.00    +0.000 A 
ATOM     10  C   UNL     1       1.686   7.922  20.332  0.00  0.00    +0.000 A 
ATOM     11  C   UNL     1       1.075   9.171  20.212  0.00  0.00    +0.000 A 
ATOM     12  C   UNL     1       1.086   9.844  18.997  0.00  0.00    +0.000 A 
ATOM     13  C   UNL     1       1.690   9.262  17.885  0.00  0.00    +0.000 A 
ATOM     14  C   UNL     1       2.287   8.001  17.993  0.00  0.00    +0.000 A 
ENDBRANCH   2   9
BRANCH   1  15
ATOM     15  O   UNL     1       4.861   4.762  19.627  0.00  0.00    +0.000 OA
BRANCH  15  16
ATOM     16  C   UNL     1       5.994   4.629  18.780  0.00  0.00    +0.000 C 
BRANCH  16  17
ATOM     17  C   UNL     1       6.705   5.997  18.713  0.00  0.00    +0.000 C 
BRANCH  17  19
ATOM     18  C   UNL     1       7.667   7.830  17.434  0.00  0.00    +0.000 C 
ATOM     19  N   UNL     1       7.019   6.518  17.351  0.00  0.00    +0.000 NA
BRANCH  19  20
ATOM     20  C   UNL     1       5.772   6.563  16.548  0.00  0.00    +0.000 C 
BRANCH  20  21
ATOM     21  C   UNL     1       5.732   5.531  15.418  0.00  0.00    +0.000 C 
BRANCH  21  22
ATOM     22  C   UNL     1       7.122   5.117  15.006  0.00  0.00    +0.000 C 
ATOM     23  O   UNL     1       7.736   5.546  14.041  0.00  0.00    +0.000 OA
BRANCH  22  24
ATOM     24  O   UNL     1       7.653   4.198  15.849  0.00  0.00    +0.000 OA
ATOM     25  H   UNL     1       7.304   3.295  15.714  0.00  0.00    +0.000 HD
ENDBRANCH  22  24
ENDBRANCH  21  22
ENDBRANCH  20  21
ENDBRANCH  19  20
ENDBRANCH  17  19
ENDBRANCH  16  17
ENDBRANCH  15  16
ENDBRANCH   1  15
TORSDOF 10
ENDMDL
MODEL 9
REMARK VINA RESULT:      -7.1      2.095      6.956
REMARK  Name = 
REMARK  11 active torsions:
REMARK  status: ('A' for Active; 'I' for Inactive)
REMARK    1  A    between atoms: C_1  and  N_2
REMARK    2  A    between atoms: N_2  and  C_3
REMARK    3  A    between atoms: N_2  and  C_20
REMARK    4  A    between atoms: C_3  and  C_4
REMARK    5  A    between atoms: C_4  and  O_5
REMARK    6  A    between atoms: O_5  and  N_6
REMARK    7  A    between atoms: C_7  and  C_8
REMARK    8  A    between atoms: C_7  and  C_14
REMARK    9  A    between atoms: C_20  and  C_21
REMARK   10  A    between atoms: C_21  and  C_22
REMARK   11  A    between atoms: C_22  and  O_24
REMARK                            x       y       z     vdW  Elec       q    Type
REMARK                         _______ _______ _______ _____ _____    ______ ____
ROOT
ATOM      1  N   UNL     1       4.910   3.510  16.243  0.00  0.00    +0.000 NA
ATOM      2  C   UNL     1       5.894   4.306  15.910  0.00  0.00    +0.000 C 
ENDROOT
BRANCH   2   3
ATOM      3  C   UNL     1       6.600   5.239  16.859  0.00  0.00    +0.000 A 
ATOM      4  C   UNL     1       6.466   6.633  16.757  0.00  0.00    +0.000 A 
ATOM      5  C   UNL     1       7.190   7.482  17.598  0.00  0.00    +0.000 A 
ATOM      6  C   UNL     1       8.009   6.948  18.590  0.00  0.00    +0.000 A 
ATOM      7  C   UNL     1       8.126   5.566  18.726  0.00  0.00    +0.000 A 
ATOM      8  C   UNL     1       7.447   4.715  17.851  0.00  0.00    +0.000 A 
ENDBRANCH   2   3
BRANCH   2   9
ATOM      9  C   UNL     1       6.305   4.302  14.458  0.00  0.00    +0.000 A 
ATOM     10  C   UNL     1       7.387   5.096  14.055  0.00  0.00    +0.000 A 
ATOM     11  C   UNL     1       7.819   5.074  12.727  0.00  0.00    +0.000 A 
ATOM     12  C   UNL     1       7.184   4.261  11.797  0.00  0.00    +0.000 A 
ATOM     13  C   UNL     1       6.098   3.479  12.181  0.00  0.00    +0.000 A 
ATOM     14  C   UNL     1       5.647   3.512  13.506  0.00  0.00    +0.000 A 
ENDBRANCH   2   9
BRANCH   1  15
ATOM     15  O   UNL     1       4.583   3.621  17.595  0.00  0.00    +0.000 OA
BRANCH  15  16
ATOM     16  C   UNL     1       3.254   3.175  17.826  0.00  0.00    +0.000 C 
BRANCH  16  17
ATOM     17  C   UNL     1       2.309   4.384  17.668  0.00  0.00    +0.000 C 
BRANCH  17  19
ATOM     18  C   UNL     1       2.799   6.640  18.438  0.00  0.00    +0.000 C 
ATOM     19  N   UNL     1       2.248   5.336  18.815  0.00  0.00    +0.000 NA
BRANCH  19  20
ATOM     20  C   UNL     1       2.959   4.746  19.975  0.00  0.00    +0.000 C 
BRANCH  20  21
ATOM     21  C   UNL     1       2.082   4.594  21.220  0.00  0.00    +0.000 C 
BRANCH  21  22
ATOM     22  C   UNL     1       1.446   3.228  21.279  0.00  0.00    +0.000 C 
ATOM     23  O   UNL     1       1.731   2.343  22.071  0.00  0.00    +0.000 OA
BRANCH  22  24
ATOM     24  O   UNL     1       0.479   3.073  20.341  0.00  0.00    +0.000 OA
ATOM     25  H   UNL     1      -0.427   3.165  20.694  0.00  0.00    +0.000 HD
ENDBRANCH  22  24
ENDBRANCH  21  22
ENDBRANCH  20  21
ENDBRANCH  19  20
ENDBRANCH  17  19
ENDBRANCH  16  17
ENDBRANCH  15  16
ENDBRANCH   1  15
TORSDOF 10
ENDMDL
