MODEL 1
REMARK VINA RESULT:      -6.9      0.000      0.000
REMARK  Name = 
REMARK  6 active torsions:
REMARK  status: ('A' for Active; 'I' for Inactive)
REMARK    1  A    between atoms: C_2  and  C_3
REMARK    2  A    between atoms: C_3  and  N_4
REMARK    3  A    between atoms: N_6  and  C_7
REMARK    4  A    between atoms: C_7  and  C_9
REMARK    5  A    between atoms: C_9  and  C_10
REMARK    6  A    between atoms: C_10  and  C_11
REMARK                            x       y       z     vdW  Elec       q    Type
REMARK                         _______ _______ _______ _____ _____    ______ ____
ROOT
ATOM      1  N   UNL     1       3.538   5.905  17.788  0.00  0.00    +0.000 N 
ATOM      2  C   UNL     1       3.492   4.610  18.244  0.00  0.00    +0.000 C 
ATOM      3  N   UNL     1       2.604   3.738  17.905  0.00  0.00    +0.000 NA
ATOM      4  S   UNL     1       4.866   4.377  19.314  0.00  0.00    +0.000 S 
ATOM      5  C   UNL     1       5.864   5.634  18.454  0.00  0.00    +0.000 C 
ATOM      6  C   UNL     1       6.928   4.964  17.601  0.00  0.00    +0.000 C 
ATOM      7  S   UNL     1       6.319   4.961  15.942  0.00  0.00    +0.000 S 
ATOM      8  O   UNL     1       5.501   3.793  15.719  0.00  0.00    +0.000 OA
ATOM      9  O   UNL     1       7.412   5.312  15.052  0.00  0.00    +0.000 OA
ATOM     10  C   UNL     1       5.273   6.375  16.114  0.00  0.00    +0.000 C 
ATOM     11  C   UNL     1       4.880   6.455  17.588  0.00  0.00    +0.000 C 
ENDROOT
BRANCH   3  12
ATOM     12  C   UNL     1       2.781   2.407  18.210  0.00  0.00    +0.000 C 
ATOM     13  O   UNL     1       3.639   1.660  17.748  0.00  0.00    +0.000 OA
BRANCH  12  14
ATOM     14  C   UNL     1       1.734   1.857  19.155  0.00  0.00    +0.000 C 
BRANCH  14  15
ATOM     15  C   UNL     1       1.043   2.985  19.913  0.00  0.00    +0.000 C 
ATOM     16  C   UNL     1       1.511   3.086  21.357  0.00  0.00    +0.000 C 
ENDBRANCH  14  15
ENDBRANCH  12  14
ENDBRANCH   3  12
BRANCH   1  17
ATOM     17  C   UNL     1       2.376   6.767  17.689  0.00  0.00    +0.000 C 
BRANCH  17  19
ATOM     18  C   UNL     1       2.057   9.271  17.814  0.00  0.00    +0.000 C 
ATOM     19  C   UNL     1       2.787   8.170  18.052  0.00  0.00    +0.000 C 
ENDBRANCH  17  19
ENDBRANCH   1  17
TORSDOF 5
ENDMDL
MODEL 2
REMARK VINA RESULT:      -6.5      2.709      5.426
REMARK  Name = 
REMARK  6 active torsions:
REMARK  status: ('A' for Active; 'I' for Inactive)
REMARK    1  A    between atoms: C_2  and  C_3
REMARK    2  A    between atoms: C_3  and  N_4
REMARK    3  A    between atoms: N_6  and  C_7
REMARK    4  A    between atoms: C_7  and  C_9
REMARK    5  A    between atoms: C_9  and  C_10
REMARK    6  A    between atoms: C_10  and  C_11
REMARK                            x       y       z     vdW  Elec       q    Type
REMARK                         _______ _______ _______ _____ _____    ______ ____
ROOT
ATOM      1  N   UNL     1       6.653   5.642  18.038  0.00  0.00    +0.000 N 
ATOM      2  C   UNL     1       6.550   5.617  16.668  0.00  0.00    +0.000 C 
ATOM      3  N   UNL     1       7.361   5.003  15.876  0.00  0.00    +0.000 NA
ATOM      4  S   UNL     1       5.110   6.524  16.231  0.00  0.00    +0.000 S 
ATOM      5  C   UNL     1       4.283   6.148  17.809  0.00  0.00    +0.000 C 
ATOM      6  C   UNL     1       3.200   5.104  17.596  0.00  0.00    +0.000 C 
ATOM      7  S   UNL     1       3.883   3.554  18.101  0.00  0.00    +0.000 S 
ATOM      8  O   UNL     1       4.592   2.945  17.000  0.00  0.00    +0.000 OA
ATOM      9  O   UNL     1       2.874   2.832  18.855  0.00  0.00    +0.000 OA
ATOM     10  C   UNL     1       5.054   4.220  19.244  0.00  0.00    +0.000 C 
ATOM     11  C   UNL     1       5.383   5.633  18.766  0.00  0.00    +0.000 C 
ENDROOT
BRANCH   3  12
ATOM     12  C   UNL     1       7.040   4.822  14.550  0.00  0.00    +0.000 C 
ATOM     13  O   UNL     1       7.394   5.528  13.609  0.00  0.00    +0.000 OA
BRANCH  12  14
ATOM     14  C   UNL     1       6.093   3.665  14.308  0.00  0.00    +0.000 C 
BRANCH  14  15
ATOM     15  C   UNL     1       5.348   3.843  12.990  0.00  0.00    +0.000 C 
ATOM     16  C   UNL     1       5.786   2.837  11.935  0.00  0.00    +0.000 C 
ENDBRANCH  14  15
ENDBRANCH  12  14
ENDBRANCH   3  12
BRANCH   1  17
ATOM     17  C   UNL     1       7.898   5.861  18.748  0.00  0.00    +0.000 C 
BRANCH  17  19
ATOM     18  C   UNL     1       8.043   8.173  17.737  0.00  0.00    +0.000 C 
ATOM     19  C   UNL     1       8.178   7.340  18.781  0.00  0.00    +0.000 C 
ENDBRANCH  17  19
ENDBRANCH   1  17
TORSDOF 5
ENDMDL
MODEL 3
REMARK VINA RESULT:      -6.4      2.301      5.261
REMARK  Name = 
REMARK  6 active torsions:
REMARK  status: ('A' for Active; 'I' for Inactive)
REMARK    1  A    between atoms: C_2  and  C_3
REMARK    2  A    between atoms: C_3  and  N_4
REMARK    3  A    between atoms: N_6  and  C_7
REMARK    4  A    between atoms: C_7  and  C_9
REMARK    5  A    between atoms: C_9  and  C_10
REMARK    6  A    between atoms: C_10  and  C_11
REMARK                            x       y       z     vdW  Elec       q    Type
REMARK                         _______ _______ _______ _____ _____    ______ ____
ROOT
ATOM      1  N   UNL     1       2.586   5.980  19.237  0.00  0.00    +0.000 N 
ATOM      2  C   UNL     1       3.731   5.477  18.668  0.00  0.00    +0.000 C 
ATOM      3  N   UNL     1       4.927   5.884  18.927  0.00  0.00    +0.000 NA
ATOM      4  S   UNL     1       3.255   4.179  17.583  0.00  0.00    +0.000 S 
ATOM      5  C   UNL     1       1.763   3.794  18.553  0.00  0.00    +0.000 C 
ATOM      6  C   UNL     1       1.969   2.513  19.343  0.00  0.00    +0.000 C 
ATOM      7  S   UNL     1       2.371   2.997  20.995  0.00  0.00    +0.000 S 
ATOM      8  O   UNL     1       3.792   3.218  21.113  0.00  0.00    +0.000 OA
ATOM      9  O   UNL     1       1.652   2.131  21.915  0.00  0.00    +0.000 OA
ATOM     10  C   UNL     1       1.545   4.558  20.948  0.00  0.00    +0.000 C 
ATOM     11  C   UNL     1       1.525   5.003  19.487  0.00  0.00    +0.000 C 
ENDROOT
BRANCH   3  12
ATOM     12  C   UNL     1       6.018   5.160  18.505  0.00  0.00    +0.000 C 
ATOM     13  O   UNL     1       6.344   4.039  18.888  0.00  0.00    +0.000 OA
BRANCH  12  14
ATOM     14  C   UNL     1       6.903   5.907  17.529  0.00  0.00    +0.000 C 
BRANCH  14  15
ATOM     15  C   UNL     1       7.859   6.836  18.268  0.00  0.00    +0.000 C 
ATOM     16  C   UNL     1       7.852   8.248  17.700  0.00  0.00    +0.000 C 
ENDBRANCH  14  15
ENDBRANCH  12  14
ENDBRANCH   3  12
BRANCH   1  17
ATOM     17  C   UNL     1       2.327   7.396  19.412  0.00  0.00    +0.000 C 
BRANCH  17  19
ATOM     18  C   UNL     1       1.870   9.308  17.823  0.00  0.00    +0.000 C 
ATOM     19  C   UNL     1       2.246   8.040  18.053  0.00  0.00    +0.000 C 
ENDBRANCH  17  19
ENDBRANCH   1  17
TORSDOF 5
ENDMDL
MODEL 4
REMARK VINA RESULT:      -6.3      2.181      5.054
REMARK  Name = 
REMARK  6 active torsions:
REMARK  status: ('A' for Active; 'I' for Inactive)
REMARK    1  A    between atoms: C_2  and  C_3
REMARK    2  A    between atoms: C_3  and  N_4
REMARK    3  A    between atoms: N_6  and  C_7
REMARK    4  A    between atoms: C_7  and  C_9
REMARK    5  A    between atoms: C_9  and  C_10
REMARK    6  A    between atoms: C_10  and  C_11
REMARK                            x       y       z     vdW  Elec       q    Type
REMARK                         _______ _______ _______ _____ _____    ______ ____
ROOT
ATOM      1  N   UNL     1       2.541   5.887  19.093  0.00  0.00    +0.000 N 
ATOM      2  C   UNL     1       3.321   5.319  18.115  0.00  0.00    +0.000 C 
ATOM      3  N   UNL     1       4.533   5.666  17.841  0.00  0.00    +0.000 NA
ATOM      4  S   UNL     1       2.381   4.036  17.368  0.00  0.00    +0.000 S 
ATOM      5  C   UNL     1       1.413   3.741  18.882  0.00  0.00    +0.000 C 
ATOM      6  C   UNL     1       1.874   2.459  19.556  0.00  0.00    +0.000 C 
ATOM      7  S   UNL     1       2.948   2.939  20.875  0.00  0.00    +0.000 S 
ATOM      8  O   UNL     1       4.297   3.087  20.384  0.00  0.00    +0.000 OA
ATOM      9  O   UNL     1       2.640   2.123  22.037  0.00  0.00    +0.000 OA
ATOM     10  C   UNL     1       2.246   4.541  21.126  0.00  0.00    +0.000 C 
ATOM     11  C   UNL     1       1.639   4.970  19.791  0.00  0.00    +0.000 C 
ENDROOT
BRANCH   3  12
ATOM     12  C   UNL     1       5.317   4.880  17.028  0.00  0.00    +0.000 C 
ATOM     13  O   UNL     1       6.000   3.921  17.376  0.00  0.00    +0.000 OA
BRANCH  12  14
ATOM     14  C   UNL     1       5.354   5.346  15.587  0.00  0.00    +0.000 C 
BRANCH  14  15
ATOM     15  C   UNL     1       6.472   4.647  14.822  0.00  0.00    +0.000 C 
ATOM     16  C   UNL     1       5.956   3.880  13.613  0.00  0.00    +0.000 C 
ENDBRANCH  14  15
ENDBRANCH  12  14
ENDBRANCH   3  12
BRANCH   1  17
ATOM     17  C   UNL     1       2.439   7.317  19.313  0.00  0.00    +0.000 C 
BRANCH  17  19
ATOM     18  C   UNL     1       1.513   9.154  17.846  0.00  0.00    +0.000 C 
ATOM     19  C   UNL     1       2.160   7.988  17.995  0.00  0.00    +0.000 C 
ENDBRANCH  17  19
ENDBRANCH   1  17
TORSDOF 5
ENDMDL
MODEL 5
REMARK VINA RESULT:      -6.3      2.693      3.853
REMARK  Name = 
REMARK  6 active torsions:
REMARK  status: ('A' for Active; 'I' for Inactive)
REMARK    1  A    between atoms: C_2  and  C_3
REMARK    2  A    between atoms: C_3  and  N_4
REMARK    3  A    between atoms: N_6  and  C_7
REMARK    4  A    between atoms: C_7  and  C_9
REMARK    5  A    between atoms: C_9  and  C_10
REMARK    6  A    between atoms: C_10  and  C_11
REMARK                            x       y       z     vdW  Elec       q    Type
REMARK                         _______ _______ _______ _____ _____    ______ ____
ROOT
ATOM      1  N   UNL     1       5.652   4.352  16.026  0.00  0.00    +0.000 N 
ATOM      2  C   UNL     1       4.484   4.696  16.663  0.00  0.00    +0.000 C 
ATOM      3  N   UNL     1       3.583   3.861  17.057  0.00  0.00    +0.000 NA
ATOM      4  S   UNL     1       4.486   6.441  16.865  0.00  0.00    +0.000 S 
ATOM      5  C   UNL     1       6.305   6.524  16.909  0.00  0.00    +0.000 C 
ATOM      6  C   UNL     1       6.783   6.764  18.331  0.00  0.00    +0.000 C 
ATOM      7  S   UNL     1       7.289   5.194  18.966  0.00  0.00    +0.000 S 
ATOM      8  O   UNL     1       6.155   4.504  19.535  0.00  0.00    +0.000 OA
ATOM      9  O   UNL     1       8.526   5.374  19.706  0.00  0.00    +0.000 OA
ATOM     10  C   UNL     1       7.681   4.468  17.404  0.00  0.00    +0.000 C 
ATOM     11  C   UNL     1       6.817   5.173  16.361  0.00  0.00    +0.000 C 
ENDROOT
BRANCH   3  12
ATOM     12  C   UNL     1       2.577   4.268  17.904  0.00  0.00    +0.000 C 
ATOM     13  O   UNL     1       1.560   4.880  17.589  0.00  0.00    +0.000 OA
BRANCH  12  14
ATOM     14  C   UNL     1       2.852   3.965  19.362  0.00  0.00    +0.000 C 
BRANCH  14  15
ATOM     15  C   UNL     1       1.589   4.138  20.198  0.00  0.00    +0.000 C 
ATOM     16  C   UNL     1       1.352   2.968  21.141  0.00  0.00    +0.000 C 
ENDBRANCH  14  15
ENDBRANCH  12  14
ENDBRANCH   3  12
BRANCH   1  17
ATOM     17  C   UNL     1       5.727   3.387  14.946  0.00  0.00    +0.000 C 
BRANCH  17  19
ATOM     18  C   UNL     1       6.294   3.564  12.490  0.00  0.00    +0.000 C 
ATOM     19  C   UNL     1       6.308   4.065  13.734  0.00  0.00    +0.000 C 
ENDBRANCH  17  19
ENDBRANCH   1  17
TORSDOF 5
ENDMDL
MODEL 6
REMARK VINA RESULT:      -6.2      2.051      5.026
REMARK  Name = 
REMARK  6 active torsions:
REMARK  status: ('A' for Active; 'I' for Inactive)
REMARK    1  A    between atoms: C_2  and  C_3
REMARK    2  A    between atoms: C_3  and  N_4
REMARK    3  A    between atoms: N_6  and  C_7
REMARK    4  A    between atoms: C_7  and  C_9
REMARK    5  A    between atoms: C_9  and  C_10
REMARK    6  A    between atoms: C_10  and  C_11
REMARK                            x       y       z     vdW  Elec       q    Type
REMARK                         _______ _______ _______ _____ _____    ______ ____
ROOT
ATOM      1  N   UNL     1       3.005   5.952  18.607  0.00  0.00    +0.000 N 
ATOM      2  C   UNL     1       4.249   5.606  18.137  0.00  0.00    +0.000 C 
ATOM      3  N   UNL     1       5.368   5.981  18.658  0.00  0.00    +0.000 NA
ATOM      4  S   UNL     1       4.016   4.548  16.753  0.00  0.00    +0.000 S 
ATOM      5  C   UNL     1       2.419   3.935  17.378  0.00  0.00    +0.000 C 
ATOM      6  C   UNL     1       2.577   2.524  17.920  0.00  0.00    +0.000 C 
ATOM      7  S   UNL     1       2.699   2.667  19.677  0.00  0.00    +0.000 S 
ATOM      8  O   UNL     1       4.072   2.895  20.060  0.00  0.00    +0.000 OA
ATOM      9  O   UNL     1       1.901   1.613  20.280  0.00  0.00    +0.000 OA
ATOM     10  C   UNL     1       1.802   4.183  19.813  0.00  0.00    +0.000 C 
ATOM     11  C   UNL     1       1.976   4.919  18.485  0.00  0.00    +0.000 C 
ENDROOT
BRANCH   3  12
ATOM     12  C   UNL     1       6.550   5.386  18.278  0.00  0.00    +0.000 C 
ATOM     13  O   UNL     1       7.010   4.333  18.711  0.00  0.00    +0.000 OA
BRANCH  12  14
ATOM     14  C   UNL     1       7.345   6.201  17.280  0.00  0.00    +0.000 C 
BRANCH  14  15
ATOM     15  C   UNL     1       7.017   7.684  17.408  0.00  0.00    +0.000 C 
ATOM     16  C   UNL     1       8.184   8.492  17.956  0.00  0.00    +0.000 C 
ENDBRANCH  14  15
ENDBRANCH  12  14
ENDBRANCH   3  12
BRANCH   1  17
ATOM     17  C   UNL     1       2.644   7.296  19.017  0.00  0.00    +0.000 C 
BRANCH  17  19
ATOM     18  C   UNL     1       1.567   9.234  17.805  0.00  0.00    +0.000 C 
ATOM     19  C   UNL     1       2.257   8.084  17.794  0.00  0.00    +0.000 C 
ENDBRANCH  17  19
ENDBRANCH   1  17
TORSDOF 5
ENDMDL
MODEL 7
REMARK VINA RESULT:      -6.1      1.229      1.422
REMARK  Name = 
REMARK  6 active torsions:
REMARK  status: ('A' for Active; 'I' for Inactive)
REMARK    1  A    between atoms: C_2  and  C_3
REMARK    2  A    between atoms: C_3  and  N_4
REMARK    3  A    between atoms: N_6  and  C_7
REMARK    4  A    between atoms: C_7  and  C_9
REMARK    5  A    between atoms: C_9  and  C_10
REMARK    6  A    between atoms: C_10  and  C_11
REMARK                            x       y       z     vdW  Elec       q    Type
REMARK                         _______ _______ _______ _____ _____    ______ ____
ROOT
ATOM      1  N   UNL     1       4.068   6.148  17.993  0.00  0.00    +0.000 N 
ATOM      2  C   UNL     1       4.396   4.990  18.657  0.00  0.00    +0.000 C 
ATOM      3  N   UNL     1       3.615   3.974  18.802  0.00  0.00    +0.000 NA
ATOM      4  S   UNL     1       6.055   5.152  19.212  0.00  0.00    +0.000 S 
ATOM      5  C   UNL     1       6.495   6.284  17.855  0.00  0.00    +0.000 C 
ATOM      6  C   UNL     1       7.338   5.558  16.821  0.00  0.00    +0.000 C 
ATOM      7  S   UNL     1       6.249   5.117  15.500  0.00  0.00    +0.000 S 
ATOM      8  O   UNL     1       5.621   3.848  15.780  0.00  0.00    +0.000 OA
ATOM      9  O   UNL     1       6.928   5.374  14.241  0.00  0.00    +0.000 OA
ATOM     10  C   UNL     1       5.079   6.413  15.770  0.00  0.00    +0.000 C 
ATOM     11  C   UNL     1       5.161   6.779  17.251  0.00  0.00    +0.000 C 
ENDROOT
BRANCH   3  12
ATOM     12  C   UNL     1       4.110   2.773  19.256  0.00  0.00    +0.000 C 
ATOM     13  O   UNL     1       5.020   2.616  20.065  0.00  0.00    +0.000 OA
BRANCH  12  14
ATOM     14  C   UNL     1       3.474   1.567  18.595  0.00  0.00    +0.000 C 
BRANCH  14  15
ATOM     15  C   UNL     1       2.185   1.958  17.882  0.00  0.00    +0.000 C 
ATOM     16  C   UNL     1       1.023   2.144  18.845  0.00  0.00    +0.000 C 
ENDBRANCH  14  15
ENDBRANCH  12  14
ENDBRANCH   3  12
BRANCH   1  17
ATOM     17  C   UNL     1       2.801   6.836  18.149  0.00  0.00    +0.000 C 
BRANCH  17  19
ATOM     18  C   UNL     1       2.037   9.221  17.812  0.00  0.00    +0.000 C 
ATOM     19  C   UNL     1       2.974   8.266  17.711  0.00  0.00    +0.000 C 
ENDBRANCH  17  19
ENDBRANCH   1  17
TORSDOF 5
ENDMDL
MODEL 8
REMARK VINA RESULT:      -6.0      2.815      4.067
REMARK  Name = 
REMARK  6 active torsions:
REMARK  status: ('A' for Active; 'I' for Inactive)
REMARK    1  A    between atoms: C_2  and  C_3
REMARK    2  A    between atoms: C_3  and  N_4
REMARK    3  A    between atoms: N_6  and  C_7
REMARK    4  A    between atoms: C_7  and  C_9
REMARK    5  A    between atoms: C_9  and  C_10
REMARK    6  A    between atoms: C_10  and  C_11
REMARK                            x       y       z     vdW  Elec       q    Type
REMARK                         _______ _______ _______ _____ _____    ______ ____
ROOT
ATOM      1  N   UNL     1       5.688   4.766  16.382  0.00  0.00    +0.000 N 
ATOM      2  C   UNL     1       4.725   5.549  16.973  0.00  0.00    +0.000 C 
ATOM      3  N   UNL     1       3.616   5.112  17.465  0.00  0.00    +0.000 NA
ATOM      4  S   UNL     1       5.311   7.205  16.961  0.00  0.00    +0.000 S 
ATOM      5  C   UNL     1       7.055   6.684  16.996  0.00  0.00    +0.000 C 
ATOM      6  C   UNL     1       7.642   6.913  18.378  0.00  0.00    +0.000 C 
ATOM      7  S   UNL     1       7.627   5.348  19.200  0.00  0.00    +0.000 S 
ATOM      8  O   UNL     1       6.353   5.144  19.848  0.00  0.00    +0.000 OA
ATOM      9  O   UNL     1       8.883   5.192  19.913  0.00  0.00    +0.000 OA
ATOM     10  C   UNL     1       7.696   4.359  17.738  0.00  0.00    +0.000 C 
ATOM     11  C   UNL     1       7.071   5.186  16.616  0.00  0.00    +0.000 C 
ENDROOT
BRANCH   3  12
ATOM     12  C   UNL     1       2.835   5.924  18.256  0.00  0.00    +0.000 C 
ATOM     13  O   UNL     1       2.090   6.820  17.870  0.00  0.00    +0.000 OA
BRANCH  12  14
ATOM     14  C   UNL     1       3.018   5.683  19.740  0.00  0.00    +0.000 C 
BRANCH  14  15
ATOM     15  C   UNL     1       2.576   4.274  20.118  0.00  0.00    +0.000 C 
ATOM     16  C   UNL     1       1.075   4.180  20.351  0.00  0.00    +0.000 C 
ENDBRANCH  14  15
ENDBRANCH  12  14
ENDBRANCH   3  12
BRANCH   1  17
ATOM     17  C   UNL     1       5.398   3.713  15.429  0.00  0.00    +0.000 C 
BRANCH  17  19
ATOM     18  C   UNL     1       6.370   3.774  13.097  0.00  0.00    +0.000 C 
ATOM     19  C   UNL     1       5.552   4.269  14.038  0.00  0.00    +0.000 C 
ENDBRANCH  17  19
ENDBRANCH   1  17
TORSDOF 5
ENDMDL
MODEL 9
REMARK VINA RESULT:      -6.0      2.207      4.967
REMARK  Name = 
REMARK  6 active torsions:
REMARK  status: ('A' for Active; 'I' for Inactive)
REMARK    1  A    between atoms: C_2  and  C_3
REMARK    2  A    between atoms: C_3  and  N_4
REMARK    3  A    between atoms: N_6  and  C_7
REMARK    4  A    between atoms: C_7  and  C_9
REMARK    5  A    between atoms: C_9  and  C_10
REMARK    6  A    between atoms: C_10  and  C_11
REMARK                            x       y       z     vdW  Elec       q    Type
REMARK                         _______ _______ _______ _____ _____    ______ ____
ROOT
ATOM      1  N   UNL     1       3.865   5.982  17.691  0.00  0.00    +0.000 N 
ATOM      2  C   UNL     1       4.794   5.354  16.897  0.00  0.00    +0.000 C 
ATOM      3  N   UNL     1       6.024   5.717  16.769  0.00  0.00    +0.000 NA
ATOM      4  S   UNL     1       4.003   3.974  16.150  0.00  0.00    +0.000 S 
ATOM      5  C   UNL     1       2.829   3.785  17.529  0.00  0.00    +0.000 C 
ATOM      6  C   UNL     1       3.214   2.590  18.384  0.00  0.00    +0.000 C 
ATOM      7  S   UNL     1       4.070   3.230  19.792  0.00  0.00    +0.000 S 
ATOM      8  O   UNL     1       5.473   3.380  19.490  0.00  0.00    +0.000 OA
ATOM      9  O   UNL     1       3.613   2.514  20.971  0.00  0.00    +0.000 OA
ATOM     10  C   UNL     1       3.303   4.821  19.781  0.00  0.00    +0.000 C 
ATOM     11  C   UNL     1       2.890   5.102  18.337  0.00  0.00    +0.000 C 
ENDROOT
BRANCH   3  12
ATOM     12  C   UNL     1       6.937   4.888  16.158  0.00  0.00    +0.000 C 
ATOM     13  O   UNL     1       7.721   4.126  16.718  0.00  0.00    +0.000 OA
BRANCH  12  14
ATOM     14  C   UNL     1       6.979   5.037  14.651  0.00  0.00    +0.000 C 
BRANCH  14  15
ATOM     15  C   UNL     1       6.383   3.811  13.970  0.00  0.00    +0.000 C 
ATOM     16  C   UNL     1       6.624   3.807  12.468  0.00  0.00    +0.000 C 
ENDBRANCH  14  15
ENDBRANCH  12  14
ENDBRANCH   3  12
BRANCH   1  17
ATOM     17  C   UNL     1       3.700   7.422  17.754  0.00  0.00    +0.000 C 
BRANCH  17  19
ATOM     18  C   UNL     1       1.702   8.964  17.885  0.00  0.00    +0.000 C 
ATOM     19  C   UNL     1       2.233   7.731  17.896  0.00  0.00    +0.000 C 
ENDBRANCH  17  19
ENDBRANCH   1  17
TORSDOF 5
ENDMDL
