MODEL 1
REMARK VINA RESULT:      -8.0      0.000      0.000
REMARK  Name = 
REMARK  3 active torsions:
REMARK  status: ('A' for Active; 'I' for Inactive)
REMARK    1  A    between atoms: C_1  and  N_2
REMARK    2  A    between atoms: N_7  and  C_8
REMARK    3  A    between atoms: C_17  and  C_18
REMARK                            x       y       z     vdW  Elec       q    Type
REMARK                         _______ _______ _______ _____ _____    ______ ____
ROOT
ATOM      1  C   UNL     1      -1.004  11.850  22.102  0.00  0.00    +0.000 C 
ATOM      2  N   UNL     1      -0.304  10.597  21.915  0.00  0.00    +0.000 N 
ATOM      3  C   UNL     1      -0.250   9.630  22.887  0.00  0.00    +0.000 A 
ATOM      4  C   UNL     1       0.493   8.582  22.405  0.00  0.00    +0.000 A 
ATOM      5  C   UNL     1       0.893   8.901  21.073  0.00  0.00    +0.000 A 
ATOM      6  C   UNL     1       1.638   8.188  20.096  0.00  0.00    +0.000 A 
ATOM      7  N   UNL     1       2.182   6.920  20.347  0.00  0.00    +0.000 N 
ATOM      8  N   UNL     1       1.832   8.769  18.882  0.00  0.00    +0.000 NA
ATOM      9  C   UNL     1       1.325   9.988  18.626  0.00  0.00    +0.000 A 
ATOM     10  C   UNL     1       0.632  10.776  19.534  0.00  0.00    +0.000 A 
ATOM     11  C   UNL     1       0.383  10.185  20.784  0.00  0.00    +0.000 A 
ATOM     12  H   UNL     1       2.039   6.596  21.294  0.00  0.00    +0.000 HD
ENDROOT
BRANCH  10  13
ATOM     13  C   UNL     1       0.167  12.104  19.098  0.00  0.00    +0.000 C 
ATOM     14  O   UNL     1      -0.895  12.181  18.484  0.00  0.00    +0.000 OA
ATOM     15  N   UNL     1       0.991  13.205  19.333  0.00  0.00    +0.000 N 
ATOM     16  C   UNL     1       0.545  14.518  18.855  0.00  0.00    +0.000 C 
ATOM     17  C   UNL     1       1.727  15.468  18.619  0.00  0.00    +0.000 C 
ATOM     18  O   UNL     1       2.588  15.540  19.767  0.00  0.00    +0.000 OA
ATOM     19  C   UNL     1       3.103  14.242  20.092  0.00  0.00    +0.000 C 
ATOM     20  C   UNL     1       1.964  13.281  20.435  0.00  0.00    +0.000 C 
ENDBRANCH  10  13
BRANCH   7  21
ATOM     21  C   UNL     1       2.369   5.869  19.428  0.00  0.00    +0.000 A 
ATOM     22  C   UNL     1       3.380   5.896  18.456  0.00  0.00    +0.000 A 
ATOM     23  C   UNL     1       3.548   4.844  17.554  0.00  0.00    +0.000 A 
ATOM     24  C   UNL     1       2.714   3.734  17.625  0.00  0.00    +0.000 A 
ATOM     25  C   UNL     1       1.721   3.682  18.601  0.00  0.00    +0.000 A 
ATOM     26 CL   UNL     1       0.703   2.297  18.702  0.00  0.00    +0.000 Cl
ATOM     27  C   UNL     1       1.545   4.739  19.497  0.00  0.00    +0.000 A 
ENDBRANCH   7  21
TORSDOF 2
ENDMDL
MODEL 2
REMARK VINA RESULT:      -7.9      1.078      1.452
REMARK  Name = 
REMARK  3 active torsions:
REMARK  status: ('A' for Active; 'I' for Inactive)
REMARK    1  A    between atoms: C_1  and  N_2
REMARK    2  A    between atoms: N_7  and  C_8
REMARK    3  A    between atoms: C_17  and  C_18
REMARK                            x       y       z     vdW  Elec       q    Type
REMARK                         _______ _______ _______ _____ _____    ______ ____
ROOT
ATOM      1  C   UNL     1      -1.233  12.328  22.022  0.00  0.00    +0.000 C 
ATOM      2  N   UNL     1      -0.617  11.019  22.022  0.00  0.00    +0.000 N 
ATOM      3  C   UNL     1      -0.729  10.150  23.078  0.00  0.00    +0.000 A 
ATOM      4  C   UNL     1      -0.027   9.012  22.771  0.00  0.00    +0.000 A 
ATOM      5  C   UNL     1       0.520   9.170  21.462  0.00  0.00    +0.000 A 
ATOM      6  C   UNL     1       1.296   8.316  20.634  0.00  0.00    +0.000 A 
ATOM      7  N   UNL     1       1.715   7.045  21.053  0.00  0.00    +0.000 N 
ATOM      8  N   UNL     1       1.647   8.761  19.398  0.00  0.00    +0.000 NA
ATOM      9  C   UNL     1       1.262   9.981  18.983  0.00  0.00    +0.000 A 
ATOM     10  C   UNL     1       0.550  10.899  19.740  0.00  0.00    +0.000 A 
ATOM     11  C   UNL     1       0.140  10.452  21.008  0.00  0.00    +0.000 A 
ATOM     12  H   UNL     1       1.459   6.826  22.007  0.00  0.00    +0.000 HD
ENDROOT
BRANCH  10  13
ATOM     13  C   UNL     1       0.231  12.206  19.140  0.00  0.00    +0.000 C 
ATOM     14  O   UNL     1      -0.768  12.299  18.431  0.00  0.00    +0.000 OA
ATOM     15  N   UNL     1       1.122  13.262  19.342  0.00  0.00    +0.000 N 
ATOM     16  C   UNL     1       0.824  14.549  18.704  0.00  0.00    +0.000 C 
ATOM     17  C   UNL     1       2.095  15.380  18.484  0.00  0.00    +0.000 C 
ATOM     18  O   UNL     1       2.864  15.506  19.691  0.00  0.00    +0.000 OA
ATOM     19  C   UNL     1       3.243  14.213  20.182  0.00  0.00    +0.000 C 
ATOM     20  C   UNL     1       2.006  13.378  20.513  0.00  0.00    +0.000 C 
ENDBRANCH  10  13
BRANCH   7  21
ATOM     21  C   UNL     1       1.906   5.899  20.257  0.00  0.00    +0.000 A 
ATOM     22  C   UNL     1       1.166   4.723  20.448  0.00  0.00    +0.000 A 
ATOM     23  C   UNL     1       1.371   3.598  19.648  0.00  0.00    +0.000 A 
ATOM     24  C   UNL     1       2.312   3.640  18.626  0.00  0.00    +0.000 A 
ATOM     25  C   UNL     1       3.038   4.809  18.408  0.00  0.00    +0.000 A 
ATOM     26 CL   UNL     1       4.188   4.868  17.128  0.00  0.00    +0.000 Cl
ATOM     27  C   UNL     1       2.841   5.932  19.215  0.00  0.00    +0.000 A 
ENDBRANCH   7  21
TORSDOF 2
ENDMDL
MODEL 3
REMARK VINA RESULT:      -7.8      1.213      1.501
REMARK  Name = 
REMARK  3 active torsions:
REMARK  status: ('A' for Active; 'I' for Inactive)
REMARK    1  A    between atoms: C_1  and  N_2
REMARK    2  A    between atoms: N_7  and  C_8
REMARK    3  A    between atoms: C_17  and  C_18
REMARK                            x       y       z     vdW  Elec       q    Type
REMARK                         _______ _______ _______ _____ _____    ______ ____
ROOT
ATOM      1  C   UNL     1      -0.977  11.498  21.945  0.00  0.00    +0.000 C 
ATOM      2  N   UNL     1      -0.219  10.285  21.727  0.00  0.00    +0.000 N 
ATOM      3  C   UNL     1      -0.119   9.297  22.674  0.00  0.00    +0.000 A 
ATOM      4  C   UNL     1       0.672   8.298  22.166  0.00  0.00    +0.000 A 
ATOM      5  C   UNL     1       1.056   8.668  20.843  0.00  0.00    +0.000 A 
ATOM      6  C   UNL     1       1.833   8.016  19.848  0.00  0.00    +0.000 A 
ATOM      7  N   UNL     1       2.436   6.769  20.068  0.00  0.00    +0.000 N 
ATOM      8  N   UNL     1       1.998   8.636  18.650  0.00  0.00    +0.000 NA
ATOM      9  C   UNL     1       1.434   9.836  18.424  0.00  0.00    +0.000 A 
ATOM     10  C   UNL     1       0.705  10.567  19.351  0.00  0.00    +0.000 A 
ATOM     11  C   UNL     1       0.485   9.934  20.586  0.00  0.00    +0.000 A 
ATOM     12  H   UNL     1       2.309   6.415  21.006  0.00  0.00    +0.000 HD
ENDROOT
BRANCH  10  13
ATOM     13  C   UNL     1       0.178  11.882  18.948  0.00  0.00    +0.000 C 
ATOM     14  O   UNL     1      -0.883  11.925  18.329  0.00  0.00    +0.000 OA
ATOM     15  N   UNL     1       0.946  13.016  19.220  0.00  0.00    +0.000 N 
ATOM     16  C   UNL     1       0.438  14.318  18.776  0.00  0.00    +0.000 C 
ATOM     17  C   UNL     1       1.573  15.331  18.574  0.00  0.00    +0.000 C 
ATOM     18  O   UNL     1       2.423  15.414  19.730  0.00  0.00    +0.000 OA
ATOM     19  C   UNL     1       2.999  14.134  20.023  0.00  0.00    +0.000 C 
ATOM     20  C   UNL     1       1.907  13.109  20.331  0.00  0.00    +0.000 C 
ENDBRANCH  10  13
BRANCH   7  21
ATOM     21  C   UNL     1       2.672   5.752  19.123  0.00  0.00    +0.000 A 
ATOM     22  C   UNL     1       1.651   4.909  18.659  0.00  0.00    +0.000 A 
ATOM     23  C   UNL     1       1.906   3.907  17.723  0.00  0.00    +0.000 A 
ATOM     24  C   UNL     1       3.191   3.745  17.217  0.00  0.00    +0.000 A 
ATOM     25  C   UNL     1       4.211   4.590  17.649  0.00  0.00    +0.000 A 
ATOM     26 CL   UNL     1       5.797   4.403  17.007  0.00  0.00    +0.000 Cl
ATOM     27  C   UNL     1       3.959   5.586  18.595  0.00  0.00    +0.000 A 
ENDBRANCH   7  21
TORSDOF 2
ENDMDL
MODEL 4
REMARK VINA RESULT:      -7.5      4.393      8.223
REMARK  Name = 
REMARK  3 active torsions:
REMARK  status: ('A' for Active; 'I' for Inactive)
REMARK    1  A    between atoms: C_1  and  N_2
REMARK    2  A    between atoms: N_7  and  C_8
REMARK    3  A    between atoms: C_17  and  C_18
REMARK                            x       y       z     vdW  Elec       q    Type
REMARK                         _______ _______ _______ _____ _____    ______ ____
ROOT
ATOM      1  C   UNL     1       4.439   2.237  20.065  0.00  0.00    +0.000 C 
ATOM      2  N   UNL     1       3.371   3.183  20.312  0.00  0.00    +0.000 N 
ATOM      3  C   UNL     1       2.199   2.828  20.932  0.00  0.00    +0.000 A 
ATOM      4  C   UNL     1       1.400   3.940  21.002  0.00  0.00    +0.000 A 
ATOM      5  C   UNL     1       2.113   5.033  20.426  0.00  0.00    +0.000 A 
ATOM      6  C   UNL     1       1.795   6.407  20.258  0.00  0.00    +0.000 A 
ATOM      7  N   UNL     1       0.562   6.945  20.656  0.00  0.00    +0.000 N 
ATOM      8  N   UNL     1       2.721   7.218  19.680  0.00  0.00    +0.000 NA
ATOM      9  C   UNL     1       3.905   6.718  19.283  0.00  0.00    +0.000 A 
ATOM     10  C   UNL     1       4.280   5.385  19.362  0.00  0.00    +0.000 A 
ATOM     11  C   UNL     1       3.358   4.530  19.990  0.00  0.00    +0.000 A 
ATOM     12  H   UNL     1      -0.084   6.257  21.018  0.00  0.00    +0.000 HD
ENDROOT
BRANCH  10  13
ATOM     13  C   UNL     1       5.609   4.999  18.855  0.00  0.00    +0.000 C 
ATOM     14  O   UNL     1       6.557   5.000  19.636  0.00  0.00    +0.000 OA
ATOM     15  N   UNL     1       5.746   4.726  17.493  0.00  0.00    +0.000 N 
ATOM     16  C   UNL     1       7.079   4.388  16.986  0.00  0.00    +0.000 C 
ATOM     17  C   UNL     1       7.216   4.710  15.492  0.00  0.00    +0.000 C 
ATOM     18  O   UNL     1       6.150   4.132  14.723  0.00  0.00    +0.000 OA
ATOM     19  C   UNL     1       4.880   4.616  15.180  0.00  0.00    +0.000 C 
ATOM     20  C   UNL     1       4.651   4.231  16.642  0.00  0.00    +0.000 C 
ENDBRANCH  10  13
BRANCH   7  21
ATOM     21  C   UNL     1       0.308   8.245  21.135  0.00  0.00    +0.000 A 
ATOM     22  C   UNL     1      -0.291   8.480  22.381  0.00  0.00    +0.000 A 
ATOM     23  C   UNL     1      -0.534   9.777  22.836  0.00  0.00    +0.000 A 
ATOM     24  C   UNL     1      -0.163  10.865  22.054  0.00  0.00    +0.000 A 
ATOM     25  C   UNL     1       0.455  10.647  20.825  0.00  0.00    +0.000 A 
ATOM     26 CL   UNL     1       0.935  11.995  19.867  0.00  0.00    +0.000 Cl
ATOM     27  C   UNL     1       0.689   9.350  20.363  0.00  0.00    +0.000 A 
ENDBRANCH   7  21
TORSDOF 2
ENDMDL
MODEL 5
REMARK VINA RESULT:      -7.4      2.464      3.661
REMARK  Name = 
REMARK  3 active torsions:
REMARK  status: ('A' for Active; 'I' for Inactive)
REMARK    1  A    between atoms: C_1  and  N_2
REMARK    2  A    between atoms: N_7  and  C_8
REMARK    3  A    between atoms: C_17  and  C_18
REMARK                            x       y       z     vdW  Elec       q    Type
REMARK                         _______ _______ _______ _____ _____    ______ ____
ROOT
ATOM      1  C   UNL     1      -0.781  11.086  21.756  0.00  0.00    +0.000 C 
ATOM      2  N   UNL     1       0.129   9.994  21.486  0.00  0.00    +0.000 N 
ATOM      3  C   UNL     1       0.612   9.174  22.475  0.00  0.00    +0.000 A 
ATOM      4  C   UNL     1       1.451   8.257  21.897  0.00  0.00    +0.000 A 
ATOM      5  C   UNL     1       1.470   8.500  20.490  0.00  0.00    +0.000 A 
ATOM      6  C   UNL     1       2.129   7.854  19.411  0.00  0.00    +0.000 A 
ATOM      7  N   UNL     1       2.989   6.763  19.604  0.00  0.00    +0.000 N 
ATOM      8  N   UNL     1       1.918   8.323  18.152  0.00  0.00    +0.000 NA
ATOM      9  C   UNL     1       1.103   9.374  17.949  0.00  0.00    +0.000 A 
ATOM     10  C   UNL     1       0.461  10.096  18.945  0.00  0.00    +0.000 A 
ATOM     11  C   UNL     1       0.630   9.610  20.252  0.00  0.00    +0.000 A 
ATOM     12  H   UNL     1       3.132   6.524  20.575  0.00  0.00    +0.000 HD
ENDROOT
BRANCH  10  13
ATOM     13  C   UNL     1      -0.377  11.241  18.550  0.00  0.00    +0.000 C 
ATOM     14  O   UNL     1       0.090  12.373  18.653  0.00  0.00    +0.000 OA
ATOM     15  N   UNL     1      -1.692  10.994  18.151  0.00  0.00    +0.000 N 
ATOM     16  C   UNL     1      -2.536  12.142  17.804  0.00  0.00    +0.000 C 
ATOM     17  C   UNL     1      -4.026  11.824  17.985  0.00  0.00    +0.000 C 
ATOM     18  O   UNL     1      -4.399  10.615  17.305  0.00  0.00    +0.000 OA
ATOM     19  C   UNL     1      -3.633   9.506  17.794  0.00  0.00    +0.000 C 
ATOM     20  C   UNL     1      -2.141   9.730  17.545  0.00  0.00    +0.000 C 
ENDBRANCH  10  13
BRANCH   7  21
ATOM     21  C   UNL     1       3.207   5.678  18.732  0.00  0.00    +0.000 A 
ATOM     22  C   UNL     1       2.200   4.752  18.422  0.00  0.00    +0.000 A 
ATOM     23  C   UNL     1       2.438   3.684  17.556  0.00  0.00    +0.000 A 
ATOM     24  C   UNL     1       3.689   3.536  16.968  0.00  0.00    +0.000 A 
ATOM     25  C   UNL     1       4.692   4.461  17.247  0.00  0.00    +0.000 A 
ATOM     26 CL   UNL     1       6.235   4.290  16.503  0.00  0.00    +0.000 Cl
ATOM     27  C   UNL     1       4.459   5.525  18.123  0.00  0.00    +0.000 A 
ENDBRANCH   7  21
TORSDOF 2
ENDMDL
MODEL 6
REMARK VINA RESULT:      -7.3      2.173      3.373
REMARK  Name = 
REMARK  3 active torsions:
REMARK  status: ('A' for Active; 'I' for Inactive)
REMARK    1  A    between atoms: C_1  and  N_2
REMARK    2  A    between atoms: N_7  and  C_8
REMARK    3  A    between atoms: C_17  and  C_18
REMARK                            x       y       z     vdW  Elec       q    Type
REMARK                         _______ _______ _______ _____ _____    ______ ____
ROOT
ATOM      1  C   UNL     1      -0.976  10.940  21.702  0.00  0.00    +0.000 C 
ATOM      2  N   UNL     1      -0.012   9.894  21.436  0.00  0.00    +0.000 N 
ATOM      3  C   UNL     1       0.447   9.047  22.414  0.00  0.00    +0.000 A 
ATOM      4  C   UNL     1       1.352   8.188  21.844  0.00  0.00    +0.000 A 
ATOM      5  C   UNL     1       1.437   8.496  20.453  0.00  0.00    +0.000 A 
ATOM      6  C   UNL     1       2.177   7.922  19.385  0.00  0.00    +0.000 A 
ATOM      7  N   UNL     1       3.067   6.855  19.578  0.00  0.00    +0.000 N 
ATOM      8  N   UNL     1       2.017   8.440  18.138  0.00  0.00    +0.000 NA
ATOM      9  C   UNL     1       1.175   9.470  17.936  0.00  0.00    +0.000 A 
ATOM     10  C   UNL     1       0.453  10.123  18.924  0.00  0.00    +0.000 A 
ATOM     11  C   UNL     1       0.570   9.584  20.217  0.00  0.00    +0.000 A 
ATOM     12  H   UNL     1       3.166   6.578  20.545  0.00  0.00    +0.000 HD
ENDROOT
BRANCH  10  13
ATOM     13  C   UNL     1      -0.406  11.254  18.534  0.00  0.00    +0.000 C 
ATOM     14  O   UNL     1       0.035  12.394  18.654  0.00  0.00    +0.000 OA
ATOM     15  N   UNL     1      -1.710  10.983  18.117  0.00  0.00    +0.000 N 
ATOM     16  C   UNL     1      -2.576  12.116  17.774  0.00  0.00    +0.000 C 
ATOM     17  C   UNL     1      -4.061  11.764  17.936  0.00  0.00    +0.000 C 
ATOM     18  O   UNL     1      -4.400  10.555  17.239  0.00  0.00    +0.000 OA
ATOM     19  C   UNL     1      -3.615   9.457  17.724  0.00  0.00    +0.000 C 
ATOM     20  C   UNL     1      -2.126   9.716  17.493  0.00  0.00    +0.000 C 
ENDBRANCH  10  13
BRANCH   7  21
ATOM     21  C   UNL     1       3.373   5.820  18.674  0.00  0.00    +0.000 A 
ATOM     22  C   UNL     1       4.412   5.927  17.737  0.00  0.00    +0.000 A 
ATOM     23  C   UNL     1       4.698   4.888  16.850  0.00  0.00    +0.000 A 
ATOM     24  C   UNL     1       3.958   3.712  16.900  0.00  0.00    +0.000 A 
ATOM     25  C   UNL     1       2.940   3.581  17.842  0.00  0.00    +0.000 A 
ATOM     26 CL   UNL     1       2.038   2.117  17.918  0.00  0.00    +0.000 Cl
ATOM     27  C   UNL     1       2.644   4.624  18.723  0.00  0.00    +0.000 A 
ENDBRANCH   7  21
TORSDOF 2
ENDMDL
MODEL 7
REMARK VINA RESULT:      -6.8      4.330      8.202
REMARK  Name = 
REMARK  3 active torsions:
REMARK  status: ('A' for Active; 'I' for Inactive)
REMARK    1  A    between atoms: C_1  and  N_2
REMARK    2  A    between atoms: N_7  and  C_8
REMARK    3  A    between atoms: C_17  and  C_18
REMARK                            x       y       z     vdW  Elec       q    Type
REMARK                         _______ _______ _______ _____ _____    ______ ____
ROOT
ATOM      1  C   UNL     1       4.530   2.371  20.102  0.00  0.00    +0.000 C 
ATOM      2  N   UNL     1       3.496   3.369  20.271  0.00  0.00    +0.000 N 
ATOM      3  C   UNL     1       2.346   3.129  20.980  0.00  0.00    +0.000 A 
ATOM      4  C   UNL     1       1.576   4.263  20.940  0.00  0.00    +0.000 A 
ATOM      5  C   UNL     1       2.287   5.254  20.200  0.00  0.00    +0.000 A 
ATOM      6  C   UNL     1       1.993   6.604  19.870  0.00  0.00    +0.000 A 
ATOM      7  N   UNL     1       0.792   7.222  20.248  0.00  0.00    +0.000 N 
ATOM      8  N   UNL     1       2.909   7.308  19.155  0.00  0.00    +0.000 NA
ATOM      9  C   UNL     1       4.063   6.729  18.776  0.00  0.00    +0.000 A 
ATOM     10  C   UNL     1       4.411   5.406  19.009  0.00  0.00    +0.000 A 
ATOM     11  C   UNL     1       3.499   4.665  19.779  0.00  0.00    +0.000 A 
ATOM     12  H   UNL     1       0.147   6.605  20.722  0.00  0.00    +0.000 HD
ENDROOT
BRANCH  10  13
ATOM     13  C   UNL     1       5.706   4.922  18.500  0.00  0.00    +0.000 C 
ATOM     14  O   UNL     1       6.645   4.823  19.286  0.00  0.00    +0.000 OA
ATOM     15  N   UNL     1       5.830   4.671  17.132  0.00  0.00    +0.000 N 
ATOM     16  C   UNL     1       7.134   4.234  16.624  0.00  0.00    +0.000 C 
ATOM     17  C   UNL     1       7.309   4.580  15.140  0.00  0.00    +0.000 C 
ATOM     18  O   UNL     1       6.203   4.114  14.350  0.00  0.00    +0.000 OA
ATOM     19  C   UNL     1       4.975   4.693  14.812  0.00  0.00    +0.000 C 
ATOM     20  C   UNL     1       4.703   4.292  16.263  0.00  0.00    +0.000 C 
ENDBRANCH  10  13
BRANCH   7  21
ATOM     21  C   UNL     1       0.589   8.580  20.566  0.00  0.00    +0.000 A 
ATOM     22  C   UNL     1       1.080   9.619  19.762  0.00  0.00    +0.000 A 
ATOM     23  C   UNL     1       0.868  10.957  20.097  0.00  0.00    +0.000 A 
ATOM     24  C   UNL     1       0.140  11.277  21.237  0.00  0.00    +0.000 A 
ATOM     25  C   UNL     1      -0.376  10.256  22.032  0.00  0.00    +0.000 A 
ATOM     26 CL   UNL     1      -1.296  10.653  23.432  0.00  0.00    +0.000 Cl
ATOM     27  C   UNL     1      -0.155   8.916  21.705  0.00  0.00    +0.000 A 
ENDBRANCH   7  21
TORSDOF 2
ENDMDL
MODEL 8
REMARK VINA RESULT:      -6.8      2.312      4.207
REMARK  Name = 
REMARK  3 active torsions:
REMARK  status: ('A' for Active; 'I' for Inactive)
REMARK    1  A    between atoms: C_1  and  N_2
REMARK    2  A    between atoms: N_7  and  C_8
REMARK    3  A    between atoms: C_17  and  C_18
REMARK                            x       y       z     vdW  Elec       q    Type
REMARK                         _______ _______ _______ _____ _____    ______ ____
ROOT
ATOM      1  C   UNL     1       0.510  14.575  20.387  0.00  0.00    +0.000 C 
ATOM      2  N   UNL     1       1.041  13.426  19.685  0.00  0.00    +0.000 N 
ATOM      3  C   UNL     1       1.965  13.539  18.678  0.00  0.00    +0.000 A 
ATOM      4  C   UNL     1       2.251  12.280  18.217  0.00  0.00    +0.000 A 
ATOM      5  C   UNL     1       1.493  11.346  18.986  0.00  0.00    +0.000 A 
ATOM      6  C   UNL     1       1.413   9.928  18.971  0.00  0.00    +0.000 A 
ATOM      7  N   UNL     1       2.138   9.147  18.059  0.00  0.00    +0.000 N 
ATOM      8  N   UNL     1       0.596   9.318  19.870  0.00  0.00    +0.000 NA
ATOM      9  C   UNL     1      -0.114  10.052  20.747  0.00  0.00    +0.000 A 
ATOM     10  C   UNL     1      -0.137  11.438  20.799  0.00  0.00    +0.000 A 
ATOM     11  C   UNL     1       0.728  12.094  19.907  0.00  0.00    +0.000 A 
ATOM     12  H   UNL     1       2.670   9.688  17.392  0.00  0.00    +0.000 HD
ENDROOT
BRANCH  10  13
ATOM     13  C   UNL     1      -0.993  12.087  21.807  0.00  0.00    +0.000 C 
ATOM     14  O   UNL     1      -0.550  12.239  22.943  0.00  0.00    +0.000 OA
ATOM     15  N   UNL     1      -2.297  12.431  21.447  0.00  0.00    +0.000 N 
ATOM     16  C   UNL     1      -3.160  13.034  22.468  0.00  0.00    +0.000 C 
ATOM     17  C   UNL     1      -4.646  12.797  22.167  0.00  0.00    +0.000 C 
ATOM     18  O   UNL     1      -4.986  13.189  20.827  0.00  0.00    +0.000 OA
ATOM     19  C   UNL     1      -4.204  12.456  19.874  0.00  0.00    +0.000 C 
ATOM     20  C   UNL     1      -2.714  12.738  20.069  0.00  0.00    +0.000 C 
ENDBRANCH  10  13
BRANCH   7  21
ATOM     21  C   UNL     1       2.663   7.855  18.263  0.00  0.00    +0.000 A 
ATOM     22  C   UNL     1       3.627   7.296  17.412  0.00  0.00    +0.000 A 
ATOM     23  C   UNL     1       4.133   6.014  17.632  0.00  0.00    +0.000 A 
ATOM     24  C   UNL     1       3.693   5.276  18.725  0.00  0.00    +0.000 A 
ATOM     25  C   UNL     1       2.754   5.827  19.593  0.00  0.00    +0.000 A 
ATOM     26 CL   UNL     1       2.225   4.921  20.958  0.00  0.00    +0.000 Cl
ATOM     27  C   UNL     1       2.238   7.106  19.368  0.00  0.00    +0.000 A 
ENDBRANCH   7  21
TORSDOF 2
ENDMDL
MODEL 9
REMARK VINA RESULT:      -6.7      3.823      6.576
REMARK  Name = 
REMARK  3 active torsions:
REMARK  status: ('A' for Active; 'I' for Inactive)
REMARK    1  A    between atoms: C_1  and  N_2
REMARK    2  A    between atoms: N_7  and  C_8
REMARK    3  A    between atoms: C_17  and  C_18
REMARK                            x       y       z     vdW  Elec       q    Type
REMARK                         _______ _______ _______ _____ _____    ______ ____
ROOT
ATOM      1  C   UNL     1       0.755   3.779  20.334  0.00  0.00    +0.000 C 
ATOM      2  N   UNL     1       1.773   3.446  19.360  0.00  0.00    +0.000 N 
ATOM      3  C   UNL     1       1.878   2.198  18.800  0.00  0.00    +0.000 A 
ATOM      4  C   UNL     1       2.942   2.206  17.935  0.00  0.00    +0.000 A 
ATOM      5  C   UNL     1       3.503   3.518  17.938  0.00  0.00    +0.000 A 
ATOM      6  C   UNL     1       4.582   4.105  17.225  0.00  0.00    +0.000 A 
ATOM      7  N   UNL     1       5.369   3.374  16.323  0.00  0.00    +0.000 N 
ATOM      8  N   UNL     1       4.858   5.419  17.438  0.00  0.00    +0.000 NA
ATOM      9  C   UNL     1       4.119   6.134  18.306  0.00  0.00    +0.000 A 
ATOM     10  C   UNL     1       3.084   5.633  19.081  0.00  0.00    +0.000 A 
ATOM     11  C   UNL     1       2.751   4.287  18.854  0.00  0.00    +0.000 A 
ATOM     12  H   UNL     1       5.129   2.393  16.276  0.00  0.00    +0.000 HD
ENDROOT
BRANCH  10  13
ATOM     13  C   UNL     1       2.393   6.549  20.005  0.00  0.00    +0.000 C 
ATOM     14  O   UNL     1       2.202   6.182  21.162  0.00  0.00    +0.000 OA
ATOM     15  N   UNL     1       1.917   7.762  19.504  0.00  0.00    +0.000 N 
ATOM     16  C   UNL     1       1.189   8.650  20.416  0.00  0.00    +0.000 C 
ATOM     17  C   UNL     1       0.235   9.582  19.659  0.00  0.00    +0.000 C 
ATOM     18  O   UNL     1       0.905  10.281  18.597  0.00  0.00    +0.000 OA
ATOM     19  C   UNL     1       1.472   9.352  17.663  0.00  0.00    +0.000 C 
ATOM     20  C   UNL     1       2.508   8.462  18.351  0.00  0.00    +0.000 C 
ENDBRANCH  10  13
BRANCH   7  21
ATOM     21  C   UNL     1       5.994   3.845  15.152  0.00  0.00    +0.000 A 
ATOM     22  C   UNL     1       7.070   4.746  15.188  0.00  0.00    +0.000 A 
ATOM     23  C   UNL     1       7.674   5.200  14.015  0.00  0.00    +0.000 A 
ATOM     24  C   UNL     1       7.222   4.743  12.783  0.00  0.00    +0.000 A 
ATOM     25  C   UNL     1       6.171   3.830  12.732  0.00  0.00    +0.000 A 
ATOM     26 CL   UNL     1       5.626   3.248  11.206  0.00  0.00    +0.000 Cl
ATOM     27  C   UNL     1       5.558   3.383  13.904  0.00  0.00    +0.000 A 
ENDBRANCH   7  21
TORSDOF 2
ENDMDL
