MODEL 1
REMARK VINA RESULT:      -7.3      0.000      0.000
REMARK  Name = 
REMARK  10 active torsions:
REMARK  status: ('A' for Active; 'I' for Inactive)
REMARK    1  A    between atoms: C_1  and  O_2
REMARK    2  A    between atoms: O_2  and  C_3
REMARK    3  A    between atoms: C_10  and  C_11
REMARK    4  A    between atoms: C_11  and  C_12
REMARK    5  A    between atoms: C_12  and  N_13
REMARK    6  A    between atoms: N_13  and  C_14
REMARK    7  A    between atoms: N_13  and  C_15
REMARK    8  A    between atoms: C_16  and  C_17
REMARK    9  A    between atoms: C_17  and  C_18
REMARK   10  A    between atoms: C_17  and  C_19
REMARK                            x       y       z     vdW  Elec       q    Type
REMARK                         _______ _______ _______ _____ _____    ______ ____
ROOT
ATOM      1  C   UNL     1       1.286   9.629  18.921  0.00  0.00    +0.000 A 
ATOM      2  C   UNL     1       2.212   9.236  17.944  0.00  0.00    +0.000 A 
ATOM      3  C   UNL     1       2.835   7.984  18.008  0.00  0.00    +0.000 A 
ATOM      4  C   UNL     1       2.527   7.130  19.056  0.00  0.00    +0.000 A 
ATOM      5  C   UNL     1       1.609   7.534  20.026  0.00  0.00    +0.000 A 
ATOM      6  C   UNL     1       0.989   8.772  19.982  0.00  0.00    +0.000 A 
ATOM      7  C   UNL     1       1.421   6.449  21.035  0.00  0.00    +0.000 C 
ATOM      8  C   UNL     1       2.389   5.398  20.528  0.00  0.00    +0.000 C 
ATOM      9  C   UNL     1       3.030   5.789  19.394  0.00  0.00    +0.000 C 
ENDROOT
BRANCH   1  11
ATOM     10  C   UNL     1      -0.774  10.775  18.873  0.00  0.00    +0.000 C 
ATOM     11  O   UNL     1       0.645  10.839  18.951  0.00  0.00    +0.000 OA
ENDBRANCH   1  11
BRANCH   9  12
ATOM     12  C   UNL     1       4.038   5.029  18.555  0.00  0.00    +0.000 C 
ATOM     13  C   UNL     1       3.446   4.726  17.162  0.00  0.00    +0.000 C 
BRANCH  12  14
ATOM     14  C   UNL     1       5.436   5.638  18.387  0.00  0.00    +0.000 A 
ATOM     15  C   UNL     1       6.506   5.359  19.236  0.00  0.00    +0.000 A 
ATOM     16  C   UNL     1       7.706   6.054  19.078  0.00  0.00    +0.000 A 
ATOM     17  C   UNL     1       7.835   6.975  18.049  0.00  0.00    +0.000 A 
ATOM     18  C   UNL     1       6.758   7.153  17.205  0.00  0.00    +0.000 A 
ATOM     19  N   UNL     1       5.578   6.510  17.350  0.00  0.00    +0.000 NA
ENDBRANCH  12  14
ENDBRANCH   9  12
BRANCH   8  20
ATOM     20  C   UNL     1       2.546   4.087  21.259  0.00  0.00    +0.000 C 
BRANCH  20  21
ATOM     21  C   UNL     1       1.434   3.014  21.085  0.00  0.00    +0.000 C 
BRANCH  21  22
ATOM     22  N   UNL     1       1.538   2.121  19.914  0.00  0.00    +0.000 NA
ATOM     23  C   UNL     1       0.797   2.621  18.755  0.00  0.00    +0.000 C 
ATOM     24  C   UNL     1       2.944   1.922  19.547  0.00  0.00    +0.000 C 
ENDBRANCH  21  22
ENDBRANCH  20  21
ENDBRANCH   8  20
TORSDOF 6
ENDMDL
MODEL 2
REMARK VINA RESULT:      -7.3      0.900      1.189
REMARK  Name = 
REMARK  10 active torsions:
REMARK  status: ('A' for Active; 'I' for Inactive)
REMARK    1  A    between atoms: C_1  and  O_2
REMARK    2  A    between atoms: O_2  and  C_3
REMARK    3  A    between atoms: C_10  and  C_11
REMARK    4  A    between atoms: C_11  and  C_12
REMARK    5  A    between atoms: C_12  and  N_13
REMARK    6  A    between atoms: N_13  and  C_14
REMARK    7  A    between atoms: N_13  and  C_15
REMARK    8  A    between atoms: C_16  and  C_17
REMARK    9  A    between atoms: C_17  and  C_18
REMARK   10  A    between atoms: C_17  and  C_19
REMARK                            x       y       z     vdW  Elec       q    Type
REMARK                         _______ _______ _______ _____ _____    ______ ____
ROOT
ATOM      1  C   UNL     1       1.280  10.118  18.848  0.00  0.00    +0.000 A 
ATOM      2  C   UNL     1       2.179   9.640  17.884  0.00  0.00    +0.000 A 
ATOM      3  C   UNL     1       2.707   8.346  17.975  0.00  0.00    +0.000 A 
ATOM      4  C   UNL     1       2.332   7.537  19.036  0.00  0.00    +0.000 A 
ATOM      5  C   UNL     1       1.442   8.026  19.993  0.00  0.00    +0.000 A 
ATOM      6  C   UNL     1       0.916   9.305  19.923  0.00  0.00    +0.000 A 
ATOM      7  C   UNL     1       1.171   6.978  21.021  0.00  0.00    +0.000 C 
ATOM      8  C   UNL     1       2.060   5.849  20.539  0.00  0.00    +0.000 C 
ATOM      9  C   UNL     1       2.734   6.169  19.402  0.00  0.00    +0.000 C 
ENDROOT
BRANCH   1  11
ATOM     10  C   UNL     1       0.380  11.877  20.136  0.00  0.00    +0.000 C 
ATOM     11  O   UNL     1       0.730  11.372  18.852  0.00  0.00    +0.000 OA
ENDBRANCH   1  11
BRANCH   9  12
ATOM     12  C   UNL     1       3.686   5.321  18.582  0.00  0.00    +0.000 C 
ATOM     13  C   UNL     1       3.114   5.101  17.166  0.00  0.00    +0.000 C 
BRANCH  12  14
ATOM     14  C   UNL     1       5.144   5.784  18.471  0.00  0.00    +0.000 A 
ATOM     15  C   UNL     1       5.642   6.514  17.393  0.00  0.00    +0.000 A 
ATOM     16  C   UNL     1       7.009   6.786  17.321  0.00  0.00    +0.000 A 
ATOM     17  C   UNL     1       7.846   6.371  18.346  0.00  0.00    +0.000 A 
ATOM     18  C   UNL     1       7.275   5.711  19.415  0.00  0.00    +0.000 A 
ATOM     19  N   UNL     1       5.959   5.416  19.499  0.00  0.00    +0.000 NA
ENDBRANCH  12  14
ENDBRANCH   9  12
BRANCH   8  20
ATOM     20  C   UNL     1       2.117   4.543  21.295  0.00  0.00    +0.000 C 
BRANCH  20  21
ATOM     21  C   UNL     1       1.300   3.341  20.742  0.00  0.00    +0.000 C 
BRANCH  21  22
ATOM     22  N   UNL     1       2.062   2.227  20.146  0.00  0.00    +0.000 NA
ATOM     23  C   UNL     1       1.787   2.054  18.719  0.00  0.00    +0.000 C 
ATOM     24  C   UNL     1       3.501   2.428  20.346  0.00  0.00    +0.000 C 
ENDBRANCH  21  22
ENDBRANCH  20  21
ENDBRANCH   8  20
TORSDOF 6
ENDMDL
MODEL 3
REMARK VINA RESULT:      -7.0      2.943      6.119
REMARK  Name = 
REMARK  10 active torsions:
REMARK  status: ('A' for Active; 'I' for Inactive)
REMARK    1  A    between atoms: C_1  and  O_2
REMARK    2  A    between atoms: O_2  and  C_3
REMARK    3  A    between atoms: C_10  and  C_11
REMARK    4  A    between atoms: C_11  and  C_12
REMARK    5  A    between atoms: C_12  and  N_13
REMARK    6  A    between atoms: N_13  and  C_14
REMARK    7  A    between atoms: N_13  and  C_15
REMARK    8  A    between atoms: C_16  and  C_17
REMARK    9  A    between atoms: C_17  and  C_18
REMARK   10  A    between atoms: C_17  and  C_19
REMARK                            x       y       z     vdW  Elec       q    Type
REMARK                         _______ _______ _______ _____ _____    ______ ____
ROOT
ATOM      1  C   UNL     1       6.318   5.192  15.716  0.00  0.00    +0.000 A 
ATOM      2  C   UNL     1       5.524   4.059  15.947  0.00  0.00    +0.000 A 
ATOM      3  C   UNL     1       4.325   4.158  16.663  0.00  0.00    +0.000 A 
ATOM      4  C   UNL     1       3.928   5.395  17.147  0.00  0.00    +0.000 A 
ATOM      5  C   UNL     1       4.730   6.514  16.916  0.00  0.00    +0.000 A 
ATOM      6  C   UNL     1       5.922   6.433  16.217  0.00  0.00    +0.000 A 
ATOM      7  C   UNL     1       4.094   7.729  17.508  0.00  0.00    +0.000 C 
ATOM      8  C   UNL     1       2.849   7.137  18.139  0.00  0.00    +0.000 C 
ATOM      9  C   UNL     1       2.754   5.795  17.939  0.00  0.00    +0.000 C 
ENDROOT
BRANCH   1  11
ATOM     10  C   UNL     1       7.431   4.871  13.662  0.00  0.00    +0.000 C 
ATOM     11  O   UNL     1       7.513   5.187  15.046  0.00  0.00    +0.000 OA
ENDBRANCH   1  11
BRANCH   9  12
ATOM     12  C   UNL     1       1.659   4.839  18.367  0.00  0.00    +0.000 C 
ATOM     13  C   UNL     1       1.200   3.986  17.166  0.00  0.00    +0.000 C 
BRANCH  12  14
ATOM     14  C   UNL     1       1.938   3.918  19.562  0.00  0.00    +0.000 A 
ATOM     15  C   UNL     1       1.023   3.683  20.586  0.00  0.00    +0.000 A 
ATOM     16  C   UNL     1       1.411   2.927  21.694  0.00  0.00    +0.000 A 
ATOM     17  C   UNL     1       2.684   2.379  21.738  0.00  0.00    +0.000 A 
ATOM     18  C   UNL     1       3.516   2.597  20.659  0.00  0.00    +0.000 A 
ATOM     19  N   UNL     1       3.173   3.343  19.586  0.00  0.00    +0.000 NA
ENDBRANCH  12  14
ENDBRANCH   9  12
BRANCH   8  20
ATOM     20  C   UNL     1       1.873   8.020  18.878  0.00  0.00    +0.000 C 
BRANCH  20  21
ATOM     21  C   UNL     1       1.766   7.862  20.421  0.00  0.00    +0.000 C 
BRANCH  21  22
ATOM     22  N   UNL     1       1.073   8.936  21.161  0.00  0.00    +0.000 NA
ATOM     23  C   UNL     1       0.837  10.125  20.342  0.00  0.00    +0.000 C 
ATOM     24  C   UNL     1      -0.203   8.446  21.694  0.00  0.00    +0.000 C 
ENDBRANCH  21  22
ENDBRANCH  20  21
ENDBRANCH   8  20
TORSDOF 6
ENDMDL
MODEL 4
REMARK VINA RESULT:      -7.0      2.908      5.641
REMARK  Name = 
REMARK  10 active torsions:
REMARK  status: ('A' for Active; 'I' for Inactive)
REMARK    1  A    between atoms: C_1  and  O_2
REMARK    2  A    between atoms: O_2  and  C_3
REMARK    3  A    between atoms: C_10  and  C_11
REMARK    4  A    between atoms: C_11  and  C_12
REMARK    5  A    between atoms: C_12  and  N_13
REMARK    6  A    between atoms: N_13  and  C_14
REMARK    7  A    between atoms: N_13  and  C_15
REMARK    8  A    between atoms: C_16  and  C_17
REMARK    9  A    between atoms: C_17  and  C_18
REMARK   10  A    between atoms: C_17  and  C_19
REMARK                            x       y       z     vdW  Elec       q    Type
REMARK                         _______ _______ _______ _____ _____    ______ ____
ROOT
ATOM      1  C   UNL     1       3.304   3.130  20.242  0.00  0.00    +0.000 A 
ATOM      2  C   UNL     1       4.526   3.057  19.558  0.00  0.00    +0.000 A 
ATOM      3  C   UNL     1       4.956   4.112  18.743  0.00  0.00    +0.000 A 
ATOM      4  C   UNL     1       4.154   5.236  18.616  0.00  0.00    +0.000 A 
ATOM      5  C   UNL     1       2.937   5.294  19.296  0.00  0.00    +0.000 A 
ATOM      6  C   UNL     1       2.493   4.257  20.100  0.00  0.00    +0.000 A 
ATOM      7  C   UNL     1       2.262   6.599  19.027  0.00  0.00    +0.000 C 
ATOM      8  C   UNL     1       3.241   7.250  18.071  0.00  0.00    +0.000 C 
ATOM      9  C   UNL     1       4.327   6.467  17.828  0.00  0.00    +0.000 C 
ENDROOT
BRANCH   1  11
ATOM     10  C   UNL     1       1.614   2.486  21.755  0.00  0.00    +0.000 C 
ATOM     11  O   UNL     1       2.795   2.141  21.041  0.00  0.00    +0.000 OA
ENDBRANCH   1  11
BRANCH   9  12
ATOM     12  C   UNL     1       5.543   6.756  16.970  0.00  0.00    +0.000 C 
ATOM     13  C   UNL     1       6.804   6.853  17.853  0.00  0.00    +0.000 C 
BRANCH  12  14
ATOM     14  C   UNL     1       5.825   5.819  15.789  0.00  0.00    +0.000 A 
ATOM     15  C   UNL     1       4.846   5.050  15.162  0.00  0.00    +0.000 A 
ATOM     16  C   UNL     1       5.219   4.135  14.175  0.00  0.00    +0.000 A 
ATOM     17  C   UNL     1       6.549   4.039  13.797  0.00  0.00    +0.000 A 
ATOM     18  C   UNL     1       7.456   4.878  14.412  0.00  0.00    +0.000 A 
ATOM     19  N   UNL     1       7.125   5.755  15.384  0.00  0.00    +0.000 NA
ENDBRANCH  12  14
ENDBRANCH   9  12
BRANCH   8  20
ATOM     20  C   UNL     1       2.965   8.624  17.511  0.00  0.00    +0.000 C 
BRANCH  20  21
ATOM     21  C   UNL     1       1.591   9.280  17.828  0.00  0.00    +0.000 C 
BRANCH  21  22
ATOM     22  N   UNL     1       1.525  10.173  19.002  0.00  0.00    +0.000 NA
ATOM     23  C   UNL     1       1.016  11.504  18.671  0.00  0.00    +0.000 C 
ATOM     24  C   UNL     1       0.691   9.576  20.050  0.00  0.00    +0.000 C 
ENDBRANCH  21  22
ENDBRANCH  20  21
ENDBRANCH   8  20
TORSDOF 6
ENDMDL
MODEL 5
REMARK VINA RESULT:      -7.0      2.987      6.191
REMARK  Name = 
REMARK  10 active torsions:
REMARK  status: ('A' for Active; 'I' for Inactive)
REMARK    1  A    between atoms: C_1  and  O_2
REMARK    2  A    between atoms: O_2  and  C_3
REMARK    3  A    between atoms: C_10  and  C_11
REMARK    4  A    between atoms: C_11  and  C_12
REMARK    5  A    between atoms: C_12  and  N_13
REMARK    6  A    between atoms: N_13  and  C_14
REMARK    7  A    between atoms: N_13  and  C_15
REMARK    8  A    between atoms: C_16  and  C_17
REMARK    9  A    between atoms: C_17  and  C_18
REMARK   10  A    between atoms: C_17  and  C_19
REMARK                            x       y       z     vdW  Elec       q    Type
REMARK                         _______ _______ _______ _____ _____    ______ ____
ROOT
ATOM      1  C   UNL     1       6.385   4.975  15.666  0.00  0.00    +0.000 A 
ATOM      2  C   UNL     1       5.571   3.872  15.964  0.00  0.00    +0.000 A 
ATOM      3  C   UNL     1       4.397   4.028  16.710  0.00  0.00    +0.000 A 
ATOM      4  C   UNL     1       4.045   5.293  17.158  0.00  0.00    +0.000 A 
ATOM      5  C   UNL     1       4.866   6.381  16.861  0.00  0.00    +0.000 A 
ATOM      6  C   UNL     1       6.035   6.243  16.131  0.00  0.00    +0.000 A 
ATOM      7  C   UNL     1       4.278   7.633  17.424  0.00  0.00    +0.000 C 
ATOM      8  C   UNL     1       3.039   7.097  18.114  0.00  0.00    +0.000 C 
ATOM      9  C   UNL     1       2.906   5.752  17.969  0.00  0.00    +0.000 C 
ENDROOT
BRANCH   1  11
ATOM     10  C   UNL     1       7.418   4.922  13.547  0.00  0.00    +0.000 C 
ATOM     11  O   UNL     1       7.559   4.914  14.962  0.00  0.00    +0.000 OA
ENDBRANCH   1  11
BRANCH   9  12
ATOM     12  C   UNL     1       1.801   4.840  18.466  0.00  0.00    +0.000 C 
ATOM     13  C   UNL     1       1.286   3.954  17.312  0.00  0.00    +0.000 C 
BRANCH  12  14
ATOM     14  C   UNL     1       2.095   3.959  19.686  0.00  0.00    +0.000 A 
ATOM     15  C   UNL     1       3.343   3.398  19.951  0.00  0.00    +0.000 A 
ATOM     16  C   UNL     1       3.484   2.510  21.019  0.00  0.00    +0.000 A 
ATOM     17  C   UNL     1       2.394   2.237  21.832  0.00  0.00    +0.000 A 
ATOM     18  C   UNL     1       1.205   2.879  21.552  0.00  0.00    +0.000 A 
ATOM     19  N   UNL     1       1.036   3.724  20.512  0.00  0.00    +0.000 NA
ENDBRANCH  12  14
ENDBRANCH   9  12
BRANCH   8  20
ATOM     20  C   UNL     1       2.108   8.032  18.847  0.00  0.00    +0.000 C 
BRANCH  20  21
ATOM     21  C   UNL     1       1.787   7.726  20.337  0.00  0.00    +0.000 C 
BRANCH  21  22
ATOM     22  N   UNL     1       0.795   8.593  21.004  0.00  0.00    +0.000 NA
ATOM     23  C   UNL     1       1.314   9.207  22.227  0.00  0.00    +0.000 C 
ATOM     24  C   UNL     1       0.335   9.641  20.087  0.00  0.00    +0.000 C 
ENDBRANCH  21  22
ENDBRANCH  20  21
ENDBRANCH   8  20
TORSDOF 6
ENDMDL
MODEL 6
REMARK VINA RESULT:      -7.0      2.970      6.463
REMARK  Name = 
REMARK  10 active torsions:
REMARK  status: ('A' for Active; 'I' for Inactive)
REMARK    1  A    between atoms: C_1  and  O_2
REMARK    2  A    between atoms: O_2  and  C_3
REMARK    3  A    between atoms: C_10  and  C_11
REMARK    4  A    between atoms: C_11  and  C_12
REMARK    5  A    between atoms: C_12  and  N_13
REMARK    6  A    between atoms: N_13  and  C_14
REMARK    7  A    between atoms: N_13  and  C_15
REMARK    8  A    between atoms: C_16  and  C_17
REMARK    9  A    between atoms: C_17  and  C_18
REMARK   10  A    between atoms: C_17  and  C_19
REMARK                            x       y       z     vdW  Elec       q    Type
REMARK                         _______ _______ _______ _____ _____    ______ ____
ROOT
ATOM      1  C   UNL     1       6.381   5.153  15.588  0.00  0.00    +0.000 A 
ATOM      2  C   UNL     1       5.603   4.025  15.885  0.00  0.00    +0.000 A 
ATOM      3  C   UNL     1       4.430   4.141  16.641  0.00  0.00    +0.000 A 
ATOM      4  C   UNL     1       4.044   5.392  17.099  0.00  0.00    +0.000 A 
ATOM      5  C   UNL     1       4.830   6.506  16.802  0.00  0.00    +0.000 A 
ATOM      6  C   UNL     1       5.996   6.408  16.063  0.00  0.00    +0.000 A 
ATOM      7  C   UNL     1       4.208   7.737  17.377  0.00  0.00    +0.000 C 
ATOM      8  C   UNL     1       2.991   7.161  18.072  0.00  0.00    +0.000 C 
ATOM      9  C   UNL     1       2.897   5.812  17.920  0.00  0.00    +0.000 C 
ENDROOT
BRANCH   1  11
ATOM     10  C   UNL     1       7.413   4.830  13.492  0.00  0.00    +0.000 C 
ATOM     11  O   UNL     1       7.551   5.132  14.875  0.00  0.00    +0.000 OA
ENDBRANCH   1  11
BRANCH   9  12
ATOM     12  C   UNL     1       1.824   4.865  18.419  0.00  0.00    +0.000 C 
ATOM     13  C   UNL     1       1.327   3.970  17.264  0.00  0.00    +0.000 C 
BRANCH  12  14
ATOM     14  C   UNL     1       2.152   3.987  19.633  0.00  0.00    +0.000 A 
ATOM     15  C   UNL     1       3.401   3.406  19.850  0.00  0.00    +0.000 A 
ATOM     16  C   UNL     1       3.571   2.523  20.918  0.00  0.00    +0.000 A 
ATOM     17  C   UNL     1       2.511   2.273  21.777  0.00  0.00    +0.000 A 
ATOM     18  C   UNL     1       1.322   2.934  21.541  0.00  0.00    +0.000 A 
ATOM     19  N   UNL     1       1.125   3.775  20.503  0.00  0.00    +0.000 NA
ENDBRANCH  12  14
ENDBRANCH   9  12
BRANCH   8  20
ATOM     20  C   UNL     1       2.037   8.063  18.817  0.00  0.00    +0.000 C 
BRANCH  20  21
ATOM     21  C   UNL     1       1.563   9.366  18.114  0.00  0.00    +0.000 C 
BRANCH  21  22
ATOM     22  N   UNL     1       0.627  10.231  18.858  0.00  0.00    +0.000 NA
ATOM     23  C   UNL     1       1.122  11.599  19.010  0.00  0.00    +0.000 C 
ATOM     24  C   UNL     1      -0.682  10.255  18.197  0.00  0.00    +0.000 C 
ENDBRANCH  21  22
ENDBRANCH  20  21
ENDBRANCH   8  20
TORSDOF 6
ENDMDL
MODEL 7
REMARK VINA RESULT:      -7.0      1.518      4.849
REMARK  Name = 
REMARK  10 active torsions:
REMARK  status: ('A' for Active; 'I' for Inactive)
REMARK    1  A    between atoms: C_1  and  O_2
REMARK    2  A    between atoms: O_2  and  C_3
REMARK    3  A    between atoms: C_10  and  C_11
REMARK    4  A    between atoms: C_11  and  C_12
REMARK    5  A    between atoms: C_12  and  N_13
REMARK    6  A    between atoms: N_13  and  C_14
REMARK    7  A    between atoms: N_13  and  C_15
REMARK    8  A    between atoms: C_16  and  C_17
REMARK    9  A    between atoms: C_17  and  C_18
REMARK   10  A    between atoms: C_17  and  C_19
REMARK                            x       y       z     vdW  Elec       q    Type
REMARK                         _______ _______ _______ _____ _____    ______ ____
ROOT
ATOM      1  C   UNL     1       1.017   9.106  20.007  0.00  0.00    +0.000 A 
ATOM      2  C   UNL     1       1.165   7.908  20.721  0.00  0.00    +0.000 A 
ATOM      3  C   UNL     1       2.004   6.891  20.249  0.00  0.00    +0.000 A 
ATOM      4  C   UNL     1       2.689   7.080  19.059  0.00  0.00    +0.000 A 
ATOM      5  C   UNL     1       2.529   8.273  18.354  0.00  0.00    +0.000 A 
ATOM      6  C   UNL     1       1.698   9.286  18.802  0.00  0.00    +0.000 A 
ATOM      7  C   UNL     1       3.375   8.258  17.124  0.00  0.00    +0.000 C 
ATOM      8  C   UNL     1       4.001   6.880  17.208  0.00  0.00    +0.000 C 
ATOM      9  C   UNL     1       3.604   6.198  18.316  0.00  0.00    +0.000 C 
ENDROOT
BRANCH   1  11
ATOM     10  C   UNL     1      -0.648  10.645  19.358  0.00  0.00    +0.000 C 
ATOM     11  O   UNL     1       0.205  10.145  20.380  0.00  0.00    +0.000 OA
ENDBRANCH   1  11
BRANCH   9  12
ATOM     12  C   UNL     1       4.019   4.819  18.791  0.00  0.00    +0.000 C 
ATOM     13  C   UNL     1       5.286   4.919  19.665  0.00  0.00    +0.000 C 
BRANCH  12  14
ATOM     14  C   UNL     1       2.971   3.966  19.517  0.00  0.00    +0.000 A 
ATOM     15  C   UNL     1       1.770   3.561  18.938  0.00  0.00    +0.000 A 
ATOM     16  C   UNL     1       0.824   2.890  19.717  0.00  0.00    +0.000 A 
ATOM     17  C   UNL     1       1.112   2.593  21.040  0.00  0.00    +0.000 A 
ATOM     18  C   UNL     1       2.347   2.966  21.530  0.00  0.00    +0.000 A 
ATOM     19  N   UNL     1       3.270   3.635  20.805  0.00  0.00    +0.000 NA
ENDBRANCH  12  14
ENDBRANCH   9  12
BRANCH   8  20
ATOM     20  C   UNL     1       4.958   6.408  16.141  0.00  0.00    +0.000 C 
BRANCH  20  21
ATOM     21  C   UNL     1       6.478   6.411  16.468  0.00  0.00    +0.000 C 
BRANCH  21  22
ATOM     22  N   UNL     1       7.227   5.166  16.206  0.00  0.00    +0.000 NA
ATOM     23  C   UNL     1       7.679   4.511  17.433  0.00  0.00    +0.000 C 
ATOM     24  C   UNL     1       6.407   4.233  15.426  0.00  0.00    +0.000 C 
ENDBRANCH  21  22
ENDBRANCH  20  21
ENDBRANCH   8  20
TORSDOF 6
ENDMDL
MODEL 8
REMARK VINA RESULT:      -6.7      1.456      4.468
REMARK  Name = 
REMARK  10 active torsions:
REMARK  status: ('A' for Active; 'I' for Inactive)
REMARK    1  A    between atoms: C_1  and  O_2
REMARK    2  A    between atoms: O_2  and  C_3
REMARK    3  A    between atoms: C_10  and  C_11
REMARK    4  A    between atoms: C_11  and  C_12
REMARK    5  A    between atoms: C_12  and  N_13
REMARK    6  A    between atoms: N_13  and  C_14
REMARK    7  A    between atoms: N_13  and  C_15
REMARK    8  A    between atoms: C_16  and  C_17
REMARK    9  A    between atoms: C_17  and  C_18
REMARK   10  A    between atoms: C_17  and  C_19
REMARK                            x       y       z     vdW  Elec       q    Type
REMARK                         _______ _______ _______ _____ _____    ______ ____
ROOT
ATOM      1  C   UNL     1       0.396   9.955  20.137  0.00  0.00    +0.000 A 
ATOM      2  C   UNL     1       0.427   8.938  21.101  0.00  0.00    +0.000 A 
ATOM      3  C   UNL     1       1.197   7.785  20.902  0.00  0.00    +0.000 A 
ATOM      4  C   UNL     1       1.931   7.657  19.733  0.00  0.00    +0.000 A 
ATOM      5  C   UNL     1       1.886   8.673  18.777  0.00  0.00    +0.000 A 
ATOM      6  C   UNL     1       1.125   9.816  18.954  0.00  0.00    +0.000 A 
ATOM      7  C   UNL     1       2.766   8.327  17.622  0.00  0.00    +0.000 C 
ATOM      8  C   UNL     1       3.278   6.961  18.034  0.00  0.00    +0.000 C 
ATOM      9  C   UNL     1       2.795   6.571  19.244  0.00  0.00    +0.000 C 
ENDROOT
BRANCH   1  11
ATOM     10  C   UNL     1      -0.849  11.390  21.533  0.00  0.00    +0.000 C 
ATOM     11  O   UNL     1      -0.342  11.105  20.235  0.00  0.00    +0.000 OA
ENDBRANCH   1  11
BRANCH   9  12
ATOM     12  C   UNL     1       3.085   5.305  20.028  0.00  0.00    +0.000 C 
ATOM     13  C   UNL     1       2.058   5.140  21.167  0.00  0.00    +0.000 C 
BRANCH  12  14
ATOM     14  C   UNL     1       3.190   3.989  19.248  0.00  0.00    +0.000 A 
ATOM     15  C   UNL     1       2.246   3.567  18.314  0.00  0.00    +0.000 A 
ATOM     16  C   UNL     1       2.362   2.298  17.744  0.00  0.00    +0.000 A 
ATOM     17  C   UNL     1       3.442   1.493  18.077  0.00  0.00    +0.000 A 
ATOM     18  C   UNL     1       4.374   2.000  18.959  0.00  0.00    +0.000 A 
ATOM     19  N   UNL     1       4.273   3.215  19.541  0.00  0.00    +0.000 NA
ENDBRANCH  12  14
ENDBRANCH   9  12
BRANCH   8  20
ATOM     20  C   UNL     1       4.227   6.198  17.142  0.00  0.00    +0.000 C 
BRANCH  20  21
ATOM     21  C   UNL     1       5.716   6.646  17.104  0.00  0.00    +0.000 C 
BRANCH  21  22
ATOM     22  N   UNL     1       6.622   6.057  18.109  0.00  0.00    +0.000 NA
ATOM     23  C   UNL     1       7.035   4.696  17.768  0.00  0.00    +0.000 C 
ATOM     24  C   UNL     1       7.810   6.900  18.281  0.00  0.00    +0.000 C 
ENDBRANCH  21  22
ENDBRANCH  20  21
ENDBRANCH   8  20
TORSDOF 6
ENDMDL
MODEL 9
REMARK VINA RESULT:      -6.7      2.906      6.424
REMARK  Name = 
REMARK  10 active torsions:
REMARK  status: ('A' for Active; 'I' for Inactive)
REMARK    1  A    between atoms: C_1  and  O_2
REMARK    2  A    between atoms: O_2  and  C_3
REMARK    3  A    between atoms: C_10  and  C_11
REMARK    4  A    between atoms: C_11  and  C_12
REMARK    5  A    between atoms: C_12  and  N_13
REMARK    6  A    between atoms: N_13  and  C_14
REMARK    7  A    between atoms: N_13  and  C_15
REMARK    8  A    between atoms: C_16  and  C_17
REMARK    9  A    between atoms: C_17  and  C_18
REMARK   10  A    between atoms: C_17  and  C_19
REMARK                            x       y       z     vdW  Elec       q    Type
REMARK                         _______ _______ _______ _____ _____    ______ ____
ROOT
ATOM      1  C   UNL     1       6.316   5.240  15.803  0.00  0.00    +0.000 A 
ATOM      2  C   UNL     1       5.474   4.141  16.023  0.00  0.00    +0.000 A 
ATOM      3  C   UNL     1       4.262   4.292  16.707  0.00  0.00    +0.000 A 
ATOM      4  C   UNL     1       3.900   5.548  17.170  0.00  0.00    +0.000 A 
ATOM      5  C   UNL     1       4.749   6.633  16.950  0.00  0.00    +0.000 A 
ATOM      6  C   UNL     1       5.955   6.500  16.283  0.00  0.00    +0.000 A 
ATOM      7  C   UNL     1       4.145   7.877  17.515  0.00  0.00    +0.000 C 
ATOM      8  C   UNL     1       2.863   7.339  18.119  0.00  0.00    +0.000 C 
ATOM      9  C   UNL     1       2.722   6.000  17.927  0.00  0.00    +0.000 C 
ENDROOT
BRANCH   1  11
ATOM     10  C   UNL     1       7.462   4.979  13.758  0.00  0.00    +0.000 C 
ATOM     11  O   UNL     1       7.527   5.184  15.164  0.00  0.00    +0.000 OA
ENDBRANCH   1  11
BRANCH   9  12
ATOM     12  C   UNL     1       1.580   5.090  18.336  0.00  0.00    +0.000 C 
ATOM     13  C   UNL     1       1.183   4.177  17.157  0.00  0.00    +0.000 C 
BRANCH  12  14
ATOM     14  C   UNL     1       1.761   4.236  19.597  0.00  0.00    +0.000 A 
ATOM     15  C   UNL     1       2.132   4.757  20.836  0.00  0.00    +0.000 A 
ATOM     16  C   UNL     1       2.390   3.887  21.896  0.00  0.00    +0.000 A 
ATOM     17  C   UNL     1       2.228   2.521  21.719  0.00  0.00    +0.000 A 
ATOM     18  C   UNL     1       1.795   2.080  20.485  0.00  0.00    +0.000 A 
ATOM     19  N   UNL     1       1.559   2.898  19.436  0.00  0.00    +0.000 NA
ENDBRANCH  12  14
ENDBRANCH   9  12
BRANCH   8  20
ATOM     20  C   UNL     1       1.903   8.266  18.824  0.00  0.00    +0.000 C 
BRANCH  20  21
ATOM     21  C   UNL     1       1.327   9.469  18.025  0.00  0.00    +0.000 C 
BRANCH  21  22
ATOM     22  N   UNL     1       0.425  10.388  18.748  0.00  0.00    +0.000 NA
ATOM     23  C   UNL     1       0.064   9.895  20.077  0.00  0.00    +0.000 C 
ATOM     24  C   UNL     1       1.039  11.715  18.868  0.00  0.00    +0.000 C 
ENDBRANCH  21  22
ENDBRANCH  20  21
ENDBRANCH   8  20
TORSDOF 6
ENDMDL
