MODEL 1
REMARK VINA RESULT:      -6.6      0.000      0.000
REMARK  Name = 
REMARK  12 active torsions:
REMARK  status: ('A' for Active; 'I' for Inactive)
REMARK    1  A    between atoms: C_1  and  C_2
REMARK    2  A    between atoms: C_2  and  C_3
REMARK    3  A    between atoms: C_4  and  C_5
REMARK    4  A    between atoms: C_5  and  C_6
REMARK    5  A    between atoms: C_7  and  O_8
REMARK    6  A    between atoms: C_9  and  C_10
REMARK    7  A    between atoms: C_10  and  C_11
REMARK    8  A    between atoms: C_12  and  C_13
REMARK    9  A    between atoms: C_12  and  C_14
REMARK   10  A    between atoms: C_17  and  O_18
REMARK   11  A    between atoms: C_22  and  C_23
REMARK   12  A    between atoms: C_26  and  O_27
REMARK                            x       y       z     vdW  Elec       q    Type
REMARK                         _______ _______ _______ _____ _____    ______ ____
ROOT
ATOM      1  C   UNL     1       1.474  14.662  19.666  0.00  0.00    +0.000 A 
ATOM      2  C   UNL     1       0.612  14.530  20.776  0.00  0.00    +0.000 A 
ATOM      3  C   UNL     1       0.022  13.294  21.123  0.00  0.00    +0.000 A 
ATOM      4  C   UNL     1       0.323  12.165  20.340  0.00  0.00    +0.000 A 
ATOM      5  C   UNL     1       1.209  12.273  19.264  0.00  0.00    +0.000 A 
ATOM      6  C   UNL     1       1.750  13.513  18.908  0.00  0.00    +0.000 A 
ATOM      7  C   UNL     1       1.576  11.048  18.527  0.00  0.00    +0.000 C 
ATOM      8  O   UNL     1       2.322  11.107  17.551  0.00  0.00    +0.000 OA
ATOM      9  C   UNL     1       1.036   9.754  19.053  0.00  0.00    +0.000 C 
ATOM     10  C   UNL     1      -0.360  10.011  19.604  0.00  0.00    +0.000 C 
ATOM     11  O   UNL     1      -0.293  10.980  20.668  0.00  0.00    +0.000 OA
ENDROOT
BRANCH  10  12
ATOM     12  C   UNL     1      -1.466  10.350  18.605  0.00  0.00    +0.000 A 
ATOM     13  C   UNL     1      -2.489  11.277  18.874  0.00  0.00    +0.000 A 
ATOM     14  C   UNL     1      -3.474  11.565  17.923  0.00  0.00    +0.000 A 
ATOM     15  C   UNL     1      -3.434  10.939  16.685  0.00  0.00    +0.000 A 
ATOM     16  C   UNL     1      -2.430  10.028  16.385  0.00  0.00    +0.000 A 
ATOM     17  C   UNL     1      -1.452   9.734  17.340  0.00  0.00    +0.000 A 
BRANCH  15  18
ATOM     18  O   UNL     1      -4.371  11.200  15.728  0.00  0.00    +0.000 OA
ATOM     19  H   UNL     1      -4.395  10.455  15.106  0.00  0.00    +0.000 HD
ENDBRANCH  15  18
ENDBRANCH  10  12
BRANCH   2  20
ATOM     20  O   UNL     1       0.294  15.609  21.560  0.00  0.00    +0.000 OA
ATOM     21  H   UNL     1       0.831  15.599  22.369  0.00  0.00    +0.000 HD
ENDBRANCH   2  20
BRANCH   6  22
ATOM     22  O   UNL     1       2.556  13.654  17.805  0.00  0.00    +0.000 OA
ATOM     23  H   UNL     1       1.998  13.609  16.996  0.00  0.00    +0.000 HD
ENDBRANCH   6  22
BRANCH   1  24
ATOM     24  C   UNL     1       2.084  15.984  19.243  0.00  0.00    +0.000 C 
BRANCH  24  28
ATOM     25  C   UNL     1       0.152  18.358  16.809  0.00  0.00    +0.000 C 
ATOM     26  C   UNL     1       1.268  17.533  17.389  0.00  0.00    +0.000 C 
ATOM     27  C   UNL     1       2.533  17.424  16.587  0.00  0.00    +0.000 C 
ATOM     28  C   UNL     1       1.088  16.884  18.557  0.00  0.00    +0.000 C 
ENDBRANCH  24  28
ENDBRANCH   1  24
BRANCH   3  29
ATOM     29  C   UNL     1      -0.956  13.190  22.282  0.00  0.00    +0.000 C 
BRANCH  29  30
ATOM     30  C   UNL     1      -2.407  13.266  21.877  0.00  0.00    +0.000 C 
ATOM     31  C   UNL     1      -3.494  12.864  22.568  0.00  0.00    +0.000 C 
ATOM     32  C   UNL     1      -3.491  12.299  23.962  0.00  0.00    +0.000 C 
ATOM     33  C   UNL     1      -4.871  12.933  21.948  0.00  0.00    +0.000 C 
ENDBRANCH  29  30
ENDBRANCH   3  29
TORSDOF 8
ENDMDL
MODEL 2
REMARK VINA RESULT:      -6.5      2.161      7.016
REMARK  Name = 
REMARK  12 active torsions:
REMARK  status: ('A' for Active; 'I' for Inactive)
REMARK    1  A    between atoms: C_1  and  C_2
REMARK    2  A    between atoms: C_2  and  C_3
REMARK    3  A    between atoms: C_4  and  C_5
REMARK    4  A    between atoms: C_5  and  C_6
REMARK    5  A    between atoms: C_7  and  O_8
REMARK    6  A    between atoms: C_9  and  C_10
REMARK    7  A    between atoms: C_10  and  C_11
REMARK    8  A    between atoms: C_12  and  C_13
REMARK    9  A    between atoms: C_12  and  C_14
REMARK   10  A    between atoms: C_17  and  O_18
REMARK   11  A    between atoms: C_22  and  C_23
REMARK   12  A    between atoms: C_26  and  O_27
REMARK                            x       y       z     vdW  Elec       q    Type
REMARK                         _______ _______ _______ _____ _____    ______ ____
ROOT
ATOM      1  C   UNL     1      -2.422  11.478  18.244  0.00  0.00    +0.000 A 
ATOM      2  C   UNL     1      -1.260  10.727  17.969  0.00  0.00    +0.000 A 
ATOM      3  C   UNL     1      -0.054  10.926  18.678  0.00  0.00    +0.000 A 
ATOM      4  C   UNL     1      -0.029  11.894  19.698  0.00  0.00    +0.000 A 
ATOM      5  C   UNL     1      -1.185  12.615  20.010  0.00  0.00    +0.000 A 
ATOM      6  C   UNL     1      -2.358  12.436  19.268  0.00  0.00    +0.000 A 
ATOM      7  C   UNL     1      -1.146  13.552  21.150  0.00  0.00    +0.000 C 
ATOM      8  O   UNL     1      -2.130  14.233  21.432  0.00  0.00    +0.000 OA
ATOM      9  C   UNL     1       0.118  13.591  21.951  0.00  0.00    +0.000 C 
ATOM     10  C   UNL     1       1.290  13.381  21.001  0.00  0.00    +0.000 C 
ATOM     11  O   UNL     1       1.165  12.103  20.348  0.00  0.00    +0.000 OA
ENDROOT
BRANCH  10  12
ATOM     12  C   UNL     1       1.600  14.495  20.001  0.00  0.00    +0.000 A 
ATOM     13  C   UNL     1       1.006  15.767  20.057  0.00  0.00    +0.000 A 
ATOM     14  C   UNL     1       1.330  16.760  19.126  0.00  0.00    +0.000 A 
ATOM     15  C   UNL     1       2.267  16.492  18.137  0.00  0.00    +0.000 A 
ATOM     16  C   UNL     1       2.880  15.249  18.063  0.00  0.00    +0.000 A 
ATOM     17  C   UNL     1       2.547  14.255  18.988  0.00  0.00    +0.000 A 
BRANCH  15  18
ATOM     18  O   UNL     1       2.616  17.437  17.217  0.00  0.00    +0.000 OA
ATOM     19  H   UNL     1       2.125  18.253  17.408  0.00  0.00    +0.000 HD
ENDBRANCH  15  18
ENDBRANCH  10  12
BRANCH   2  20
ATOM     20  O   UNL     1      -1.246   9.776  16.981  0.00  0.00    +0.000 OA
ATOM     21  H   UNL     1      -1.947   9.124  17.139  0.00  0.00    +0.000 HD
ENDBRANCH   2  20
BRANCH   6  22
ATOM     22  O   UNL     1      -3.479  13.194  19.506  0.00  0.00    +0.000 OA
ATOM     23  H   UNL     1      -3.251  14.143  19.388  0.00  0.00    +0.000 HD
ENDBRANCH   6  22
BRANCH   1  24
ATOM     24  C   UNL     1      -3.715  11.318  17.469  0.00  0.00    +0.000 C 
BRANCH  24  28
ATOM     25  C   UNL     1      -6.937   9.884  19.160  0.00  0.00    +0.000 C 
ATOM     26  C   UNL     1      -6.026  10.836  18.434  0.00  0.00    +0.000 C 
ATOM     27  C   UNL     1      -6.629  12.113  17.924  0.00  0.00    +0.000 C 
ATOM     28  C   UNL     1      -4.737  10.502  18.218  0.00  0.00    +0.000 C 
ENDBRANCH  24  28
ENDBRANCH   1  24
BRANCH   3  29
ATOM     29  C   UNL     1       1.204  10.153  18.318  0.00  0.00    +0.000 C 
BRANCH  29  30
ATOM     30  C   UNL     1       1.440   8.924  19.161  0.00  0.00    +0.000 C 
ATOM     31  C   UNL     1       2.233   7.864  18.897  0.00  0.00    +0.000 C 
ATOM     32  C   UNL     1       3.130   7.713  17.700  0.00  0.00    +0.000 C 
ATOM     33  C   UNL     1       2.261   6.673  19.827  0.00  0.00    +0.000 C 
ENDBRANCH  29  30
ENDBRANCH   3  29
TORSDOF 8
ENDMDL
MODEL 3
REMARK VINA RESULT:      -6.5      1.352      1.900
REMARK  Name = 
REMARK  12 active torsions:
REMARK  status: ('A' for Active; 'I' for Inactive)
REMARK    1  A    between atoms: C_1  and  C_2
REMARK    2  A    between atoms: C_2  and  C_3
REMARK    3  A    between atoms: C_4  and  C_5
REMARK    4  A    between atoms: C_5  and  C_6
REMARK    5  A    between atoms: C_7  and  O_8
REMARK    6  A    between atoms: C_9  and  C_10
REMARK    7  A    between atoms: C_10  and  C_11
REMARK    8  A    between atoms: C_12  and  C_13
REMARK    9  A    between atoms: C_12  and  C_14
REMARK   10  A    between atoms: C_17  and  O_18
REMARK   11  A    between atoms: C_22  and  C_23
REMARK   12  A    between atoms: C_26  and  O_27
REMARK                            x       y       z     vdW  Elec       q    Type
REMARK                         _______ _______ _______ _____ _____    ______ ____
ROOT
ATOM      1  C   UNL     1       1.914  14.377  19.097  0.00  0.00    +0.000 A 
ATOM      2  C   UNL     1       1.110  14.530  20.246  0.00  0.00    +0.000 A 
ATOM      3  C   UNL     1       0.392  13.450  20.808  0.00  0.00    +0.000 A 
ATOM      4  C   UNL     1       0.504  12.185  20.203  0.00  0.00    +0.000 A 
ATOM      5  C   UNL     1       1.331  12.010  19.090  0.00  0.00    +0.000 A 
ATOM      6  C   UNL     1       2.000  13.099  18.521  0.00  0.00    +0.000 A 
ATOM      7  C   UNL     1       1.499  10.650  18.542  0.00  0.00    +0.000 C 
ATOM      8  O   UNL     1       2.187  10.460  17.541  0.00  0.00    +0.000 OA
ATOM      9  C   UNL     1       0.833   9.534  19.287  0.00  0.00    +0.000 C 
ATOM     10  C   UNL     1      -0.485  10.054  19.845  0.00  0.00    +0.000 C 
ATOM     11  O   UNL     1      -0.234  11.156  20.739  0.00  0.00    +0.000 OA
ENDROOT
BRANCH  10  12
ATOM     12  C   UNL     1      -1.597  10.380  18.848  0.00  0.00    +0.000 A 
ATOM     13  C   UNL     1      -2.595  11.339  19.095  0.00  0.00    +0.000 A 
ATOM     14  C   UNL     1      -3.587  11.614  18.148  0.00  0.00    +0.000 A 
ATOM     15  C   UNL     1      -3.579  10.941  16.934  0.00  0.00    +0.000 A 
ATOM     16  C   UNL     1      -2.599   9.996  16.656  0.00  0.00    +0.000 A 
ATOM     17  C   UNL     1      -1.615   9.717  17.608  0.00  0.00    +0.000 A 
BRANCH  15  18
ATOM     18  O   UNL     1      -4.523  11.187  15.981  0.00  0.00    +0.000 OA
ATOM     19  H   UNL     1      -4.074  11.435  15.156  0.00  0.00    +0.000 HD
ENDBRANCH  15  18
ENDBRANCH  10  12
BRANCH   2  20
ATOM     20  O   UNL     1       0.976  15.748  20.862  0.00  0.00    +0.000 OA
ATOM     21  H   UNL     1       0.680  16.413  20.220  0.00  0.00    +0.000 HD
ENDBRANCH   2  20
BRANCH   6  22
ATOM     22  O   UNL     1       2.751  12.963  17.379  0.00  0.00    +0.000 OA
ATOM     23  H   UNL     1       3.592  13.461  17.491  0.00  0.00    +0.000 HD
ENDBRANCH   6  22
BRANCH   1  24
ATOM     24  C   UNL     1       2.658  15.526  18.447  0.00  0.00    +0.000 C 
BRANCH  24  28
ATOM     25  C   UNL     1       6.254  16.163  19.846  0.00  0.00    +0.000 C 
ATOM     26  C   UNL     1       5.149  15.613  18.987  0.00  0.00    +0.000 C 
ATOM     27  C   UNL     1       5.545  14.743  17.828  0.00  0.00    +0.000 C 
ATOM     28  C   UNL     1       3.868  15.951  19.239  0.00  0.00    +0.000 C 
ENDBRANCH  24  28
ENDBRANCH   1  24
BRANCH   3  29
ATOM     29  C   UNL     1      -0.521  13.653  22.006  0.00  0.00    +0.000 C 
BRANCH  29  30
ATOM     30  C   UNL     1      -1.980  13.808  21.655  0.00  0.00    +0.000 C 
ATOM     31  C   UNL     1      -3.043  13.168  22.185  0.00  0.00    +0.000 C 
ATOM     32  C   UNL     1      -3.002  12.185  23.322  0.00  0.00    +0.000 C 
ATOM     33  C   UNL     1      -4.431  13.388  21.627  0.00  0.00    +0.000 C 
ENDBRANCH  29  30
ENDBRANCH   3  29
TORSDOF 8
ENDMDL
MODEL 4
REMARK VINA RESULT:      -6.5      0.508      1.132
REMARK  Name = 
REMARK  12 active torsions:
REMARK  status: ('A' for Active; 'I' for Inactive)
REMARK    1  A    between atoms: C_1  and  C_2
REMARK    2  A    between atoms: C_2  and  C_3
REMARK    3  A    between atoms: C_4  and  C_5
REMARK    4  A    between atoms: C_5  and  C_6
REMARK    5  A    between atoms: C_7  and  O_8
REMARK    6  A    between atoms: C_9  and  C_10
REMARK    7  A    between atoms: C_10  and  C_11
REMARK    8  A    between atoms: C_12  and  C_13
REMARK    9  A    between atoms: C_12  and  C_14
REMARK   10  A    between atoms: C_17  and  O_18
REMARK   11  A    between atoms: C_22  and  C_23
REMARK   12  A    between atoms: C_26  and  O_27
REMARK                            x       y       z     vdW  Elec       q    Type
REMARK                         _______ _______ _______ _____ _____    ______ ____
ROOT
ATOM      1  C   UNL     1       1.767  14.563  19.490  0.00  0.00    +0.000 A 
ATOM      2  C   UNL     1       0.915  14.539  20.614  0.00  0.00    +0.000 A 
ATOM      3  C   UNL     1       0.259  13.359  21.033  0.00  0.00    +0.000 A 
ATOM      4  C   UNL     1       0.484  12.176  20.308  0.00  0.00    +0.000 A 
ATOM      5  C   UNL     1       1.359  12.175  19.218  0.00  0.00    +0.000 A 
ATOM      6  C   UNL     1       1.965  13.361  18.791  0.00  0.00    +0.000 A 
ATOM      7  C   UNL     1       1.645  10.894  18.543  0.00  0.00    +0.000 C 
ATOM      8  O   UNL     1       2.379  10.857  17.557  0.00  0.00    +0.000 OA
ATOM      9  C   UNL     1       1.038   9.663  19.143  0.00  0.00    +0.000 C 
ATOM     10  C   UNL     1      -0.333  10.029  19.695  0.00  0.00    +0.000 C 
ATOM     11  O   UNL     1      -0.195  11.047  20.705  0.00  0.00    +0.000 OA
ENDROOT
BRANCH  10  12
ATOM     12  C   UNL     1      -1.432  10.380  18.691  0.00  0.00    +0.000 A 
ATOM     13  C   UNL     1      -1.476   9.859  17.386  0.00  0.00    +0.000 A 
ATOM     14  C   UNL     1      -2.509  10.199  16.504  0.00  0.00    +0.000 A 
ATOM     15  C   UNL     1      -3.517  11.053  16.929  0.00  0.00    +0.000 A 
ATOM     16  C   UNL     1      -3.508  11.574  18.216  0.00  0.00    +0.000 A 
ATOM     17  C   UNL     1      -2.470  11.240  19.092  0.00  0.00    +0.000 A 
BRANCH  15  18
ATOM     18  O   UNL     1      -4.546  11.400  16.103  0.00  0.00    +0.000 OA
ATOM     19  H   UNL     1      -4.994  10.591  15.808  0.00  0.00    +0.000 HD
ENDBRANCH  15  18
ENDBRANCH  10  12
BRANCH   2  20
ATOM     20  O   UNL     1       0.670  15.674  21.344  0.00  0.00    +0.000 OA
ATOM     21  H   UNL     1       0.580  16.437  20.750  0.00  0.00    +0.000 HD
ENDBRANCH   2  20
BRANCH   6  22
ATOM     22  O   UNL     1       2.763  13.396  17.673  0.00  0.00    +0.000 OA
ATOM     23  H   UNL     1       2.402  12.771  17.005  0.00  0.00    +0.000 HD
ENDBRANCH   6  22
BRANCH   1  24
ATOM     24  C   UNL     1       2.446  15.822  18.990  0.00  0.00    +0.000 C 
BRANCH  24  28
ATOM     25  C   UNL     1       0.253  18.480  17.142  0.00  0.00    +0.000 C 
ATOM     26  C   UNL     1       1.051  17.817  18.230  0.00  0.00    +0.000 C 
ATOM     27  C   UNL     1       1.267  18.594  19.497  0.00  0.00    +0.000 C 
ATOM     28  C   UNL     1       1.585  16.596  18.025  0.00  0.00    +0.000 C 
ENDBRANCH  24  28
ENDBRANCH   1  24
BRANCH   3  29
ATOM     29  C   UNL     1      -0.708  13.374  22.206  0.00  0.00    +0.000 C 
BRANCH  29  30
ATOM     30  C   UNL     1      -2.155  13.539  21.815  0.00  0.00    +0.000 C 
ATOM     31  C   UNL     1      -3.250  13.018  22.408  0.00  0.00    +0.000 C 
ATOM     32  C   UNL     1      -3.261  12.192  23.664  0.00  0.00    +0.000 C 
ATOM     33  C   UNL     1      -4.621  13.218  21.805  0.00  0.00    +0.000 C 
ENDBRANCH  29  30
ENDBRANCH   3  29
TORSDOF 8
ENDMDL
MODEL 5
REMARK VINA RESULT:      -6.4      6.956     10.584
REMARK  Name = 
REMARK  12 active torsions:
REMARK  status: ('A' for Active; 'I' for Inactive)
REMARK    1  A    between atoms: C_1  and  C_2
REMARK    2  A    between atoms: C_2  and  C_3
REMARK    3  A    between atoms: C_4  and  C_5
REMARK    4  A    between atoms: C_5  and  C_6
REMARK    5  A    between atoms: C_7  and  O_8
REMARK    6  A    between atoms: C_9  and  C_10
REMARK    7  A    between atoms: C_10  and  C_11
REMARK    8  A    between atoms: C_12  and  C_13
REMARK    9  A    between atoms: C_12  and  C_14
REMARK   10  A    between atoms: C_17  and  O_18
REMARK   11  A    between atoms: C_22  and  C_23
REMARK   12  A    between atoms: C_26  and  O_27
REMARK                            x       y       z     vdW  Elec       q    Type
REMARK                         _______ _______ _______ _____ _____    ______ ____
ROOT
ATOM      1  C   UNL     1       6.731  12.382  23.967  0.00  0.00    +0.000 A 
ATOM      2  C   UNL     1       7.914  12.120  23.245  0.00  0.00    +0.000 A 
ATOM      3  C   UNL     1       8.547  13.109  22.458  0.00  0.00    +0.000 A 
ATOM      4  C   UNL     1       7.978  14.394  22.415  0.00  0.00    +0.000 A 
ATOM      5  C   UNL     1       6.830  14.680  23.160  0.00  0.00    +0.000 A 
ATOM      6  C   UNL     1       6.193  13.677  23.898  0.00  0.00    +0.000 A 
ATOM      7  C   UNL     1       6.320  16.065  23.166  0.00  0.00    +0.000 C 
ATOM      8  O   UNL     1       5.291  16.348  23.777  0.00  0.00    +0.000 OA
ATOM      9  C   UNL     1       7.134  17.089  22.438  0.00  0.00    +0.000 C 
ATOM     10  C   UNL     1       7.741  16.428  21.208  0.00  0.00    +0.000 C 
ATOM     11  O   UNL     1       8.584  15.331  21.611  0.00  0.00    +0.000 OA
ENDROOT
BRANCH  10  12
ATOM     12  C   UNL     1       6.793  16.022  20.080  0.00  0.00    +0.000 A 
ATOM     13  C   UNL     1       7.094  15.015  19.146  0.00  0.00    +0.000 A 
ATOM     14  C   UNL     1       6.189  14.669  18.136  0.00  0.00    +0.000 A 
ATOM     15  C   UNL     1       4.964  15.317  18.064  0.00  0.00    +0.000 A 
ATOM     16  C   UNL     1       4.632  16.308  18.979  0.00  0.00    +0.000 A 
ATOM     17  C   UNL     1       5.542  16.659  19.980  0.00  0.00    +0.000 A 
BRANCH  15  18
ATOM     18  O   UNL     1       4.051  15.001  17.100  0.00  0.00    +0.000 OA
ATOM     19  H   UNL     1       3.171  14.957  17.509  0.00  0.00    +0.000 HD
ENDBRANCH  15  18
ENDBRANCH  10  12
BRANCH   2  20
ATOM     20  O   UNL     1       8.496  10.878  23.262  0.00  0.00    +0.000 OA
ATOM     21  H   UNL     1       8.351  10.456  24.124  0.00  0.00    +0.000 HD
ENDBRANCH   2  20
BRANCH   6  22
ATOM     22  O   UNL     1       5.019  13.918  24.570  0.00  0.00    +0.000 OA
ATOM     23  H   UNL     1       4.272  13.866  23.932  0.00  0.00    +0.000 HD
ENDBRANCH   6  22
BRANCH   1  24
ATOM     24  C   UNL     1       6.006  11.329  24.781  0.00  0.00    +0.000 C 
BRANCH  24  28
ATOM     25  C   UNL     1       6.582  10.653  28.590  0.00  0.00    +0.000 C 
ATOM     26  C   UNL     1       5.880  10.756  27.263  0.00  0.00    +0.000 C 
ATOM     27  C   UNL     1       4.458  10.279  27.196  0.00  0.00    +0.000 C 
ATOM     28  C   UNL     1       6.547  11.212  26.183  0.00  0.00    +0.000 C 
ENDBRANCH  24  28
ENDBRANCH   1  24
BRANCH   3  29
ATOM     29  C   UNL     1       9.782  12.784  21.635  0.00  0.00    +0.000 C 
BRANCH  29  30
ATOM     30  C   UNL     1       9.487  12.179  20.285  0.00  0.00    +0.000 C 
ATOM     31  C   UNL     1      10.358  11.741  19.352  0.00  0.00    +0.000 C 
ATOM     32  C   UNL     1      11.855  11.699  19.496  0.00  0.00    +0.000 C 
ATOM     33  C   UNL     1       9.868  11.254  18.008  0.00  0.00    +0.000 C 
ENDBRANCH  29  30
ENDBRANCH   3  29
TORSDOF 8
ENDMDL
MODEL 6
REMARK VINA RESULT:      -6.3      3.391      6.223
REMARK  Name = 
REMARK  12 active torsions:
REMARK  status: ('A' for Active; 'I' for Inactive)
REMARK    1  A    between atoms: C_1  and  C_2
REMARK    2  A    between atoms: C_2  and  C_3
REMARK    3  A    between atoms: C_4  and  C_5
REMARK    4  A    between atoms: C_5  and  C_6
REMARK    5  A    between atoms: C_7  and  O_8
REMARK    6  A    between atoms: C_9  and  C_10
REMARK    7  A    between atoms: C_10  and  C_11
REMARK    8  A    between atoms: C_12  and  C_13
REMARK    9  A    between atoms: C_12  and  C_14
REMARK   10  A    between atoms: C_17  and  O_18
REMARK   11  A    between atoms: C_22  and  C_23
REMARK   12  A    between atoms: C_26  and  O_27
REMARK                            x       y       z     vdW  Elec       q    Type
REMARK                         _______ _______ _______ _____ _____    ______ ____
ROOT
ATOM      1  C   UNL     1      -2.289  12.265  19.964  0.00  0.00    +0.000 A 
ATOM      2  C   UNL     1      -2.934  12.677  21.148  0.00  0.00    +0.000 A 
ATOM      3  C   UNL     1      -4.343  12.754  21.247  0.00  0.00    +0.000 A 
ATOM      4  C   UNL     1      -5.112  12.392  20.127  0.00  0.00    +0.000 A 
ATOM      5  C   UNL     1      -4.487  11.941  18.961  0.00  0.00    +0.000 A 
ATOM      6  C   UNL     1      -3.091  11.912  18.867  0.00  0.00    +0.000 A 
ATOM      7  C   UNL     1      -5.330  11.477  17.842  0.00  0.00    +0.000 C 
ATOM      8  O   UNL     1      -4.819  11.109  16.786  0.00  0.00    +0.000 OA
ATOM      9  C   UNL     1      -6.808  11.439  18.079  0.00  0.00    +0.000 C 
ATOM     10  C   UNL     1      -7.177  12.617  18.971  0.00  0.00    +0.000 C 
ATOM     11  O   UNL     1      -6.478  12.513  20.227  0.00  0.00    +0.000 OA
ENDROOT
BRANCH  10  12
ATOM     12  C   UNL     1      -7.060  14.021  18.377  0.00  0.00    +0.000 A 
ATOM     13  C   UNL     1      -7.144  14.283  16.999  0.00  0.00    +0.000 A 
ATOM     14  C   UNL     1      -7.043  15.587  16.502  0.00  0.00    +0.000 A 
ATOM     15  C   UNL     1      -6.874  16.645  17.384  0.00  0.00    +0.000 A 
ATOM     16  C   UNL     1      -6.799  16.419  18.752  0.00  0.00    +0.000 A 
ATOM     17  C   UNL     1      -6.890  15.114  19.246  0.00  0.00    +0.000 A 
BRANCH  15  18
ATOM     18  O   UNL     1      -6.781  17.931  16.939  0.00  0.00    +0.000 OA
ATOM     19  H   UNL     1      -5.895  18.066  16.565  0.00  0.00    +0.000 HD
ENDBRANCH  15  18
ENDBRANCH  10  12
BRANCH   2  20
ATOM     20  O   UNL     1      -2.217  13.040  22.259  0.00  0.00    +0.000 OA
ATOM     21  H   UNL     1      -2.618  12.652  23.054  0.00  0.00    +0.000 HD
ENDBRANCH   2  20
BRANCH   6  22
ATOM     22  O   UNL     1      -2.458  11.550  17.702  0.00  0.00    +0.000 OA
ATOM     23  H   UNL     1      -1.743  10.911  17.916  0.00  0.00    +0.000 HD
ENDBRANCH   6  22
BRANCH   1  24
ATOM     24  C   UNL     1      -0.781  12.216  19.815  0.00  0.00    +0.000 C 
BRANCH  24  28
ATOM     25  C   UNL     1       1.024   8.851  20.656  0.00  0.00    +0.000 C 
ATOM     26  C   UNL     1       0.423   9.969  19.849  0.00  0.00    +0.000 C 
ATOM     27  C   UNL     1       0.579   9.903  18.357  0.00  0.00    +0.000 C 
ATOM     28  C   UNL     1      -0.177  11.002  20.474  0.00  0.00    +0.000 C 
ENDBRANCH  24  28
ENDBRANCH   1  24
BRANCH   3  29
ATOM     29  C   UNL     1      -5.014  13.266  22.510  0.00  0.00    +0.000 C 
BRANCH  29  30
ATOM     30  C   UNL     1      -5.274  14.752  22.517  0.00  0.00    +0.000 C 
ATOM     31  C   UNL     1      -6.361  15.412  22.969  0.00  0.00    +0.000 C 
ATOM     32  C   UNL     1      -7.551  14.789  23.645  0.00  0.00    +0.000 C 
ATOM     33  C   UNL     1      -6.479  16.909  22.797  0.00  0.00    +0.000 C 
ENDBRANCH  29  30
ENDBRANCH   3  29
TORSDOF 8
ENDMDL
MODEL 7
REMARK VINA RESULT:      -6.2      1.676      2.422
REMARK  Name = 
REMARK  12 active torsions:
REMARK  status: ('A' for Active; 'I' for Inactive)
REMARK    1  A    between atoms: C_1  and  C_2
REMARK    2  A    between atoms: C_2  and  C_3
REMARK    3  A    between atoms: C_4  and  C_5
REMARK    4  A    between atoms: C_5  and  C_6
REMARK    5  A    between atoms: C_7  and  O_8
REMARK    6  A    between atoms: C_9  and  C_10
REMARK    7  A    between atoms: C_10  and  C_11
REMARK    8  A    between atoms: C_12  and  C_13
REMARK    9  A    between atoms: C_12  and  C_14
REMARK   10  A    between atoms: C_17  and  O_18
REMARK   11  A    between atoms: C_22  and  C_23
REMARK   12  A    between atoms: C_26  and  O_27
REMARK                            x       y       z     vdW  Elec       q    Type
REMARK                         _______ _______ _______ _____ _____    ______ ____
ROOT
ATOM      1  C   UNL     1       1.633  14.572  18.380  0.00  0.00    +0.000 A 
ATOM      2  C   UNL     1       0.574  15.059  19.175  0.00  0.00    +0.000 A 
ATOM      3  C   UNL     1      -0.335  14.193  19.824  0.00  0.00    +0.000 A 
ATOM      4  C   UNL     1      -0.159  12.806  19.677  0.00  0.00    +0.000 A 
ATOM      5  C   UNL     1       0.911  12.309  18.927  0.00  0.00    +0.000 A 
ATOM      6  C   UNL     1       1.775  13.181  18.256  0.00  0.00    +0.000 A 
ATOM      7  C   UNL     1       1.120  10.849  18.876  0.00  0.00    +0.000 C 
ATOM      8  O   UNL     1       2.026  10.371  18.196  0.00  0.00    +0.000 OA
ATOM      9  C   UNL     1       0.212  10.006  19.717  0.00  0.00    +0.000 C 
ATOM     10  C   UNL     1      -1.167  10.653  19.725  0.00  0.00    +0.000 C 
ATOM     11  O   UNL     1      -1.078  11.980  20.281  0.00  0.00    +0.000 OA
ENDROOT
BRANCH  10  12
ATOM     12  C   UNL     1      -1.963  10.643  18.420  0.00  0.00    +0.000 A 
ATOM     13  C   UNL     1      -1.617   9.848  17.314  0.00  0.00    +0.000 A 
ATOM     14  C   UNL     1      -2.383   9.862  16.143  0.00  0.00    +0.000 A 
ATOM     15  C   UNL     1      -3.515  10.663  16.075  0.00  0.00    +0.000 A 
ATOM     16  C   UNL     1      -3.889  11.451  17.156  0.00  0.00    +0.000 A 
ATOM     17  C   UNL     1      -3.117  11.442  18.321  0.00  0.00    +0.000 A 
BRANCH  15  18
ATOM     18  O   UNL     1      -4.292  10.697  14.955  0.00  0.00    +0.000 OA
ATOM     19  H   UNL     1      -4.946   9.981  15.009  0.00  0.00    +0.000 HD
ENDBRANCH  15  18
ENDBRANCH  10  12
BRANCH   2  20
ATOM     20  O   UNL     1       0.370  16.405  19.340  0.00  0.00    +0.000 OA
ATOM     21  H   UNL     1       1.171  16.820  19.698  0.00  0.00    +0.000 HD
ENDBRANCH   2  20
BRANCH   6  22
ATOM     22  O   UNL     1       2.782  12.711  17.448  0.00  0.00    +0.000 OA
ATOM     23  H   UNL     1       3.166  13.466  16.948  0.00  0.00    +0.000 HD
ENDBRANCH   6  22
BRANCH   1  24
ATOM     24  C   UNL     1       2.594  15.477  17.636  0.00  0.00    +0.000 C 
BRANCH  24  28
ATOM     25  C   UNL     1       5.772  16.627  19.603  0.00  0.00    +0.000 C 
ATOM     26  C   UNL     1       4.897  15.833  18.672  0.00  0.00    +0.000 C 
ATOM     27  C   UNL     1       5.554  14.755  17.859  0.00  0.00    +0.000 C 
ATOM     28  C   UNL     1       3.589  16.140  18.555  0.00  0.00    +0.000 C 
ENDBRANCH  24  28
ENDBRANCH   1  24
BRANCH   3  29
ATOM     29  C   UNL     1      -1.508  14.741  20.620  0.00  0.00    +0.000 C 
BRANCH  29  30
ATOM     30  C   UNL     1      -1.198  15.020  22.070  0.00  0.00    +0.000 C 
ATOM     31  C   UNL     1      -1.662  14.384  23.165  0.00  0.00    +0.000 C 
ATOM     32  C   UNL     1      -2.563  13.179  23.168  0.00  0.00    +0.000 C 
ATOM     33  C   UNL     1      -1.311  14.877  24.550  0.00  0.00    +0.000 C 
ENDBRANCH  29  30
ENDBRANCH   3  29
TORSDOF 8
ENDMDL
MODEL 8
REMARK VINA RESULT:      -6.2      1.350      2.183
REMARK  Name = 
REMARK  12 active torsions:
REMARK  status: ('A' for Active; 'I' for Inactive)
REMARK    1  A    between atoms: C_1  and  C_2
REMARK    2  A    between atoms: C_2  and  C_3
REMARK    3  A    between atoms: C_4  and  C_5
REMARK    4  A    between atoms: C_5  and  C_6
REMARK    5  A    between atoms: C_7  and  O_8
REMARK    6  A    between atoms: C_9  and  C_10
REMARK    7  A    between atoms: C_10  and  C_11
REMARK    8  A    between atoms: C_12  and  C_13
REMARK    9  A    between atoms: C_12  and  C_14
REMARK   10  A    between atoms: C_17  and  O_18
REMARK   11  A    between atoms: C_22  and  C_23
REMARK   12  A    between atoms: C_26  and  O_27
REMARK                            x       y       z     vdW  Elec       q    Type
REMARK                         _______ _______ _______ _____ _____    ______ ____
ROOT
ATOM      1  C   UNL     1       2.220  14.354  19.363  0.00  0.00    +0.000 A 
ATOM      2  C   UNL     1       1.400  14.444  20.507  0.00  0.00    +0.000 A 
ATOM      3  C   UNL     1       0.645  13.345  20.976  0.00  0.00    +0.000 A 
ATOM      4  C   UNL     1       0.735  12.126  20.281  0.00  0.00    +0.000 A 
ATOM      5  C   UNL     1       1.578  12.011  19.171  0.00  0.00    +0.000 A 
ATOM      6  C   UNL     1       2.283  13.120  18.695  0.00  0.00    +0.000 A 
ATOM      7  C   UNL     1       1.720  10.690  18.528  0.00  0.00    +0.000 C 
ATOM      8  O   UNL     1       2.421  10.556  17.527  0.00  0.00    +0.000 OA
ATOM      9  C   UNL     1       1.014   9.541  19.178  0.00  0.00    +0.000 C 
ATOM     10  C   UNL     1      -0.301  10.053  19.752  0.00  0.00    +0.000 C 
ATOM     11  O   UNL     1      -0.038  11.080  20.728  0.00  0.00    +0.000 OA
ENDROOT
BRANCH  10  12
ATOM     12  C   UNL     1      -1.386  10.481  18.764  0.00  0.00    +0.000 A 
ATOM     13  C   UNL     1      -1.491   9.962  17.462  0.00  0.00    +0.000 A 
ATOM     14  C   UNL     1      -2.509  10.375  16.596  0.00  0.00    +0.000 A 
ATOM     15  C   UNL     1      -3.445  11.301  17.034  0.00  0.00    +0.000 A 
ATOM     16  C   UNL     1      -3.376  11.823  18.319  0.00  0.00    +0.000 A 
ATOM     17  C   UNL     1      -2.352  11.417  19.179  0.00  0.00    +0.000 A 
BRANCH  15  18
ATOM     18  O   UNL     1      -4.459  11.722  16.224  0.00  0.00    +0.000 OA
ATOM     19  H   UNL     1      -4.212  11.545  15.301  0.00  0.00    +0.000 HD
ENDBRANCH  15  18
ENDBRANCH  10  12
BRANCH   2  20
ATOM     20  O   UNL     1       1.285  15.617  21.209  0.00  0.00    +0.000 OA
ATOM     21  H   UNL     1       1.715  16.338  20.721  0.00  0.00    +0.000 HD
ENDBRANCH   2  20
BRANCH   6  22
ATOM     22  O   UNL     1       3.051  13.048  17.558  0.00  0.00    +0.000 OA
ATOM     23  H   UNL     1       2.812  13.796  16.966  0.00  0.00    +0.000 HD
ENDBRANCH   6  22
BRANCH   1  24
ATOM     24  C   UNL     1       3.004  15.528  18.810  0.00  0.00    +0.000 C 
BRANCH  24  28
ATOM     25  C   UNL     1       6.183  16.601  20.819  0.00  0.00    +0.000 C 
ATOM     26  C   UNL     1       4.799  16.650  20.232  0.00  0.00    +0.000 C 
ATOM     27  C   UNL     1       3.925  17.806  20.624  0.00  0.00    +0.000 C 
ATOM     28  C   UNL     1       4.371  15.651  19.434  0.00  0.00    +0.000 C 
ENDBRANCH  24  28
ENDBRANCH   1  24
BRANCH   3  29
ATOM     29  C   UNL     1      -0.284  13.484  22.171  0.00  0.00    +0.000 C 
BRANCH  29  30
ATOM     30  C   UNL     1      -1.714  13.802  21.811  0.00  0.00    +0.000 C 
ATOM     31  C   UNL     1      -2.843  13.205  22.249  0.00  0.00    +0.000 C 
ATOM     32  C   UNL     1      -2.917  12.108  23.275  0.00  0.00    +0.000 C 
ATOM     33  C   UNL     1      -4.190  13.603  21.692  0.00  0.00    +0.000 C 
ENDBRANCH  29  30
ENDBRANCH   3  29
TORSDOF 8
ENDMDL
MODEL 9
REMARK VINA RESULT:      -6.1      6.728      9.880
REMARK  Name = 
REMARK  12 active torsions:
REMARK  status: ('A' for Active; 'I' for Inactive)
REMARK    1  A    between atoms: C_1  and  C_2
REMARK    2  A    between atoms: C_2  and  C_3
REMARK    3  A    between atoms: C_4  and  C_5
REMARK    4  A    between atoms: C_5  and  C_6
REMARK    5  A    between atoms: C_7  and  O_8
REMARK    6  A    between atoms: C_9  and  C_10
REMARK    7  A    between atoms: C_10  and  C_11
REMARK    8  A    between atoms: C_12  and  C_13
REMARK    9  A    between atoms: C_12  and  C_14
REMARK   10  A    between atoms: C_17  and  O_18
REMARK   11  A    between atoms: C_22  and  C_23
REMARK   12  A    between atoms: C_26  and  O_27
REMARK                            x       y       z     vdW  Elec       q    Type
REMARK                         _______ _______ _______ _____ _____    ______ ____
ROOT
ATOM      1  C   UNL     1       2.897   7.123  17.876  0.00  0.00    +0.000 A 
ATOM      2  C   UNL     1       2.627   5.768  18.160  0.00  0.00    +0.000 A 
ATOM      3  C   UNL     1       3.648   4.789  18.185  0.00  0.00    +0.000 A 
ATOM      4  C   UNL     1       4.970   5.195  17.932  0.00  0.00    +0.000 A 
ATOM      5  C   UNL     1       5.257   6.542  17.692  0.00  0.00    +0.000 A 
ATOM      6  C   UNL     1       4.230   7.489  17.628  0.00  0.00    +0.000 A 
ATOM      7  C   UNL     1       6.668   6.944  17.528  0.00  0.00    +0.000 C 
ATOM      8  O   UNL     1       6.959   8.112  17.276  0.00  0.00    +0.000 OA
ATOM      9  C   UNL     1       7.702   5.879  17.725  0.00  0.00    +0.000 C 
ATOM     10  C   UNL     1       7.141   4.566  17.196  0.00  0.00    +0.000 C 
ATOM     11  O   UNL     1       5.943   4.223  17.919  0.00  0.00    +0.000 OA
ENDROOT
BRANCH  10  12
ATOM     12  C   UNL     1       6.942   4.438  15.685  0.00  0.00    +0.000 A 
ATOM     13  C   UNL     1       7.728   5.124  14.744  0.00  0.00    +0.000 A 
ATOM     14  C   UNL     1       7.517   4.966  13.370  0.00  0.00    +0.000 A 
ATOM     15  C   UNL     1       6.525   4.103  12.925  0.00  0.00    +0.000 A 
ATOM     16  C   UNL     1       5.739   3.402  13.830  0.00  0.00    +0.000 A 
ATOM     17  C   UNL     1       5.946   3.569  15.203  0.00  0.00    +0.000 A 
BRANCH  15  18
ATOM     18  O   UNL     1       6.295   3.914  11.594  0.00  0.00    +0.000 OA
ATOM     19  H   UNL     1       7.147   3.789  11.146  0.00  0.00    +0.000 HD
ENDBRANCH  15  18
ENDBRANCH  10  12
BRANCH   2  20
ATOM     20  O   UNL     1       1.350   5.334  18.409  0.00  0.00    +0.000 OA
ATOM     21  H   UNL     1       0.825   6.055  18.793  0.00  0.00    +0.000 HD
ENDBRANCH   2  20
BRANCH   6  22
ATOM     22  O   UNL     1       4.483   8.802  17.311  0.00  0.00    +0.000 OA
ATOM     23  H   UNL     1       5.450   8.913  17.168  0.00  0.00    +0.000 HD
ENDBRANCH   6  22
BRANCH   1  24
ATOM     24  C   UNL     1       1.818   8.184  17.797  0.00  0.00    +0.000 C 
BRANCH  24  28
ATOM     25  C   UNL     1       0.402  10.240  20.808  0.00  0.00    +0.000 C 
ATOM     26  C   UNL     1       0.582   9.732  19.403  0.00  0.00    +0.000 C 
ATOM     27  C   UNL     1      -0.378  10.230  18.362  0.00  0.00    +0.000 C 
ATOM     28  C   UNL     1       1.542   8.824  19.134  0.00  0.00    +0.000 C 
ENDBRANCH  24  28
ENDBRANCH   1  24
BRANCH   3  29
ATOM     29  C   UNL     1       3.323   3.324  18.426  0.00  0.00    +0.000 C 
BRANCH  29  30
ATOM     30  C   UNL     1       2.987   2.991  19.858  0.00  0.00    +0.000 C 
ATOM     31  C   UNL     1       1.797   2.621  20.377  0.00  0.00    +0.000 C 
ATOM     32  C   UNL     1       0.531   2.389  19.599  0.00  0.00    +0.000 C 
ATOM     33  C   UNL     1       1.635   2.423  21.866  0.00  0.00    +0.000 C 
ENDBRANCH  29  30
ENDBRANCH   3  29
TORSDOF 8
ENDMDL
