MODEL 1
REMARK VINA RESULT:      -8.7      0.000      0.000
REMARK  Name = 
REMARK  12 active torsions:
REMARK  status: ('A' for Active; 'I' for Inactive)
REMARK    1  A    between atoms: C_1  and  C_2
REMARK    2  A    between atoms: C_2  and  C_3
REMARK    3  A    between atoms: C_2  and  C_15
REMARK    4  A    between atoms: C_6  and  C_7
REMARK    5  A    between atoms: C_15  and  C_16
REMARK    6  A    between atoms: C_15  and  C_18
REMARK    7  A    between atoms: C_16  and  S_17
REMARK    8  A    between atoms: N_20  and  CA_21
REMARK    9  A    between atoms: CA_21  and  CB_22
REMARK   10  A    between atoms: CA_21  and  C_32
REMARK   11  A    between atoms: CB_22  and  CG_23
REMARK   12  A    between atoms: C_32  and  OXT_34
REMARK                            x       y       z     vdW  Elec       q    Type
REMARK                         _______ _______ _______ _____ _____    ______ ____
ROOT
ATOM      1  C   UNK A   0       4.830   4.189  19.109  0.00  0.00    +0.000 C 
ATOM      2  O   UNK A   0       5.216   3.060  18.772  0.00  0.00    +0.000 OA
ATOM      3  N   TRP A   1       5.649   5.287  18.956  0.00  0.00    +0.000 N 
ATOM      4  H   TRP A   1       5.401   6.151  19.423  0.00  0.00    +0.000 HD
ENDROOT
BRANCH   1   5
ATOM      5  C   UNK A   0       3.433   4.511  19.725  0.00  0.00    +0.000 C 
BRANCH   5   7
ATOM      6  C   UNK A   0       1.532   4.642  17.993  0.00  0.00    +0.000 C 
ATOM      7  C   UNK A   0       2.629   5.430  18.735  0.00  0.00    +0.000 C 
BRANCH   7   8
ATOM      8  C   UNK A   0       2.074   6.732  19.326  0.00  0.00    +0.000 A 
ATOM      9  C   UNK A   0       1.582   6.803  20.617  0.00  0.00    +0.000 A 
ATOM     10  C   UNK A   0       1.067   7.985  21.140  0.00  0.00    +0.000 A 
ATOM     11  C   UNK A   0       1.039   9.172  20.397  0.00  0.00    +0.000 A 
ATOM     12  C   UNK A   0       1.542   9.106  19.086  0.00  0.00    +0.000 A 
ATOM     13  C   UNK A   0       2.055   7.908  18.549  0.00  0.00    +0.000 A 
BRANCH  11  14
ATOM     14  C   UNK A   0       0.469  10.405  20.994  0.00  0.00    +0.000 A 
ATOM     15  C   UNK A   0      -0.236  10.360  22.215  0.00  0.00    +0.000 A 
ATOM     16  C   UNK A   0      -0.878  11.486  22.738  0.00  0.00    +0.000 A 
ATOM     17  C   UNK A   0      -0.806  12.698  22.062  0.00  0.00    +0.000 A 
ATOM     18  C   UNK A   0      -0.083  12.783  20.876  0.00  0.00    +0.000 A 
ATOM     19  C   UNK A   0       0.546  11.649  20.348  0.00  0.00    +0.000 A 
ENDBRANCH  11  14
ENDBRANCH   7   8
ENDBRANCH   5   7
BRANCH   5  20
ATOM     20  C   UNK A   0       2.771   3.165  20.108  0.00  0.00    +0.000 C 
BRANCH  20  21
ATOM     21  S   UNK A   0       1.875   3.035  21.692  0.00  0.00    +0.000 S 
ATOM     22  H   UNK A   0       1.833   1.696  21.786  0.00  0.00    +0.000 HD
ENDBRANCH  20  21
ENDBRANCH   5  20
ENDBRANCH   1   5
BRANCH   3  23
ATOM     23  CA  TRP A   1       7.042   5.247  18.462  0.00  0.00    +0.000 C 
BRANCH  23  24
ATOM     24  C   TRP A   1       7.952   5.917  19.485  0.00  0.00    +0.000 C 
ATOM     25  O   TRP A   1       8.221   5.422  20.568  0.00  0.00    +0.000 OA
BRANCH  24  26
ATOM     26  OXT TRP A   1       8.483   7.097  19.101  0.00  0.00    +0.000 OA
ATOM     27  HXT TRP A   1       9.295   7.378  19.568  0.00  0.00    +0.000 HD
ENDBRANCH  24  26
ENDBRANCH  23  24
BRANCH  23  28
ATOM     28  CB  TRP A   1       7.278   5.803  17.062  0.00  0.00    +0.000 C 
BRANCH  28  29
ATOM     29  CG  TRP A   1       6.593   5.253  15.836  0.00  0.00    +0.000 A 
ATOM     30  CD1 TRP A   1       5.246   4.962  15.811  0.00  0.00    +0.000 A 
ATOM     31  NE1 TRP A   1       5.114   3.855  15.034  0.00  0.00    +0.000 N 
ATOM     32  CE2 TRP A   1       6.001   4.034  14.011  0.00  0.00    +0.000 A 
ATOM     33  CZ2 TRP A   1       5.933   3.504  12.723  0.00  0.00    +0.000 A 
ATOM     34  CH2 TRP A   1       6.818   4.030  11.794  0.00  0.00    +0.000 A 
ATOM     35  CZ3 TRP A   1       7.808   4.924  12.193  0.00  0.00    +0.000 A 
ATOM     36  CE3 TRP A   1       7.951   5.335  13.541  0.00  0.00    +0.000 A 
ATOM     37  CD2 TRP A   1       6.967   4.936  14.477  0.00  0.00    +0.000 A 
ATOM     38  HE1 TRP A   1       4.297   3.265  14.980  0.00  0.00    +0.000 HD
ENDBRANCH  28  29
ENDBRANCH  23  28
ENDBRANCH   3  23
TORSDOF 11
ENDMDL
MODEL 2
REMARK VINA RESULT:      -8.6      0.907      1.453
REMARK  Name = 
REMARK  12 active torsions:
REMARK  status: ('A' for Active; 'I' for Inactive)
REMARK    1  A    between atoms: C_1  and  C_2
REMARK    2  A    between atoms: C_2  and  C_3
REMARK    3  A    between atoms: C_2  and  C_15
REMARK    4  A    between atoms: C_6  and  C_7
REMARK    5  A    between atoms: C_15  and  C_16
REMARK    6  A    between atoms: C_15  and  C_18
REMARK    7  A    between atoms: C_16  and  S_17
REMARK    8  A    between atoms: N_20  and  CA_21
REMARK    9  A    between atoms: CA_21  and  CB_22
REMARK   10  A    between atoms: CA_21  and  C_32
REMARK   11  A    between atoms: CB_22  and  CG_23
REMARK   12  A    between atoms: C_32  and  OXT_34
REMARK                            x       y       z     vdW  Elec       q    Type
REMARK                         _______ _______ _______ _____ _____    ______ ____
ROOT
ATOM      1  C   UNK A   0       4.954   4.343  19.295  0.00  0.00    +0.000 C 
ATOM      2  O   UNK A   0       5.511   3.267  19.558  0.00  0.00    +0.000 OA
ATOM      3  N   TRP A   1       5.636   5.343  18.634  0.00  0.00    +0.000 N 
ATOM      4  H   TRP A   1       5.239   6.275  18.615  0.00  0.00    +0.000 HD
ENDROOT
BRANCH   1   5
ATOM      5  C   UNK A   0       3.479   4.702  19.654  0.00  0.00    +0.000 C 
BRANCH   5   7
ATOM      6  C   UNK A   0       1.806   4.626  17.698  0.00  0.00    +0.000 C 
ATOM      7  C   UNK A   0       2.831   5.490  18.459  0.00  0.00    +0.000 C 
BRANCH   7   8
ATOM      8  C   UNK A   0       2.251   6.869  18.798  0.00  0.00    +0.000 A 
ATOM      9  C   UNK A   0       2.018   7.828  17.828  0.00  0.00    +0.000 A 
ATOM     10  C   UNK A   0       1.505   9.080  18.146  0.00  0.00    +0.000 A 
ATOM     11  C   UNK A   0       1.174   9.432  19.461  0.00  0.00    +0.000 A 
ATOM     12  C   UNK A   0       1.404   8.459  20.450  0.00  0.00    +0.000 A 
ATOM     13  C   UNK A   0       1.934   7.193  20.132  0.00  0.00    +0.000 A 
BRANCH  11  14
ATOM     14  C   UNK A   0       0.639  10.785  19.752  0.00  0.00    +0.000 A 
ATOM     15  C   UNK A   0      -0.459  11.301  19.034  0.00  0.00    +0.000 A 
ATOM     16  C   UNK A   0      -0.907  12.613  19.212  0.00  0.00    +0.000 A 
ATOM     17  C   UNK A   0      -0.280  13.437  20.138  0.00  0.00    +0.000 A 
ATOM     18  C   UNK A   0       0.781  12.944  20.892  0.00  0.00    +0.000 A 
ATOM     19  C   UNK A   0       1.236  11.632  20.700  0.00  0.00    +0.000 A 
ENDBRANCH  11  14
ENDBRANCH   7   8
ENDBRANCH   5   7
BRANCH   5  20
ATOM     20  C   UNK A   0       2.773   3.392  20.080  0.00  0.00    +0.000 C 
BRANCH  20  21
ATOM     21  S   UNK A   0       1.294   3.487  21.146  0.00  0.00    +0.000 S 
ATOM     22  H   UNK A   0       0.406   3.882  20.219  0.00  0.00    +0.000 HD
ENDBRANCH  20  21
ENDBRANCH   5  20
ENDBRANCH   1   5
BRANCH   3  23
ATOM     23  CA  TRP A   1       7.061   5.287  18.242  0.00  0.00    +0.000 C 
BRANCH  23  24
ATOM     24  C   TRP A   1       7.882   6.105  19.233  0.00  0.00    +0.000 C 
ATOM     25  O   TRP A   1       8.362   7.195  18.964  0.00  0.00    +0.000 OA
BRANCH  24  26
ATOM     26  OXT TRP A   1       8.016   5.560  20.460  0.00  0.00    +0.000 OA
ATOM     27  HXT TRP A   1       7.338   4.903  20.717  0.00  0.00    +0.000 HD
ENDBRANCH  24  26
ENDBRANCH  23  24
BRANCH  23  28
ATOM     28  CB  TRP A   1       7.380   5.673  16.803  0.00  0.00    +0.000 C 
BRANCH  28  29
ATOM     29  CG  TRP A   1       6.664   5.080  15.616  0.00  0.00    +0.000 A 
ATOM     30  CD1 TRP A   1       5.345   4.681  15.674  0.00  0.00    +0.000 A 
ATOM     31  NE1 TRP A   1       5.252   3.574  14.892  0.00  0.00    +0.000 N 
ATOM     32  CE2 TRP A   1       6.054   3.833  13.817  0.00  0.00    +0.000 A 
ATOM     33  CZ2 TRP A   1       5.944   3.310  12.529  0.00  0.00    +0.000 A 
ATOM     34  CH2 TRP A   1       6.721   3.913  11.552  0.00  0.00    +0.000 A 
ATOM     35  CZ3 TRP A   1       7.660   4.881  11.899  0.00  0.00    +0.000 A 
ATOM     36  CE3 TRP A   1       7.858   5.291  13.240  0.00  0.00    +0.000 A 
ATOM     37  CD2 TRP A   1       6.972   4.806  14.232  0.00  0.00    +0.000 A 
ATOM     38  HE1 TRP A   1       4.484   2.920  14.883  0.00  0.00    +0.000 HD
ENDBRANCH  28  29
ENDBRANCH  23  28
ENDBRANCH   3  23
TORSDOF 11
ENDMDL
MODEL 3
REMARK VINA RESULT:      -8.6      0.808      1.444
REMARK  Name = 
REMARK  12 active torsions:
REMARK  status: ('A' for Active; 'I' for Inactive)
REMARK    1  A    between atoms: C_1  and  C_2
REMARK    2  A    between atoms: C_2  and  C_3
REMARK    3  A    between atoms: C_2  and  C_15
REMARK    4  A    between atoms: C_6  and  C_7
REMARK    5  A    between atoms: C_15  and  C_16
REMARK    6  A    between atoms: C_15  and  C_18
REMARK    7  A    between atoms: C_16  and  S_17
REMARK    8  A    between atoms: N_20  and  CA_21
REMARK    9  A    between atoms: CA_21  and  CB_22
REMARK   10  A    between atoms: CA_21  and  C_32
REMARK   11  A    between atoms: CB_22  and  CG_23
REMARK   12  A    between atoms: C_32  and  OXT_34
REMARK                            x       y       z     vdW  Elec       q    Type
REMARK                         _______ _______ _______ _____ _____    ______ ____
ROOT
ATOM      1  C   UNK A   0       4.498   4.805  19.430  0.00  0.00    +0.000 C 
ATOM      2  O   UNK A   0       4.744   3.590  19.460  0.00  0.00    +0.000 OA
ATOM      3  N   TRP A   1       5.428   5.698  18.940  0.00  0.00    +0.000 N 
ATOM      4  H   TRP A   1       5.296   6.687  19.116  0.00  0.00    +0.000 HD
ENDROOT
BRANCH   1   5
ATOM      5  C   UNK A   0       3.172   5.465  19.919  0.00  0.00    +0.000 C 
BRANCH   5   7
ATOM      6  C   UNK A   0       2.288   6.229  17.625  0.00  0.00    +0.000 C 
ATOM      7  C   UNK A   0       2.828   6.687  18.993  0.00  0.00    +0.000 C 
BRANCH   7   8
ATOM      8  C   UNK A   0       1.931   7.768  19.610  0.00  0.00    +0.000 A 
ATOM      9  C   UNK A   0       1.524   8.882  18.897  0.00  0.00    +0.000 A 
ATOM     10  C   UNK A   0       0.722   9.863  19.469  0.00  0.00    +0.000 A 
ATOM     11  C   UNK A   0       0.262   9.767  20.788  0.00  0.00    +0.000 A 
ATOM     12  C   UNK A   0       0.668   8.634  21.515  0.00  0.00    +0.000 A 
ATOM     13  C   UNK A   0       1.490   7.643  20.943  0.00  0.00    +0.000 A 
BRANCH  11  14
ATOM     14  C   UNK A   0      -0.583  10.845  21.358  0.00  0.00    +0.000 A 
ATOM     15  C   UNK A   0      -1.030  11.916  20.556  0.00  0.00    +0.000 A 
ATOM     16  C   UNK A   0      -1.730  12.999  21.094  0.00  0.00    +0.000 A 
ATOM     17  C   UNK A   0      -2.024  13.025  22.451  0.00  0.00    +0.000 A 
ATOM     18  C   UNK A   0      -1.632  11.963  23.262  0.00  0.00    +0.000 A 
ATOM     19  C   UNK A   0      -0.919  10.886  22.720  0.00  0.00    +0.000 A 
ENDBRANCH  11  14
ENDBRANCH   7   8
ENDBRANCH   5   7
BRANCH   5  20
ATOM     20  C   UNK A   0       2.104   4.348  20.012  0.00  0.00    +0.000 C 
BRANCH  20  21
ATOM     21  S   UNK A   0       1.988   3.353  21.537  0.00  0.00    +0.000 S 
ATOM     22  H   UNK A   0       2.734   2.306  21.147  0.00  0.00    +0.000 HD
ENDBRANCH  20  21
ENDBRANCH   5  20
ENDBRANCH   1   5
BRANCH   3  23
ATOM     23  CA  TRP A   1       6.787   5.344  18.479  0.00  0.00    +0.000 C 
BRANCH  23  24
ATOM     24  C   TRP A   1       7.805   5.853  19.494  0.00  0.00    +0.000 C 
ATOM     25  O   TRP A   1       8.059   5.270  20.536  0.00  0.00    +0.000 OA
BRANCH  24  26
ATOM     26  OXT TRP A   1       8.448   6.987  19.148  0.00  0.00    +0.000 OA
ATOM     27  HXT TRP A   1       9.084   7.340  19.802  0.00  0.00    +0.000 HD
ENDBRANCH  24  26
ENDBRANCH  23  24
BRANCH  23  28
ATOM     28  CB  TRP A   1       7.153   5.775  17.063  0.00  0.00    +0.000 C 
BRANCH  28  29
ATOM     29  CG  TRP A   1       6.525   5.168  15.833  0.00  0.00    +0.000 A 
ATOM     30  CD1 TRP A   1       5.216   4.737  15.810  0.00  0.00    +0.000 A 
ATOM     31  NE1 TRP A   1       5.197   3.630  15.022  0.00  0.00    +0.000 N 
ATOM     32  CE2 TRP A   1       6.057   3.911  13.999  0.00  0.00    +0.000 A 
ATOM     33  CZ2 TRP A   1       6.039   3.389  12.706  0.00  0.00    +0.000 A 
ATOM     34  CH2 TRP A   1       6.860   4.013  11.779  0.00  0.00    +0.000 A 
ATOM     35  CZ3 TRP A   1       7.753   5.003  12.184  0.00  0.00    +0.000 A 
ATOM     36  CE3 TRP A   1       7.858   5.414  13.536  0.00  0.00    +0.000 A 
ATOM     37  CD2 TRP A   1       6.924   4.905  14.471  0.00  0.00    +0.000 A 
ATOM     38  HE1 TRP A   1       4.447   2.958  14.965  0.00  0.00    +0.000 HD
ENDBRANCH  28  29
ENDBRANCH  23  28
ENDBRANCH   3  23
TORSDOF 11
ENDMDL
MODEL 4
REMARK VINA RESULT:      -8.5      1.129      1.552
REMARK  Name = 
REMARK  12 active torsions:
REMARK  status: ('A' for Active; 'I' for Inactive)
REMARK    1  A    between atoms: C_1  and  C_2
REMARK    2  A    between atoms: C_2  and  C_3
REMARK    3  A    between atoms: C_2  and  C_15
REMARK    4  A    between atoms: C_6  and  C_7
REMARK    5  A    between atoms: C_15  and  C_16
REMARK    6  A    between atoms: C_15  and  C_18
REMARK    7  A    between atoms: C_16  and  S_17
REMARK    8  A    between atoms: N_20  and  CA_21
REMARK    9  A    between atoms: CA_21  and  CB_22
REMARK   10  A    between atoms: CA_21  and  C_32
REMARK   11  A    between atoms: CB_22  and  CG_23
REMARK   12  A    between atoms: C_32  and  OXT_34
REMARK                            x       y       z     vdW  Elec       q    Type
REMARK                         _______ _______ _______ _____ _____    ______ ____
ROOT
ATOM      1  C   UNK A   0       5.071   4.688  19.332  0.00  0.00    +0.000 C 
ATOM      2  O   UNK A   0       5.691   3.655  19.622  0.00  0.00    +0.000 OA
ATOM      3  N   TRP A   1       5.700   5.722  18.671  0.00  0.00    +0.000 N 
ATOM      4  H   TRP A   1       5.244   6.626  18.631  0.00  0.00    +0.000 HD
ENDROOT
BRANCH   1   5
ATOM      5  C   UNK A   0       3.569   4.955  19.657  0.00  0.00    +0.000 C 
BRANCH   5   7
ATOM      6  C   UNK A   0       1.951   4.851  17.656  0.00  0.00    +0.000 C 
ATOM      7  C   UNK A   0       2.912   5.743  18.466  0.00  0.00    +0.000 C 
BRANCH   7   8
ATOM      8  C   UNK A   0       2.254   7.082  18.826  0.00  0.00    +0.000 A 
ATOM      9  C   UNK A   0       2.021   8.064  17.881  0.00  0.00    +0.000 A 
ATOM     10  C   UNK A   0       1.437   9.280  18.219  0.00  0.00    +0.000 A 
ATOM     11  C   UNK A   0       1.032   9.568  19.528  0.00  0.00    +0.000 A 
ATOM     12  C   UNK A   0       1.264   8.571  20.492  0.00  0.00    +0.000 A 
ATOM     13  C   UNK A   0       1.864   7.341  20.155  0.00  0.00    +0.000 A 
BRANCH  11  14
ATOM     14  C   UNK A   0       0.424  10.884  19.842  0.00  0.00    +0.000 A 
ATOM     15  C   UNK A   0       1.064  11.791  20.712  0.00  0.00    +0.000 A 
ATOM     16  C   UNK A   0       0.458  12.985  21.111  0.00  0.00    +0.000 A 
ATOM     17  C   UNK A   0      -0.800  13.316  20.625  0.00  0.00    +0.000 A 
ATOM     18  C   UNK A   0      -1.442  12.461  19.732  0.00  0.00    +0.000 A 
ATOM     19  C   UNK A   0      -0.835  11.259  19.346  0.00  0.00    +0.000 A 
ENDBRANCH  11  14
ENDBRANCH   7   8
ENDBRANCH   5   7
BRANCH   5  20
ATOM     20  C   UNK A   0       2.924   3.596  20.024  0.00  0.00    +0.000 C 
BRANCH  20  21
ATOM     21  S   UNK A   0       1.932   3.467  21.550  0.00  0.00    +0.000 S 
ATOM     22  H   UNK A   0       2.880   2.968  22.361  0.00  0.00    +0.000 HD
ENDBRANCH  20  21
ENDBRANCH   5  20
ENDBRANCH   1   5
BRANCH   3  23
ATOM     23  CA  TRP A   1       7.133   5.754  18.308  0.00  0.00    +0.000 C 
BRANCH  23  24
ATOM     24  C   TRP A   1       7.494   7.156  17.831  0.00  0.00    +0.000 C 
ATOM     25  O   TRP A   1       8.355   7.842  18.359  0.00  0.00    +0.000 OA
BRANCH  24  26
ATOM     26  OXT TRP A   1       6.819   7.588  16.745  0.00  0.00    +0.000 OA
ATOM     27  HXT TRP A   1       6.505   8.514  16.772  0.00  0.00    +0.000 HD
ENDBRANCH  24  26
ENDBRANCH  23  24
BRANCH  23  28
ATOM     28  CB  TRP A   1       7.602   4.694  17.319  0.00  0.00    +0.000 C 
BRANCH  28  29
ATOM     29  CG  TRP A   1       6.911   4.437  16.003  0.00  0.00    +0.000 A 
ATOM     30  CD1 TRP A   1       5.622   3.954  15.928  0.00  0.00    +0.000 A 
ATOM     31  NE1 TRP A   1       5.591   3.127  14.850  0.00  0.00    +0.000 N 
ATOM     32  CE2 TRP A   1       6.362   3.746  13.909  0.00  0.00    +0.000 A 
ATOM     33  CZ2 TRP A   1       6.271   3.625  12.522  0.00  0.00    +0.000 A 
ATOM     34  CH2 TRP A   1       6.997   4.542  11.776  0.00  0.00    +0.000 A 
ATOM     35  CZ3 TRP A   1       7.875   5.421  12.404  0.00  0.00    +0.000 A 
ATOM     36  CE3 TRP A   1       8.062   5.424  13.808  0.00  0.00    +0.000 A 
ATOM     37  CD2 TRP A   1       7.220   4.609  14.603  0.00  0.00    +0.000 A 
ATOM     38  HE1 TRP A   1       4.866   2.457  14.640  0.00  0.00    +0.000 HD
ENDBRANCH  28  29
ENDBRANCH  23  28
ENDBRANCH   3  23
TORSDOF 11
ENDMDL
MODEL 5
REMARK VINA RESULT:      -8.3      0.962      1.180
REMARK  Name = 
REMARK  12 active torsions:
REMARK  status: ('A' for Active; 'I' for Inactive)
REMARK    1  A    between atoms: C_1  and  C_2
REMARK    2  A    between atoms: C_2  and  C_3
REMARK    3  A    between atoms: C_2  and  C_15
REMARK    4  A    between atoms: C_6  and  C_7
REMARK    5  A    between atoms: C_15  and  C_16
REMARK    6  A    between atoms: C_15  and  C_18
REMARK    7  A    between atoms: C_16  and  S_17
REMARK    8  A    between atoms: N_20  and  CA_21
REMARK    9  A    between atoms: CA_21  and  CB_22
REMARK   10  A    between atoms: CA_21  and  C_32
REMARK   11  A    between atoms: CB_22  and  CG_23
REMARK   12  A    between atoms: C_32  and  OXT_34
REMARK                            x       y       z     vdW  Elec       q    Type
REMARK                         _______ _______ _______ _____ _____    ______ ____
ROOT
ATOM      1  C   UNK A   0       5.042   4.835  19.382  0.00  0.00    +0.000 C 
ATOM      2  O   UNK A   0       5.758   3.884  19.729  0.00  0.00    +0.000 OA
ATOM      3  N   TRP A   1       5.552   5.850  18.601  0.00  0.00    +0.000 N 
ATOM      4  H   TRP A   1       5.021   6.708  18.506  0.00  0.00    +0.000 HD
ENDROOT
BRANCH   1   5
ATOM      5  C   UNK A   0       3.539   5.012  19.762  0.00  0.00    +0.000 C 
BRANCH   5   7
ATOM      6  C   UNK A   0       1.967   5.358  17.752  0.00  0.00    +0.000 C 
ATOM      7  C   UNK A   0       2.876   6.050  18.786  0.00  0.00    +0.000 C 
BRANCH   7   8
ATOM      8  C   UNK A   0       2.161   7.235  19.448  0.00  0.00    +0.000 A 
ATOM      9  C   UNK A   0       1.700   7.181  20.751  0.00  0.00    +0.000 A 
ATOM     10  C   UNK A   0       1.040   8.255  21.338  0.00  0.00    +0.000 A 
ATOM     11  C   UNK A   0       0.827   9.457  20.653  0.00  0.00    +0.000 A 
ATOM     12  C   UNK A   0       1.299   9.519  19.330  0.00  0.00    +0.000 A 
ATOM     13  C   UNK A   0       1.959   8.429  18.727  0.00  0.00    +0.000 A 
BRANCH  11  14
ATOM     14  C   UNK A   0       0.108  10.571  21.318  0.00  0.00    +0.000 A 
ATOM     15  C   UNK A   0      -0.584  10.367  22.530  0.00  0.00    +0.000 A 
ATOM     16  C   UNK A   0      -1.361  11.370  23.115  0.00  0.00    +0.000 A 
ATOM     17  C   UNK A   0      -1.443  12.619  22.512  0.00  0.00    +0.000 A 
ATOM     18  C   UNK A   0      -0.739  12.865  21.337  0.00  0.00    +0.000 A 
ATOM     19  C   UNK A   0       0.028  11.851  20.747  0.00  0.00    +0.000 A 
ENDBRANCH  11  14
ENDBRANCH   7   8
ENDBRANCH   5   7
BRANCH   5  20
ATOM     20  C   UNK A   0       2.902   3.602  19.805  0.00  0.00    +0.000 C 
BRANCH  20  21
ATOM     21  S   UNK A   0       1.938   3.107  21.273  0.00  0.00    +0.000 S 
ATOM     22  H   UNK A   0       0.905   2.521  20.645  0.00  0.00    +0.000 HD
ENDBRANCH  20  21
ENDBRANCH   5  20
ENDBRANCH   1   5
BRANCH   3  23
ATOM     23  CA  TRP A   1       6.960   5.961  18.161  0.00  0.00    +0.000 C 
BRANCH  23  24
ATOM     24  C   TRP A   1       7.174   7.327  17.520  0.00  0.00    +0.000 C 
ATOM     25  O   TRP A   1       8.113   8.056  17.796  0.00  0.00    +0.000 OA
BRANCH  24  26
ATOM     26  OXT TRP A   1       6.268   7.673  16.582  0.00  0.00    +0.000 OA
ATOM     27  HXT TRP A   1       5.362   7.857  16.904  0.00  0.00    +0.000 HD
ENDBRANCH  24  26
ENDBRANCH  23  24
BRANCH  23  28
ATOM     28  CB  TRP A   1       7.477   4.840  17.267  0.00  0.00    +0.000 C 
BRANCH  28  29
ATOM     29  CG  TRP A   1       6.851   4.494  15.940  0.00  0.00    +0.000 A 
ATOM     30  CD1 TRP A   1       5.604   3.915  15.841  0.00  0.00    +0.000 A 
ATOM     31  NE1 TRP A   1       5.668   3.056  14.790  0.00  0.00    +0.000 N 
ATOM     32  CE2 TRP A   1       6.422   3.703  13.853  0.00  0.00    +0.000 A 
ATOM     33  CZ2 TRP A   1       6.386   3.536  12.469  0.00  0.00    +0.000 A 
ATOM     34  CH2 TRP A   1       7.066   4.481  11.717  0.00  0.00    +0.000 A 
ATOM     35  CZ3 TRP A   1       7.857   5.442  12.342  0.00  0.00    +0.000 A 
ATOM     36  CE3 TRP A   1       7.997   5.500  13.751  0.00  0.00    +0.000 A 
ATOM     37  CD2 TRP A   1       7.192   4.648  14.545  0.00  0.00    +0.000 A 
ATOM     38  HE1 TRP A   1       5.003   2.329  14.579  0.00  0.00    +0.000 HD
ENDBRANCH  28  29
ENDBRANCH  23  28
ENDBRANCH   3  23
TORSDOF 11
ENDMDL
MODEL 6
REMARK VINA RESULT:      -7.8      3.638      9.231
REMARK  Name = 
REMARK  12 active torsions:
REMARK  status: ('A' for Active; 'I' for Inactive)
REMARK    1  A    between atoms: C_1  and  C_2
REMARK    2  A    between atoms: C_2  and  C_3
REMARK    3  A    between atoms: C_2  and  C_15
REMARK    4  A    between atoms: C_6  and  C_7
REMARK    5  A    between atoms: C_15  and  C_16
REMARK    6  A    between atoms: C_15  and  C_18
REMARK    7  A    between atoms: C_16  and  S_17
REMARK    8  A    between atoms: N_20  and  CA_21
REMARK    9  A    between atoms: CA_21  and  CB_22
REMARK   10  A    between atoms: CA_21  and  C_32
REMARK   11  A    between atoms: CB_22  and  CG_23
REMARK   12  A    between atoms: C_32  and  OXT_34
REMARK                            x       y       z     vdW  Elec       q    Type
REMARK                         _______ _______ _______ _____ _____    ______ ____
ROOT
ATOM      1  C   UNK A   0       2.010   7.471  19.620  0.00  0.00    +0.000 C 
ATOM      2  O   UNK A   0       2.464   8.321  18.840  0.00  0.00    +0.000 OA
ATOM      3  N   TRP A   1       1.290   7.851  20.733  0.00  0.00    +0.000 N 
ATOM      4  H   TRP A   1       1.112   7.166  21.457  0.00  0.00    +0.000 HD
ENDROOT
BRANCH   1   5
ATOM      5  C   UNK A   0       2.182   5.928  19.464  0.00  0.00    +0.000 C 
BRANCH   5   7
ATOM      6  C   UNK A   0       4.030   4.435  20.457  0.00  0.00    +0.000 C 
ATOM      7  C   UNK A   0       3.713   5.574  19.468  0.00  0.00    +0.000 C 
BRANCH   7   8
ATOM      8  C   UNK A   0       4.347   5.309  18.097  0.00  0.00    +0.000 A 
ATOM      9  C   UNK A   0       4.610   4.029  17.643  0.00  0.00    +0.000 A 
ATOM     10  C   UNK A   0       5.198   3.799  16.404  0.00  0.00    +0.000 A 
ATOM     11  C   UNK A   0       5.534   4.847  15.538  0.00  0.00    +0.000 A 
ATOM     12  C   UNK A   0       5.264   6.150  15.993  0.00  0.00    +0.000 A 
ATOM     13  C   UNK A   0       4.678   6.387  17.252  0.00  0.00    +0.000 A 
BRANCH  11  14
ATOM     14  C   UNK A   0       6.169   4.552  14.230  0.00  0.00    +0.000 A 
ATOM     15  C   UNK A   0       7.291   5.283  13.788  0.00  0.00    +0.000 A 
ATOM     16  C   UNK A   0       7.835   5.100  12.513  0.00  0.00    +0.000 A 
ATOM     17  C   UNK A   0       7.283   4.158  11.656  0.00  0.00    +0.000 A 
ATOM     18  C   UNK A   0       6.200   3.392  12.078  0.00  0.00    +0.000 A 
ATOM     19  C   UNK A   0       5.650   3.588  13.351  0.00  0.00    +0.000 A 
ENDBRANCH  11  14
ENDBRANCH   7   8
ENDBRANCH   5   7
BRANCH   5  20
ATOM     20  C   UNK A   0       1.315   5.251  20.553  0.00  0.00    +0.000 C 
BRANCH  20  21
ATOM     21  S   UNK A   0       0.830   3.504  20.344  0.00  0.00    +0.000 S 
ATOM     22  H   UNK A   0      -0.501   3.672  20.286  0.00  0.00    +0.000 HD
ENDBRANCH  20  21
ENDBRANCH   5  20
ENDBRANCH   1   5
BRANCH   3  23
ATOM     23  CA  TRP A   1       1.042   9.248  21.150  0.00  0.00    +0.000 C 
BRANCH  23  24
ATOM     24  C   TRP A   1       1.298   9.373  22.647  0.00  0.00    +0.000 C 
ATOM     25  O   TRP A   1       0.412   9.569  23.464  0.00  0.00    +0.000 OA
BRANCH  24  26
ATOM     26  OXT TRP A   1       2.583   9.212  23.028  0.00  0.00    +0.000 OA
ATOM     27  HXT TRP A   1       2.765   9.308  23.984  0.00  0.00    +0.000 HD
ENDBRANCH  24  26
ENDBRANCH  23  24
BRANCH  23  28
ATOM     28  CB  TRP A   1      -0.311   9.836  20.767  0.00  0.00    +0.000 C 
BRANCH  28  29
ATOM     29  CG  TRP A   1      -0.605  10.396  19.398  0.00  0.00    +0.000 A 
ATOM     30  CD1 TRP A   1       0.314  11.145  18.695  0.00  0.00    +0.000 A 
ATOM     31  NE1 TRP A   1      -0.400  12.089  18.027  0.00  0.00    +0.000 N 
ATOM     32  CE2 TRP A   1      -1.528  11.444  17.606  0.00  0.00    +0.000 A 
ATOM     33  CZ2 TRP A   1      -2.323  11.755  16.502  0.00  0.00    +0.000 A 
ATOM     34  CH2 TRP A   1      -3.267  10.807  16.138  0.00  0.00    +0.000 A 
ATOM     35  CZ3 TRP A   1      -3.489   9.690  16.941  0.00  0.00    +0.000 A 
ATOM     36  CE3 TRP A   1      -2.769   9.472  18.141  0.00  0.00    +0.000 A 
ATOM     37  CD2 TRP A   1      -1.695  10.340  18.452  0.00  0.00    +0.000 A 
ATOM     38  HE1 TRP A   1      -0.024  12.917  17.592  0.00  0.00    +0.000 HD
ENDBRANCH  28  29
ENDBRANCH  23  28
ENDBRANCH   3  23
TORSDOF 11
ENDMDL
MODEL 7
REMARK VINA RESULT:      -7.8      5.805     11.259
REMARK  Name = 
REMARK  12 active torsions:
REMARK  status: ('A' for Active; 'I' for Inactive)
REMARK    1  A    between atoms: C_1  and  C_2
REMARK    2  A    between atoms: C_2  and  C_3
REMARK    3  A    between atoms: C_2  and  C_15
REMARK    4  A    between atoms: C_6  and  C_7
REMARK    5  A    between atoms: C_15  and  C_16
REMARK    6  A    between atoms: C_15  and  C_18
REMARK    7  A    between atoms: C_16  and  S_17
REMARK    8  A    between atoms: N_20  and  CA_21
REMARK    9  A    between atoms: CA_21  and  CB_22
REMARK   10  A    between atoms: CA_21  and  C_32
REMARK   11  A    between atoms: CB_22  and  CG_23
REMARK   12  A    between atoms: C_32  and  OXT_34
REMARK                            x       y       z     vdW  Elec       q    Type
REMARK                         _______ _______ _______ _____ _____    ______ ____
ROOT
ATOM      1  C   UNK A   0      -0.735  12.385  19.655  0.00  0.00    +0.000 C 
ATOM      2  O   UNK A   0      -0.249  13.452  19.253  0.00  0.00    +0.000 OA
ATOM      3  N   TRP A   1      -1.581  12.364  20.744  0.00  0.00    +0.000 N 
ATOM      4  H   TRP A   1      -1.797  11.476  21.179  0.00  0.00    +0.000 HD
ENDROOT
BRANCH   1   5
ATOM      5  C   UNK A   0      -0.472  10.984  19.022  0.00  0.00    +0.000 C 
BRANCH   5   7
ATOM      6  C   UNK A   0      -0.386   9.529  21.144  0.00  0.00    +0.000 C 
ATOM      7  C   UNK A   0       0.433  10.138  19.990  0.00  0.00    +0.000 C 
BRANCH   7   8
ATOM      8  C   UNK A   0       1.326   9.083  19.326  0.00  0.00    +0.000 A 
ATOM      9  C   UNK A   0       1.807   9.231  18.037  0.00  0.00    +0.000 A 
ATOM     10  C   UNK A   0       2.605   8.262  17.438  0.00  0.00    +0.000 A 
ATOM     11  C   UNK A   0       2.984   7.095  18.113  0.00  0.00    +0.000 A 
ATOM     12  C   UNK A   0       2.501   6.942  19.425  0.00  0.00    +0.000 A 
ATOM     13  C   UNK A   0       1.684   7.916  20.032  0.00  0.00    +0.000 A 
BRANCH  11  14
ATOM     14  C   UNK A   0       3.827   6.085  17.428  0.00  0.00    +0.000 A 
ATOM     15  C   UNK A   0       3.570   4.706  17.574  0.00  0.00    +0.000 A 
ATOM     16  C   UNK A   0       4.417   3.736  17.032  0.00  0.00    +0.000 A 
ATOM     17  C   UNK A   0       5.535   4.123  16.305  0.00  0.00    +0.000 A 
ATOM     18  C   UNK A   0       5.794   5.477  16.109  0.00  0.00    +0.000 A 
ATOM     19  C   UNK A   0       4.949   6.446  16.666  0.00  0.00    +0.000 A 
ENDBRANCH  11  14
ENDBRANCH   7   8
ENDBRANCH   5   7
BRANCH   5  20
ATOM     20  C   UNK A   0      -1.847  10.374  18.655  0.00  0.00    +0.000 C 
BRANCH  20  21
ATOM     21  S   UNK A   0      -2.241  10.064  16.900  0.00  0.00    +0.000 S 
ATOM     22  H   UNK A   0      -2.783   8.842  17.031  0.00  0.00    +0.000 HD
ENDBRANCH  20  21
ENDBRANCH   5  20
ENDBRANCH   1   5
BRANCH   3  23
ATOM     23  CA  TRP A   1      -1.939  13.541  21.566  0.00  0.00    +0.000 C 
BRANCH  23  24
ATOM     24  C   TRP A   1      -1.840  13.165  23.040  0.00  0.00    +0.000 C 
ATOM     25  O   TRP A   1      -1.009  13.641  23.798  0.00  0.00    +0.000 OA
BRANCH  24  26
ATOM     26  OXT TRP A   1      -2.767  12.286  23.476  0.00  0.00    +0.000 OA
ATOM     27  HXT TRP A   1      -3.404  11.965  22.807  0.00  0.00    +0.000 HD
ENDBRANCH  24  26
ENDBRANCH  23  24
BRANCH  23  28
ATOM     28  CB  TRP A   1      -3.275  14.203  21.251  0.00  0.00    +0.000 C 
BRANCH  28  29
ATOM     29  CG  TRP A   1      -4.544  13.421  21.021  0.00  0.00    +0.000 A 
ATOM     30  CD1 TRP A   1      -5.622  13.498  21.877  0.00  0.00    +0.000 A 
ATOM     31  NE1 TRP A   1      -6.164  12.252  21.914  0.00  0.00    +0.000 N 
ATOM     32  CE2 TRP A   1      -6.081  11.793  20.631  0.00  0.00    +0.000 A 
ATOM     33  CZ2 TRP A   1      -6.898  10.848  20.011  0.00  0.00    +0.000 A 
ATOM     34  CH2 TRP A   1      -6.772  10.733  18.635  0.00  0.00    +0.000 A 
ATOM     35  CZ3 TRP A   1      -5.770  11.427  17.960  0.00  0.00    +0.000 A 
ATOM     36  CE3 TRP A   1      -4.854  12.270  18.635  0.00  0.00    +0.000 A 
ATOM     37  CD2 TRP A   1      -5.059  12.525  20.013  0.00  0.00    +0.000 A 
ATOM     38  HE1 TRP A   1      -6.828  11.916  22.595  0.00  0.00    +0.000 HD
ENDBRANCH  28  29
ENDBRANCH  23  28
ENDBRANCH   3  23
TORSDOF 11
ENDMDL
MODEL 8
REMARK VINA RESULT:      -7.7      1.304      1.774
REMARK  Name = 
REMARK  12 active torsions:
REMARK  status: ('A' for Active; 'I' for Inactive)
REMARK    1  A    between atoms: C_1  and  C_2
REMARK    2  A    between atoms: C_2  and  C_3
REMARK    3  A    between atoms: C_2  and  C_15
REMARK    4  A    between atoms: C_6  and  C_7
REMARK    5  A    between atoms: C_15  and  C_16
REMARK    6  A    between atoms: C_15  and  C_18
REMARK    7  A    between atoms: C_16  and  S_17
REMARK    8  A    between atoms: N_20  and  CA_21
REMARK    9  A    between atoms: CA_21  and  CB_22
REMARK   10  A    between atoms: CA_21  and  C_32
REMARK   11  A    between atoms: CB_22  and  CG_23
REMARK   12  A    between atoms: C_32  and  OXT_34
REMARK                            x       y       z     vdW  Elec       q    Type
REMARK                         _______ _______ _______ _____ _____    ______ ____
ROOT
ATOM      1  C   UNK A   0       4.581   4.862  19.148  0.00  0.00    +0.000 C 
ATOM      2  O   UNK A   0       4.846   3.820  19.766  0.00  0.00    +0.000 OA
ATOM      3  N   TRP A   1       5.546   5.497  18.395  0.00  0.00    +0.000 N 
ATOM      4  H   TRP A   1       5.373   6.442  18.075  0.00  0.00    +0.000 HD
ENDROOT
BRANCH   1   5
ATOM      5  C   UNK A   0       3.191   5.568  19.136  0.00  0.00    +0.000 C 
BRANCH   5   7
ATOM      6  C   UNK A   0       3.549   6.944  16.989  0.00  0.00    +0.000 C 
ATOM      7  C   UNK A   0       3.344   7.004  18.515  0.00  0.00    +0.000 C 
BRANCH   7   8
ATOM      8  C   UNK A   0       2.255   8.018  18.888  0.00  0.00    +0.000 A 
ATOM      9  C   UNK A   0       1.780   8.953  17.985  0.00  0.00    +0.000 A 
ATOM     10  C   UNK A   0       0.803   9.878  18.337  0.00  0.00    +0.000 A 
ATOM     11  C   UNK A   0       0.229   9.899  19.614  0.00  0.00    +0.000 A 
ATOM     12  C   UNK A   0       0.705   8.948  20.534  0.00  0.00    +0.000 A 
ATOM     13  C   UNK A   0       1.703   8.016  20.185  0.00  0.00    +0.000 A 
BRANCH  11  14
ATOM     14  C   UNK A   0      -0.803  10.912  19.945  0.00  0.00    +0.000 A 
ATOM     15  C   UNK A   0      -0.927  11.421  21.255  0.00  0.00    +0.000 A 
ATOM     16  C   UNK A   0      -1.962  12.288  21.615  0.00  0.00    +0.000 A 
ATOM     17  C   UNK A   0      -2.888  12.691  20.662  0.00  0.00    +0.000 A 
ATOM     18  C   UNK A   0      -2.769  12.239  19.351  0.00  0.00    +0.000 A 
ATOM     19  C   UNK A   0      -1.738  11.359  18.997  0.00  0.00    +0.000 A 
ENDBRANCH  11  14
ENDBRANCH   7   8
ENDBRANCH   5   7
BRANCH   5  20
ATOM     20  C   UNK A   0       2.192   4.616  18.433  0.00  0.00    +0.000 C 
BRANCH  20  21
ATOM     21  S   UNK A   0       1.253   3.416  19.437  0.00  0.00    +0.000 S 
ATOM     22  H   UNK A   0       1.076   2.469  18.500  0.00  0.00    +0.000 HD
ENDBRANCH  20  21
ENDBRANCH   5  20
ENDBRANCH   1   5
BRANCH   3  23
ATOM     23  CA  TRP A   1       6.960   5.076  18.293  0.00  0.00    +0.000 C 
BRANCH  23  24
ATOM     24  C   TRP A   1       7.788   5.869  19.298  0.00  0.00    +0.000 C 
ATOM     25  O   TRP A   1       8.329   6.930  19.031  0.00  0.00    +0.000 OA
BRANCH  24  26
ATOM     26  OXT TRP A   1       7.859   5.336  20.536  0.00  0.00    +0.000 OA
ATOM     27  HXT TRP A   1       8.047   4.377  20.583  0.00  0.00    +0.000 HD
ENDBRANCH  24  26
ENDBRANCH  23  24
BRANCH  23  28
ATOM     28  CB  TRP A   1       7.580   5.125  16.902  0.00  0.00    +0.000 C 
BRANCH  28  29
ATOM     29  CG  TRP A   1       6.863   4.640  15.667  0.00  0.00    +0.000 A 
ATOM     30  CD1 TRP A   1       5.618   4.050  15.721  0.00  0.00    +0.000 A 
ATOM     31  NE1 TRP A   1       5.615   3.086  14.763  0.00  0.00    +0.000 N 
ATOM     32  CE2 TRP A   1       6.293   3.633  13.711  0.00  0.00    +0.000 A 
ATOM     33  CZ2 TRP A   1       6.159   3.320  12.359  0.00  0.00    +0.000 A 
ATOM     34  CH2 TRP A   1       6.773   4.183  11.464  0.00  0.00    +0.000 A 
ATOM     35  CZ3 TRP A   1       7.598   5.206  11.926  0.00  0.00    +0.000 A 
ATOM     36  CE3 TRP A   1       7.838   5.412  13.307  0.00  0.00    +0.000 A 
ATOM     37  CD2 TRP A   1       7.101   4.646  14.242  0.00  0.00    +0.000 A 
ATOM     38  HE1 TRP A   1       4.943   2.339  14.678  0.00  0.00    +0.000 HD
ENDBRANCH  28  29
ENDBRANCH  23  28
ENDBRANCH   3  23
TORSDOF 11
ENDMDL
MODEL 9
REMARK VINA RESULT:      -7.7      6.254      9.441
REMARK  Name = 
REMARK  12 active torsions:
REMARK  status: ('A' for Active; 'I' for Inactive)
REMARK    1  A    between atoms: C_1  and  C_2
REMARK    2  A    between atoms: C_2  and  C_3
REMARK    3  A    between atoms: C_2  and  C_15
REMARK    4  A    between atoms: C_6  and  C_7
REMARK    5  A    between atoms: C_15  and  C_16
REMARK    6  A    between atoms: C_15  and  C_18
REMARK    7  A    between atoms: C_16  and  S_17
REMARK    8  A    between atoms: N_20  and  CA_21
REMARK    9  A    between atoms: CA_21  and  CB_22
REMARK   10  A    between atoms: CA_21  and  C_32
REMARK   11  A    between atoms: CB_22  and  CG_23
REMARK   12  A    between atoms: C_32  and  OXT_34
REMARK                            x       y       z     vdW  Elec       q    Type
REMARK                         _______ _______ _______ _____ _____    ______ ____
ROOT
ATOM      1  C   UNK A   0       1.978  13.386  19.280  0.00  0.00    +0.000 C 
ATOM      2  O   UNK A   0       2.529  13.281  20.386  0.00  0.00    +0.000 OA
ATOM      3  N   TRP A   1       2.493  14.225  18.315  0.00  0.00    +0.000 N 
ATOM      4  H   TRP A   1       1.922  14.454  17.510  0.00  0.00    +0.000 HD
ENDROOT
BRANCH   1   5
ATOM      5  C   UNK A   0       0.688  12.624  18.845  0.00  0.00    +0.000 C 
BRANCH   5   7
ATOM      6  C   UNK A   0      -1.031  11.202  20.130  0.00  0.00    +0.000 C 
ATOM      7  C   UNK A   0       0.462  11.398  19.802  0.00  0.00    +0.000 C 
BRANCH   7   8
ATOM      8  C   UNK A   0       1.112  10.078  19.369  0.00  0.00    +0.000 A 
ATOM      9  C   UNK A   0       1.606   9.884  18.092  0.00  0.00    +0.000 A 
ATOM     10  C   UNK A   0       2.182   8.679  17.705  0.00  0.00    +0.000 A 
ATOM     11  C   UNK A   0       2.314   7.603  18.592  0.00  0.00    +0.000 A 
ATOM     12  C   UNK A   0       1.818   7.797  19.893  0.00  0.00    +0.000 A 
ATOM     13  C   UNK A   0       1.225   9.013  20.286  0.00  0.00    +0.000 A 
BRANCH  11  14
ATOM     14  C   UNK A   0       2.925   6.333  18.129  0.00  0.00    +0.000 A 
ATOM     15  C   UNK A   0       4.260   6.294  17.675  0.00  0.00    +0.000 A 
ATOM     16  C   UNK A   0       4.819   5.136  17.129  0.00  0.00    +0.000 A 
ATOM     17  C   UNK A   0       4.062   3.975  17.048  0.00  0.00    +0.000 A 
ATOM     18  C   UNK A   0       2.754   3.970  17.526  0.00  0.00    +0.000 A 
ATOM     19  C   UNK A   0       2.193   5.138  18.060  0.00  0.00    +0.000 A 
ENDBRANCH  11  14
ENDBRANCH   7   8
ENDBRANCH   5   7
BRANCH   5  20
ATOM     20  C   UNK A   0      -0.460  13.660  18.768  0.00  0.00    +0.000 C 
BRANCH  20  21
ATOM     21  S   UNK A   0      -0.589  14.942  20.060  0.00  0.00    +0.000 S 
ATOM     22  H   UNK A   0       0.322  15.803  19.577  0.00  0.00    +0.000 HD
ENDBRANCH  20  21
ENDBRANCH   5  20
ENDBRANCH   1   5
BRANCH   3  23
ATOM     23  CA  TRP A   1       3.664  15.111  18.494  0.00  0.00    +0.000 C 
BRANCH  23  24
ATOM     24  C   TRP A   1       3.238  16.554  18.253  0.00  0.00    +0.000 C 
ATOM     25  O   TRP A   1       3.207  17.399  19.133  0.00  0.00    +0.000 OA
BRANCH  24  26
ATOM     26  OXT TRP A   1       2.926  16.858  16.976  0.00  0.00    +0.000 OA
ATOM     27  HXT TRP A   1       3.146  17.765  16.682  0.00  0.00    +0.000 HD
ENDBRANCH  24  26
ENDBRANCH  23  24
BRANCH  23  28
ATOM     28  CB  TRP A   1       4.907  14.757  17.686  0.00  0.00    +0.000 C 
BRANCH  28  29
ATOM     29  CG  TRP A   1       6.304  14.843  18.249  0.00  0.00    +0.000 A 
ATOM     30  CD1 TRP A   1       6.622  15.663  19.311  0.00  0.00    +0.000 A 
ATOM     31  NE1 TRP A   1       7.875  16.128  19.066  0.00  0.00    +0.000 N 
ATOM     32  CE2 TRP A   1       8.547  15.066  18.533  0.00  0.00    +0.000 A 
ATOM     33  CZ2 TRP A   1       9.920  14.823  18.572  0.00  0.00    +0.000 A 
ATOM     34  CH2 TRP A   1      10.332  13.558  18.180  0.00  0.00    +0.000 A 
ATOM     35  CZ3 TRP A   1       9.418  12.657  17.638  0.00  0.00    +0.000 A 
ATOM     36  CE3 TRP A   1       8.050  12.983  17.470  0.00  0.00    +0.000 A 
ATOM     37  CD2 TRP A   1       7.576  14.205  18.005  0.00  0.00    +0.000 A 
ATOM     38  HE1 TRP A   1       8.318  16.905  19.533  0.00  0.00    +0.000 HD
ENDBRANCH  28  29
ENDBRANCH  23  28
ENDBRANCH   3  23
TORSDOF 11
ENDMDL
