MODEL 1
REMARK VINA RESULT:      -7.4      0.000      0.000
REMARK  Name = 
REMARK  9 active torsions:
REMARK  status: ('A' for Active; 'I' for Inactive)
REMARK    1  A    between atoms: C_1  and  O_2
REMARK    2  A    between atoms: O_2  and  C_3
REMARK    3  A    between atoms: N_5  and  N_6
REMARK    4  A    between atoms: C_7  and  C_8
REMARK    5  A    between atoms: C_7  and  C_9
REMARK    6  A    between atoms: C_12  and  O_13
REMARK    7  A    between atoms: O_13  and  C_14
REMARK    8  A    between atoms: C_18  and  O_19
REMARK    9  A    between atoms: O_19  and  C_20
REMARK                            x       y       z     vdW  Elec       q    Type
REMARK                         _______ _______ _______ _____ _____    ______ ____
ROOT
ATOM      1  C   UNL     1       4.453   4.277  17.185  0.00  0.00    +0.000 A 
ATOM      2  C   UNL     1       3.109   3.894  17.022  0.00  0.00    +0.000 A 
ATOM      3  C   UNL     1       2.395   3.287  18.055  0.00  0.00    +0.000 A 
ATOM      4  C   UNL     1       3.011   3.021  19.273  0.00  0.00    +0.000 A 
ATOM      5  C   UNL     1       4.339   3.402  19.456  0.00  0.00    +0.000 A 
ATOM      6  C   UNL     1       5.073   4.034  18.427  0.00  0.00    +0.000 A 
ENDROOT
BRANCH   1   8
ATOM      7  N   UNL     1       5.664   4.080  15.112  0.00  0.00    +0.000 NA
ATOM      8  C   UNL     1       5.144   4.881  15.993  0.00  0.00    +0.000 C 
ATOM      9  C   UNL     1       5.152   6.398  15.904  0.00  0.00    +0.000 C 
BRANCH   7  12
ATOM     10  C   UNL     1       6.430   3.870  12.878  0.00  0.00    +0.000 C 
ATOM     11  O   UNL     1       5.813   2.842  12.618  0.00  0.00    +0.000 OA
ATOM     12  N   UNL     1       6.376   4.567  14.061  0.00  0.00    +0.000 N 
ATOM     13  H   UNL     1       7.035   5.326  14.162  0.00  0.00    +0.000 HD
BRANCH  10  15
ATOM     14  C   UNL     1       8.115   5.468  12.672  0.00  0.00    +0.000 C 
ATOM     15  O   UNL     1       7.316   4.468  12.038  0.00  0.00    +0.000 OA
ENDBRANCH  10  15
ENDBRANCH   7  12
ENDBRANCH   1   8
BRANCH   4  16
ATOM     16  O   UNL     1       2.215   2.413  20.199  0.00  0.00    +0.000 OA
BRANCH  16  17
ATOM     17  C   UNL     1       1.619   3.268  21.162  0.00  0.00    +0.000 C 
ATOM     18  F   UNL     1       0.626   3.972  20.567  0.00  0.00    +0.000 F 
ATOM     19  F   UNL     1       1.034   2.474  22.094  0.00  0.00    +0.000 F 
ENDBRANCH  16  17
ENDBRANCH   4  16
BRANCH   6  20
ATOM     20  O   UNL     1       6.368   4.264  18.800  0.00  0.00    +0.000 OA
BRANCH  20  21
ATOM     21  C   UNL     1       6.814   5.596  19.027  0.00  0.00    +0.000 C 
ATOM     22  F   UNL     1       7.515   5.692  20.184  0.00  0.00    +0.000 F 
ATOM     23  F   UNL     1       7.694   5.887  18.032  0.00  0.00    +0.000 F 
ENDBRANCH  20  21
ENDBRANCH   6  20
TORSDOF 7
ENDMDL
MODEL 2
REMARK VINA RESULT:      -7.3      3.142      6.672
REMARK  Name = 
REMARK  9 active torsions:
REMARK  status: ('A' for Active; 'I' for Inactive)
REMARK    1  A    between atoms: C_1  and  O_2
REMARK    2  A    between atoms: O_2  and  C_3
REMARK    3  A    between atoms: N_5  and  N_6
REMARK    4  A    between atoms: C_7  and  C_8
REMARK    5  A    between atoms: C_7  and  C_9
REMARK    6  A    between atoms: C_12  and  O_13
REMARK    7  A    between atoms: O_13  and  C_14
REMARK    8  A    between atoms: C_18  and  O_19
REMARK    9  A    between atoms: O_19  and  C_20
REMARK                            x       y       z     vdW  Elec       q    Type
REMARK                         _______ _______ _______ _____ _____    ______ ____
ROOT
ATOM      1  C   UNL     1       5.311   4.448  17.144  0.00  0.00    +0.000 A 
ATOM      2  C   UNL     1       4.718   4.577  15.875  0.00  0.00    +0.000 A 
ATOM      3  C   UNL     1       5.487   4.776  14.729  0.00  0.00    +0.000 A 
ATOM      4  C   UNL     1       6.871   4.877  14.820  0.00  0.00    +0.000 A 
ATOM      5  C   UNL     1       7.477   4.741  16.068  0.00  0.00    +0.000 A 
ATOM      6  C   UNL     1       6.715   4.522  17.238  0.00  0.00    +0.000 A 
ENDROOT
BRANCH   1   8
ATOM      7  N   UNL     1       3.880   3.109  18.544  0.00  0.00    +0.000 NA
ATOM      8  C   UNL     1       4.387   4.283  18.320  0.00  0.00    +0.000 C 
ATOM      9  C   UNL     1       4.143   5.516  19.175  0.00  0.00    +0.000 C 
BRANCH   7  12
ATOM     10  C   UNL     1       1.628   2.889  19.252  0.00  0.00    +0.000 C 
ATOM     11  O   UNL     1       1.127   2.938  18.133  0.00  0.00    +0.000 OA
ATOM     12  N   UNL     1       2.972   2.919  19.538  0.00  0.00    +0.000 N 
ATOM     13  H   UNL     1       3.219   2.992  20.515  0.00  0.00    +0.000 HD
BRANCH  10  15
ATOM     14  C   UNL     1       1.739   2.822  21.580  0.00  0.00    +0.000 C 
ATOM     15  O   UNL     1       0.918   2.843  20.411  0.00  0.00    +0.000 OA
ENDBRANCH  10  15
ENDBRANCH   7  12
ENDBRANCH   1   8
BRANCH   4  16
ATOM     16  O   UNL     1       7.512   5.084  13.634  0.00  0.00    +0.000 OA
BRANCH  16  17
ATOM     17  C   UNL     1       6.863   4.574  12.481  0.00  0.00    +0.000 C 
ATOM     18  F   UNL     1       7.484   5.060  11.378  0.00  0.00    +0.000 F 
ATOM     19  F   UNL     1       7.053   3.230  12.478  0.00  0.00    +0.000 F 
ENDBRANCH  16  17
ENDBRANCH   4  16
BRANCH   6  20
ATOM     20  O   UNL     1       7.505   4.480  18.352  0.00  0.00    +0.000 OA
BRANCH  20  21
ATOM     21  C   UNL     1       7.657   5.644  19.157  0.00  0.00    +0.000 C 
ATOM     22  F   UNL     1       8.604   5.465  20.111  0.00  0.00    +0.000 F 
ATOM     23  F   UNL     1       8.131   6.624  18.340  0.00  0.00    +0.000 F 
ENDBRANCH  20  21
ENDBRANCH   6  20
TORSDOF 7
ENDMDL
MODEL 3
REMARK VINA RESULT:      -7.3      3.452      6.768
REMARK  Name = 
REMARK  9 active torsions:
REMARK  status: ('A' for Active; 'I' for Inactive)
REMARK    1  A    between atoms: C_1  and  O_2
REMARK    2  A    between atoms: O_2  and  C_3
REMARK    3  A    between atoms: N_5  and  N_6
REMARK    4  A    between atoms: C_7  and  C_8
REMARK    5  A    between atoms: C_7  and  C_9
REMARK    6  A    between atoms: C_12  and  O_13
REMARK    7  A    between atoms: O_13  and  C_14
REMARK    8  A    between atoms: C_18  and  O_19
REMARK    9  A    between atoms: O_19  and  C_20
REMARK                            x       y       z     vdW  Elec       q    Type
REMARK                         _______ _______ _______ _____ _____    ______ ____
ROOT
ATOM      1  C   UNL     1       5.614   4.365  17.099  0.00  0.00    +0.000 A 
ATOM      2  C   UNL     1       4.807   3.922  16.036  0.00  0.00    +0.000 A 
ATOM      3  C   UNL     1       5.250   3.975  14.714  0.00  0.00    +0.000 A 
ATOM      4  C   UNL     1       6.503   4.497  14.414  0.00  0.00    +0.000 A 
ATOM      5  C   UNL     1       7.321   4.931  15.455  0.00  0.00    +0.000 A 
ATOM      6  C   UNL     1       6.896   4.869  16.801  0.00  0.00    +0.000 A 
ENDROOT
BRANCH   1   8
ATOM      7  N   UNL     1       5.156   3.209  19.161  0.00  0.00    +0.000 NA
ATOM      8  C   UNL     1       5.023   4.307  18.481  0.00  0.00    +0.000 C 
ATOM      9  C   UNL     1       4.332   5.565  18.981  0.00  0.00    +0.000 C 
BRANCH   7  12
ATOM     10  C   UNL     1       3.337   2.465  20.488  0.00  0.00    +0.000 C 
ATOM     11  O   UNL     1       2.707   1.941  19.575  0.00  0.00    +0.000 OA
ATOM     12  N   UNL     1       4.568   3.067  20.379  0.00  0.00    +0.000 N 
ATOM     13  H   UNL     1       4.900   3.558  21.198  0.00  0.00    +0.000 HD
BRANCH  10  15
ATOM     14  C   UNL     1       1.483   2.799  21.861  0.00  0.00    +0.000 C 
ATOM     15  O   UNL     1       2.890   2.575  21.767  0.00  0.00    +0.000 OA
ENDBRANCH  10  15
ENDBRANCH   7  12
ENDBRANCH   1   8
BRANCH   4  16
ATOM     16  O   UNL     1       6.818   4.508  13.087  0.00  0.00    +0.000 OA
BRANCH  16  17
ATOM     17  C   UNL     1       6.411   3.371  12.342  0.00  0.00    +0.000 C 
ATOM     18  F   UNL     1       5.322   3.698  11.605  0.00  0.00    +0.000 F 
ATOM     19  F   UNL     1       7.409   3.089  11.466  0.00  0.00    +0.000 F 
ENDBRANCH  16  17
ENDBRANCH   4  16
BRANCH   6  20
ATOM     20  O   UNL     1       7.828   5.402  17.648  0.00  0.00    +0.000 OA
BRANCH  20  21
ATOM     21  C   UNL     1       7.686   6.741  18.106  0.00  0.00    +0.000 C 
ATOM     22  F   UNL     1       8.601   7.038  19.061  0.00  0.00    +0.000 F 
ATOM     23  F   UNL     1       7.975   7.547  17.048  0.00  0.00    +0.000 F 
ENDBRANCH  20  21
ENDBRANCH   6  20
TORSDOF 7
ENDMDL
MODEL 4
REMARK VINA RESULT:      -7.2      0.959      1.125
REMARK  Name = 
REMARK  9 active torsions:
REMARK  status: ('A' for Active; 'I' for Inactive)
REMARK    1  A    between atoms: C_1  and  O_2
REMARK    2  A    between atoms: O_2  and  C_3
REMARK    3  A    between atoms: N_5  and  N_6
REMARK    4  A    between atoms: C_7  and  C_8
REMARK    5  A    between atoms: C_7  and  C_9
REMARK    6  A    between atoms: C_12  and  O_13
REMARK    7  A    between atoms: O_13  and  C_14
REMARK    8  A    between atoms: C_18  and  O_19
REMARK    9  A    between atoms: O_19  and  C_20
REMARK                            x       y       z     vdW  Elec       q    Type
REMARK                         _______ _______ _______ _____ _____    ______ ____
ROOT
ATOM      1  C   UNL     1       4.639   4.098  17.149  0.00  0.00    +0.000 A 
ATOM      2  C   UNL     1       3.278   3.759  17.049  0.00  0.00    +0.000 A 
ATOM      3  C   UNL     1       2.534   3.394  18.171  0.00  0.00    +0.000 A 
ATOM      4  C   UNL     1       3.136   3.332  19.423  0.00  0.00    +0.000 A 
ATOM      5  C   UNL     1       4.482   3.674  19.544  0.00  0.00    +0.000 A 
ATOM      6  C   UNL     1       5.247   4.063  18.421  0.00  0.00    +0.000 A 
ENDROOT
BRANCH   1   8
ATOM      7  N   UNL     1       5.817   3.455  15.150  0.00  0.00    +0.000 NA
ATOM      8  C   UNL     1       5.360   4.432  15.871  0.00  0.00    +0.000 C 
ATOM      9  C   UNL     1       5.469   5.906  15.514  0.00  0.00    +0.000 C 
BRANCH   7  12
ATOM     10  C   UNL     1       5.970   3.620  12.789  0.00  0.00    +0.000 C 
ATOM     11  O   UNL     1       4.780   3.424  12.562  0.00  0.00    +0.000 OA
ATOM     12  N   UNL     1       6.552   3.697  14.032  0.00  0.00    +0.000 N 
ATOM     13  H   UNL     1       7.561   3.743  14.050  0.00  0.00    +0.000 HD
BRANCH  10  15
ATOM     14  C   UNL     1       7.322   2.505  11.252  0.00  0.00    +0.000 C 
ATOM     15  O   UNL     1       6.925   3.748  11.831  0.00  0.00    +0.000 OA
ENDBRANCH  10  15
ENDBRANCH   7  12
ENDBRANCH   1   8
BRANCH   4  16
ATOM     16  O   UNL     1       2.311   2.950  20.440  0.00  0.00    +0.000 OA
BRANCH  16  17
ATOM     17  C   UNL     1       1.585   3.990  21.074  0.00  0.00    +0.000 C 
ATOM     18  F   UNL     1       2.298   5.140  20.983  0.00  0.00    +0.000 F 
ATOM     19  F   UNL     1       0.446   4.176  20.360  0.00  0.00    +0.000 F 
ENDBRANCH  16  17
ENDBRANCH   4  16
BRANCH   6  20
ATOM     20  O   UNL     1       6.551   4.294  18.756  0.00  0.00    +0.000 OA
BRANCH  20  21
ATOM     21  C   UNL     1       6.986   5.620  19.038  0.00  0.00    +0.000 C 
ATOM     22  F   UNL     1       7.737   5.665  20.166  0.00  0.00    +0.000 F 
ATOM     23  F   UNL     1       7.817   5.981  18.022  0.00  0.00    +0.000 F 
ENDBRANCH  20  21
ENDBRANCH   6  20
TORSDOF 7
ENDMDL
MODEL 5
REMARK VINA RESULT:      -7.2      2.903      6.991
REMARK  Name = 
REMARK  9 active torsions:
REMARK  status: ('A' for Active; 'I' for Inactive)
REMARK    1  A    between atoms: C_1  and  O_2
REMARK    2  A    between atoms: O_2  and  C_3
REMARK    3  A    between atoms: N_5  and  N_6
REMARK    4  A    between atoms: C_7  and  C_8
REMARK    5  A    between atoms: C_7  and  C_9
REMARK    6  A    between atoms: C_12  and  O_13
REMARK    7  A    between atoms: O_13  and  C_14
REMARK    8  A    between atoms: C_18  and  O_19
REMARK    9  A    between atoms: O_19  and  C_20
REMARK                            x       y       z     vdW  Elec       q    Type
REMARK                         _______ _______ _______ _____ _____    ______ ____
ROOT
ATOM      1  C   UNL     1       5.377   4.439  16.980  0.00  0.00    +0.000 A 
ATOM      2  C   UNL     1       4.695   4.405  15.751  0.00  0.00    +0.000 A 
ATOM      3  C   UNL     1       5.382   4.426  14.537  0.00  0.00    +0.000 A 
ATOM      4  C   UNL     1       6.770   4.508  14.516  0.00  0.00    +0.000 A 
ATOM      5  C   UNL     1       7.463   4.533  15.725  0.00  0.00    +0.000 A 
ATOM      6  C   UNL     1       6.786   4.495  16.964  0.00  0.00    +0.000 A 
ENDROOT
BRANCH   1   8
ATOM      7  N   UNL     1       4.368   3.345  18.873  0.00  0.00    +0.000 NA
ATOM      8  C   UNL     1       4.539   4.459  18.230  0.00  0.00    +0.000 C 
ATOM      9  C   UNL     1       3.979   5.807  18.655  0.00  0.00    +0.000 C 
BRANCH   7  12
ATOM     10  C   UNL     1       3.854   2.451  21.009  0.00  0.00    +0.000 C 
ATOM     11  O   UNL     1       4.873   1.778  21.124  0.00  0.00    +0.000 OA
ATOM     12  N   UNL     1       3.551   3.283  19.958  0.00  0.00    +0.000 N 
ATOM     13  H   UNL     1       2.619   3.675  19.954  0.00  0.00    +0.000 HD
BRANCH  10  15
ATOM     14  C   UNL     1       1.551   2.678  21.292  0.00  0.00    +0.000 C 
ATOM     15  O   UNL     1       2.824   2.446  21.896  0.00  0.00    +0.000 OA
ENDBRANCH  10  15
ENDBRANCH   7  12
ENDBRANCH   1   8
BRANCH   4  16
ATOM     16  O   UNL     1       7.325   4.536  13.271  0.00  0.00    +0.000 OA
BRANCH  16  17
ATOM     17  C   UNL     1       7.890   5.774  12.870  0.00  0.00    +0.000 C 
ATOM     18  F   UNL     1       9.214   5.765  13.159  0.00  0.00    +0.000 F 
ATOM     19  F   UNL     1       7.784   5.842  11.519  0.00  0.00    +0.000 F 
ENDBRANCH  16  17
ENDBRANCH   4  16
BRANCH   6  20
ATOM     20  O   UNL     1       7.654   4.590  18.015  0.00  0.00    +0.000 OA
BRANCH  20  21
ATOM     21  C   UNL     1       7.802   5.827  18.702  0.00  0.00    +0.000 C 
ATOM     22  F   UNL     1       7.177   6.836  18.046  0.00  0.00    +0.000 F 
ATOM     23  F   UNL     1       7.150   5.694  19.889  0.00  0.00    +0.000 F 
ENDBRANCH  20  21
ENDBRANCH   6  20
TORSDOF 7
ENDMDL
MODEL 6
REMARK VINA RESULT:      -7.1      2.965      6.912
REMARK  Name = 
REMARK  9 active torsions:
REMARK  status: ('A' for Active; 'I' for Inactive)
REMARK    1  A    between atoms: C_1  and  O_2
REMARK    2  A    between atoms: O_2  and  C_3
REMARK    3  A    between atoms: N_5  and  N_6
REMARK    4  A    between atoms: C_7  and  C_8
REMARK    5  A    between atoms: C_7  and  C_9
REMARK    6  A    between atoms: C_12  and  O_13
REMARK    7  A    between atoms: O_13  and  C_14
REMARK    8  A    between atoms: C_18  and  O_19
REMARK    9  A    between atoms: O_19  and  C_20
REMARK                            x       y       z     vdW  Elec       q    Type
REMARK                         _______ _______ _______ _____ _____    ______ ____
ROOT
ATOM      1  C   UNL     1       5.264   4.240  16.773  0.00  0.00    +0.000 A 
ATOM      2  C   UNL     1       4.893   4.363  15.421  0.00  0.00    +0.000 A 
ATOM      3  C   UNL     1       5.822   4.708  14.440  0.00  0.00    +0.000 A 
ATOM      4  C   UNL     1       7.145   4.965  14.784  0.00  0.00    +0.000 A 
ATOM      5  C   UNL     1       7.533   4.838  16.116  0.00  0.00    +0.000 A 
ATOM      6  C   UNL     1       6.610   4.473  17.122  0.00  0.00    +0.000 A 
ENDROOT
BRANCH   1   8
ATOM      7  N   UNL     1       4.373   4.187  19.009  0.00  0.00    +0.000 NA
ATOM      8  C   UNL     1       4.175   3.910  17.756  0.00  0.00    +0.000 C 
ATOM      9  C   UNL     1       2.905   3.295  17.190  0.00  0.00    +0.000 C 
BRANCH   7  12
ATOM     10  C   UNL     1       3.646   2.691  20.699  0.00  0.00    +0.000 C 
ATOM     11  O   UNL     1       4.628   1.956  20.663  0.00  0.00    +0.000 OA
ATOM     12  N   UNL     1       3.463   3.832  19.955  0.00  0.00    +0.000 N 
ATOM     13  H   UNL     1       2.550   4.260  20.012  0.00  0.00    +0.000 HD
BRANCH  10  15
ATOM     14  C   UNL     1       1.341   2.981  20.891  0.00  0.00    +0.000 C 
ATOM     15  O   UNL     1       2.544   2.464  21.462  0.00  0.00    +0.000 OA
ENDBRANCH  10  15
ENDBRANCH   7  12
ENDBRANCH   1   8
BRANCH   4  16
ATOM     16  O   UNL     1       7.954   5.306  13.740  0.00  0.00    +0.000 OA
BRANCH  16  17
ATOM     17  C   UNL     1       7.359   5.262  12.454  0.00  0.00    +0.000 C 
ATOM     18  F   UNL     1       7.966   6.178  11.660  0.00  0.00    +0.000 F 
ATOM     19  F   UNL     1       7.634   4.042  11.927  0.00  0.00    +0.000 F 
ENDBRANCH  16  17
ENDBRANCH   4  16
BRANCH   6  20
ATOM     20  O   UNL     1       7.189   4.468  18.359  0.00  0.00    +0.000 OA
BRANCH  20  21
ATOM     21  C   UNL     1       7.797   5.652  18.863  0.00  0.00    +0.000 C 
ATOM     22  F   UNL     1       7.130   6.761  18.457  0.00  0.00    +0.000 F 
ATOM     23  F   UNL     1       7.665   5.612  20.216  0.00  0.00    +0.000 F 
ENDBRANCH  20  21
ENDBRANCH   6  20
TORSDOF 7
ENDMDL
MODEL 7
REMARK VINA RESULT:      -7.1      1.231      1.563
REMARK  Name = 
REMARK  9 active torsions:
REMARK  status: ('A' for Active; 'I' for Inactive)
REMARK    1  A    between atoms: C_1  and  O_2
REMARK    2  A    between atoms: O_2  and  C_3
REMARK    3  A    between atoms: N_5  and  N_6
REMARK    4  A    between atoms: C_7  and  C_8
REMARK    5  A    between atoms: C_7  and  C_9
REMARK    6  A    between atoms: C_12  and  O_13
REMARK    7  A    between atoms: O_13  and  C_14
REMARK    8  A    between atoms: C_18  and  O_19
REMARK    9  A    between atoms: O_19  and  C_20
REMARK                            x       y       z     vdW  Elec       q    Type
REMARK                         _______ _______ _______ _____ _____    ______ ____
ROOT
ATOM      1  C   UNL     1       4.721   4.691  17.090  0.00  0.00    +0.000 A 
ATOM      2  C   UNL     1       3.585   3.869  17.192  0.00  0.00    +0.000 A 
ATOM      3  C   UNL     1       2.909   3.708  18.401  0.00  0.00    +0.000 A 
ATOM      4  C   UNL     1       3.365   4.344  19.551  0.00  0.00    +0.000 A 
ATOM      5  C   UNL     1       4.484   5.170  19.467  0.00  0.00    +0.000 A 
ATOM      6  C   UNL     1       5.171   5.359  18.247  0.00  0.00    +0.000 A 
ENDROOT
BRANCH   1   8
ATOM      7  N   UNL     1       5.847   3.654  15.230  0.00  0.00    +0.000 NA
ATOM      8  C   UNL     1       5.402   4.758  15.750  0.00  0.00    +0.000 C 
ATOM      9  C   UNL     1       5.489   6.127  15.096  0.00  0.00    +0.000 C 
BRANCH   7  12
ATOM     10  C   UNL     1       5.894   3.546  12.862  0.00  0.00    +0.000 C 
ATOM     11  O   UNL     1       4.678   3.509  12.703  0.00  0.00    +0.000 OA
ATOM     12  N   UNL     1       6.548   3.665  14.065  0.00  0.00    +0.000 N 
ATOM     13  H   UNL     1       7.552   3.559  14.039  0.00  0.00    +0.000 HD
BRANCH  10  15
ATOM     14  C   UNL     1       6.849   2.123  11.282  0.00  0.00    +0.000 C 
ATOM     15  O   UNL     1       6.805   3.428  11.860  0.00  0.00    +0.000 OA
ENDBRANCH  10  15
ENDBRANCH   7  12
ENDBRANCH   1   8
BRANCH   4  16
ATOM     16  O   UNL     1       2.630   4.099  20.673  0.00  0.00    +0.000 OA
BRANCH  16  17
ATOM     17  C   UNL     1       1.446   3.341  20.486  0.00  0.00    +0.000 C 
ATOM     18  F   UNL     1       1.246   2.563  21.579  0.00  0.00    +0.000 F 
ATOM     19  F   UNL     1       0.412   4.220  20.437  0.00  0.00    +0.000 F 
ENDBRANCH  16  17
ENDBRANCH   4  16
BRANCH   6  20
ATOM     20  O   UNL     1       6.269   6.157  18.406  0.00  0.00    +0.000 OA
BRANCH  20  21
ATOM     21  C   UNL     1       7.497   5.592  18.851  0.00  0.00    +0.000 C 
ATOM     22  F   UNL     1       7.987   4.703  17.953  0.00  0.00    +0.000 F 
ATOM     23  F   UNL     1       8.399   6.610  18.899  0.00  0.00    +0.000 F 
ENDBRANCH  20  21
ENDBRANCH   6  20
TORSDOF 7
ENDMDL
MODEL 8
REMARK VINA RESULT:      -7.1      1.441      1.523
REMARK  Name = 
REMARK  9 active torsions:
REMARK  status: ('A' for Active; 'I' for Inactive)
REMARK    1  A    between atoms: C_1  and  O_2
REMARK    2  A    between atoms: O_2  and  C_3
REMARK    3  A    between atoms: N_5  and  N_6
REMARK    4  A    between atoms: C_7  and  C_8
REMARK    5  A    between atoms: C_7  and  C_9
REMARK    6  A    between atoms: C_12  and  O_13
REMARK    7  A    between atoms: O_13  and  C_14
REMARK    8  A    between atoms: C_18  and  O_19
REMARK    9  A    between atoms: O_19  and  C_20
REMARK                            x       y       z     vdW  Elec       q    Type
REMARK                         _______ _______ _______ _____ _____    ______ ____
ROOT
ATOM      1  C   UNL     1       4.066   5.093  17.780  0.00  0.00    +0.000 A 
ATOM      2  C   UNL     1       2.662   5.153  17.819  0.00  0.00    +0.000 A 
ATOM      3  C   UNL     1       1.951   4.833  18.976  0.00  0.00    +0.000 A 
ATOM      4  C   UNL     1       2.623   4.419  20.121  0.00  0.00    +0.000 A 
ATOM      5  C   UNL     1       4.016   4.363  20.105  0.00  0.00    +0.000 A 
ATOM      6  C   UNL     1       4.753   4.700  18.947  0.00  0.00    +0.000 A 
ENDROOT
BRANCH   1   8
ATOM      7  N   UNL     1       5.041   4.430  15.681  0.00  0.00    +0.000 NA
ATOM      8  C   UNL     1       4.732   5.414  16.470  0.00  0.00    +0.000 C 
ATOM      9  C   UNL     1       4.964   6.884  16.163  0.00  0.00    +0.000 C 
BRANCH   7  12
ATOM     10  C   UNL     1       7.089   4.791  14.541  0.00  0.00    +0.000 C 
ATOM     11  O   UNL     1       7.816   4.654  15.520  0.00  0.00    +0.000 OA
ATOM     12  N   UNL     1       5.722   4.651  14.525  0.00  0.00    +0.000 N 
ATOM     13  H   UNL     1       5.257   4.913  13.667  0.00  0.00    +0.000 HD
BRANCH  10  15
ATOM     14  C   UNL     1       7.082   4.276  12.267  0.00  0.00    +0.000 C 
ATOM     15  O   UNL     1       7.523   5.153  13.305  0.00  0.00    +0.000 OA
ENDBRANCH  10  15
ENDBRANCH   7  12
ENDBRANCH   1   8
BRANCH   4  16
ATOM     16  O   UNL     1       1.820   4.121  21.183  0.00  0.00    +0.000 OA
BRANCH  16  17
ATOM     17  C   UNL     1       1.556   2.744  21.394  0.00  0.00    +0.000 C 
ATOM     18  F   UNL     1       1.513   2.117  20.193  0.00  0.00    +0.000 F 
ATOM     19  F   UNL     1       2.618   2.232  22.066  0.00  0.00    +0.000 F 
ENDBRANCH  16  17
ENDBRANCH   4  16
BRANCH   6  20
ATOM     20  O   UNL     1       6.094   4.517  19.135  0.00  0.00    +0.000 OA
BRANCH  20  21
ATOM     21  C   UNL     1       6.943   5.643  19.326  0.00  0.00    +0.000 C 
ATOM     22  F   UNL     1       7.832   5.428  20.327  0.00  0.00    +0.000 F 
ATOM     23  F   UNL     1       7.683   5.770  18.191  0.00  0.00    +0.000 F 
ENDBRANCH  20  21
ENDBRANCH   6  20
TORSDOF 7
ENDMDL
MODEL 9
REMARK VINA RESULT:      -7.0      3.225      6.795
REMARK  Name = 
REMARK  9 active torsions:
REMARK  status: ('A' for Active; 'I' for Inactive)
REMARK    1  A    between atoms: C_1  and  O_2
REMARK    2  A    between atoms: O_2  and  C_3
REMARK    3  A    between atoms: N_5  and  N_6
REMARK    4  A    between atoms: C_7  and  C_8
REMARK    5  A    between atoms: C_7  and  C_9
REMARK    6  A    between atoms: C_12  and  O_13
REMARK    7  A    between atoms: O_13  and  C_14
REMARK    8  A    between atoms: C_18  and  O_19
REMARK    9  A    between atoms: O_19  and  C_20
REMARK                            x       y       z     vdW  Elec       q    Type
REMARK                         _______ _______ _______ _____ _____    ______ ____
ROOT
ATOM      1  C   UNL     1       5.130   4.656  17.001  0.00  0.00    +0.000 A 
ATOM      2  C   UNL     1       4.745   3.780  15.969  0.00  0.00    +0.000 A 
ATOM      3  C   UNL     1       5.398   3.776  14.737  0.00  0.00    +0.000 A 
ATOM      4  C   UNL     1       6.439   4.664  14.490  0.00  0.00    +0.000 A 
ATOM      5  C   UNL     1       6.841   5.532  15.504  0.00  0.00    +0.000 A 
ATOM      6  C   UNL     1       6.202   5.539  16.764  0.00  0.00    +0.000 A 
ENDROOT
BRANCH   1   8
ATOM      7  N   UNL     1       4.268   3.489  18.923  0.00  0.00    +0.000 NA
ATOM      8  C   UNL     1       4.329   4.611  18.274  0.00  0.00    +0.000 C 
ATOM      9  C   UNL     1       3.671   5.909  18.712  0.00  0.00    +0.000 C 
BRANCH   7  12
ATOM     10  C   UNL     1       3.833   2.479  21.024  0.00  0.00    +0.000 C 
ATOM     11  O   UNL     1       4.859   1.807  21.068  0.00  0.00    +0.000 OA
ATOM     12  N   UNL     1       3.490   3.365  20.031  0.00  0.00    +0.000 N 
ATOM     13  H   UNL     1       2.557   3.751  20.080  0.00  0.00    +0.000 HD
BRANCH  10  15
ATOM     14  C   UNL     1       1.564   2.819  21.432  0.00  0.00    +0.000 C 
ATOM     15  O   UNL     1       2.836   2.420  21.945  0.00  0.00    +0.000 OA
ENDBRANCH  10  15
ENDBRANCH   7  12
ENDBRANCH   1   8
BRANCH   4  16
ATOM     16  O   UNL     1       6.989   4.574  13.246  0.00  0.00    +0.000 OA
BRANCH  16  17
ATOM     17  C   UNL     1       6.515   3.512  12.433  0.00  0.00    +0.000 C 
ATOM     18  F   UNL     1       5.434   3.943  11.737  0.00  0.00    +0.000 F 
ATOM     19  F   UNL     1       7.485   3.240  11.524  0.00  0.00    +0.000 F 
ENDBRANCH  16  17
ENDBRANCH   4  16
BRANCH   6  20
ATOM     20  O   UNL     1       6.715   6.506  17.583  0.00  0.00    +0.000 OA
BRANCH  20  21
ATOM     21  C   UNL     1       7.537   6.140  18.685  0.00  0.00    +0.000 C 
ATOM     22  F   UNL     1       8.152   4.950  18.470  0.00  0.00    +0.000 F 
ATOM     23  F   UNL     1       8.531   7.066  18.754  0.00  0.00    +0.000 F 
ENDBRANCH  20  21
ENDBRANCH   6  20
TORSDOF 7
ENDMDL
