MODEL 1
REMARK VINA RESULT:      -7.8      0.000      0.000
REMARK  Name = 
REMARK  9 active torsions:
REMARK  status: ('A' for Active; 'I' for Inactive)
REMARK    1  A    between atoms: C_1  and  O_2
REMARK    2  A    between atoms: O_2  and  C_3
REMARK    3  A    between atoms: C_8  and  C_9
REMARK    4  A    between atoms: C_12  and  N_13
REMARK    5  A    between atoms: N_13  and  C_14
REMARK    6  A    between atoms: C_17  and  C_18
REMARK    7  A    between atoms: C_18  and  C_19
REMARK    8  A    between atoms: C_24  and  C_25
REMARK    9  A    between atoms: C_26  and  C_27
REMARK                            x       y       z     vdW  Elec       q    Type
REMARK                         _______ _______ _______ _____ _____    ______ ____
ROOT
ATOM      1  C   UNL     1       2.596   7.261  18.317  0.00  0.00    +0.000 A 
ATOM      2  N   UNL     1       2.580   8.152  17.301  0.00  0.00    +0.000 NA
ATOM      3  N   UNL     1       1.895   9.345  17.403  0.00  0.00    +0.000 NA
ATOM      4  C   UNL     1       1.178   9.644  18.503  0.00  0.00    +0.000 A 
ATOM      5  C   UNL     1       1.201   8.786  19.611  0.00  0.00    +0.000 A 
ATOM      6  C   UNL     1       0.451   9.141  20.873  0.00  0.00    +0.000 C 
ATOM      7  C   UNL     1       1.984   7.599  19.545  0.00  0.00    +0.000 A 
ATOM      8  C   UNL     1       2.118   6.725  20.770  0.00  0.00    +0.000 C 
ENDROOT
BRANCH   1  14
ATOM      9  C   UNL     1       4.602   5.774  17.767  0.00  0.00    +0.000 A 
ATOM     10  C   UNL     1       5.104   4.550  17.290  0.00  0.00    +0.000 A 
ATOM     11  C   UNL     1       4.255   3.477  17.039  0.00  0.00    +0.000 A 
ATOM     12  C   UNL     1       2.907   3.590  17.332  0.00  0.00    +0.000 A 
ATOM     13  C   UNL     1       2.405   4.791  17.839  0.00  0.00    +0.000 A 
ATOM     14  C   UNL     1       3.207   5.941  17.987  0.00  0.00    +0.000 A 
BRANCH   9  16
ATOM     15  C   UNL     1       6.648   6.843  17.204  0.00  0.00    +0.000 C 
ATOM     16  O   UNL     1       5.432   6.854  17.952  0.00  0.00    +0.000 OA
ENDBRANCH   9  16
ENDBRANCH   1  14
BRANCH   4  17
ATOM     17  N   UNL     1       0.349  10.788  18.519  0.00  0.00    +0.000 N 
ATOM     18  H   UNL     1       0.668  11.412  19.254  0.00  0.00    +0.000 HD
BRANCH  17  19
ATOM     19  C   UNL     1      -1.049  10.836  18.333  0.00  0.00    +0.000 A 
ATOM     20  C   UNL     1      -1.807  11.793  19.024  0.00  0.00    +0.000 A 
ATOM     21  C   UNL     1      -3.156  11.997  18.720  0.00  0.00    +0.000 A 
ATOM     22  C   UNL     1      -3.769  11.266  17.699  0.00  0.00    +0.000 A 
ATOM     23  C   UNL     1      -3.030  10.277  17.036  0.00  0.00    +0.000 A 
ATOM     24  C   UNL     1      -1.685  10.069  17.353  0.00  0.00    +0.000 A 
BRANCH  22  25
ATOM     25  C   UNL     1      -5.173  11.600  17.248  0.00  0.00    +0.000 C 
BRANCH  25  26
ATOM     26  C   UNL     1      -6.291  11.212  18.208  0.00  0.00    +0.000 C 
ATOM     27  N   UNL     1      -7.318  12.087  18.405  0.00  0.00    +0.000 N 
ATOM     28  O   UNL     1      -6.293  10.137  18.797  0.00  0.00    +0.000 OA
ATOM     29  H   UNL     1      -7.380  12.984  17.947  0.00  0.00    +0.000 HD
ATOM     30  H   UNL     1      -8.057  11.811  19.036  0.00  0.00    +0.000 HD
ENDBRANCH  25  26
ENDBRANCH  22  25
ENDBRANCH  17  19
ENDBRANCH   4  17
TORSDOF 6
ENDMDL
MODEL 2
REMARK VINA RESULT:      -7.7      0.912      1.299
REMARK  Name = 
REMARK  9 active torsions:
REMARK  status: ('A' for Active; 'I' for Inactive)
REMARK    1  A    between atoms: C_1  and  O_2
REMARK    2  A    between atoms: O_2  and  C_3
REMARK    3  A    between atoms: C_8  and  C_9
REMARK    4  A    between atoms: C_12  and  N_13
REMARK    5  A    between atoms: N_13  and  C_14
REMARK    6  A    between atoms: C_17  and  C_18
REMARK    7  A    between atoms: C_18  and  C_19
REMARK    8  A    between atoms: C_24  and  C_25
REMARK    9  A    between atoms: C_26  and  C_27
REMARK                            x       y       z     vdW  Elec       q    Type
REMARK                         _______ _______ _______ _____ _____    ______ ____
ROOT
ATOM      1  C   UNL     1       2.542   6.850  18.476  0.00  0.00    +0.000 A 
ATOM      2  N   UNL     1       2.669   7.709  17.441  0.00  0.00    +0.000 NA
ATOM      3  N   UNL     1       2.137   8.981  17.495  0.00  0.00    +0.000 NA
ATOM      4  C   UNL     1       1.430   9.396  18.564  0.00  0.00    +0.000 A 
ATOM      5  C   UNL     1       1.312   8.570  19.690  0.00  0.00    +0.000 A 
ATOM      6  C   UNL     1       0.575   9.048  20.919  0.00  0.00    +0.000 C 
ATOM      7  C   UNL     1       1.941   7.293  19.676  0.00  0.00    +0.000 A 
ATOM      8  C   UNL     1       1.928   6.441  20.924  0.00  0.00    +0.000 C 
ENDROOT
BRANCH   1  14
ATOM      9  C   UNL     1       4.356   5.060  18.267  0.00  0.00    +0.000 A 
ATOM     10  C   UNL     1       4.749   3.784  17.826  0.00  0.00    +0.000 A 
ATOM     11  C   UNL     1       3.817   2.880  17.329  0.00  0.00    +0.000 A 
ATOM     12  C   UNL     1       2.473   3.212  17.336  0.00  0.00    +0.000 A 
ATOM     13  C   UNL     1       2.069   4.464  17.804  0.00  0.00    +0.000 A 
ATOM     14  C   UNL     1       2.992   5.456  18.196  0.00  0.00    +0.000 A 
BRANCH   9  16
ATOM     15  C   UNL     1       6.287   6.344  17.746  0.00  0.00    +0.000 C 
ATOM     16  O   UNL     1       5.286   5.977  18.697  0.00  0.00    +0.000 OA
ENDBRANCH   9  16
ENDBRANCH   1  14
BRANCH   4  17
ATOM     17  N   UNL     1       0.751  10.634  18.528  0.00  0.00    +0.000 N 
ATOM     18  H   UNL     1       1.120  11.230  19.262  0.00  0.00    +0.000 HD
BRANCH  17  19
ATOM     19  C   UNL     1      -0.622  10.853  18.287  0.00  0.00    +0.000 A 
ATOM     20  C   UNL     1      -1.318   9.996  17.423  0.00  0.00    +0.000 A 
ATOM     21  C   UNL     1      -2.710  10.062  17.313  0.00  0.00    +0.000 A 
ATOM     22  C   UNL     1      -3.438  10.971  18.086  0.00  0.00    +0.000 A 
ATOM     23  C   UNL     1      -2.745  11.861  18.917  0.00  0.00    +0.000 A 
ATOM     24  C   UNL     1      -1.352  11.799  19.013  0.00  0.00    +0.000 A 
BRANCH  22  25
ATOM     25  C   UNL     1      -4.949  10.931  18.103  0.00  0.00    +0.000 C 
BRANCH  25  26
ATOM     26  C   UNL     1      -5.650  12.279  18.222  0.00  0.00    +0.000 C 
ATOM     27  N   UNL     1      -5.813  13.034  17.099  0.00  0.00    +0.000 N 
ATOM     28  O   UNL     1      -6.075  12.694  19.294  0.00  0.00    +0.000 OA
ATOM     29  H   UNL     1      -5.494  12.748  16.185  0.00  0.00    +0.000 HD
ATOM     30  H   UNL     1      -6.289  13.920  17.192  0.00  0.00    +0.000 HD
ENDBRANCH  25  26
ENDBRANCH  22  25
ENDBRANCH  17  19
ENDBRANCH   4  17
TORSDOF 6
ENDMDL
MODEL 3
REMARK VINA RESULT:      -7.6      2.815      9.142
REMARK  Name = 
REMARK  9 active torsions:
REMARK  status: ('A' for Active; 'I' for Inactive)
REMARK    1  A    between atoms: C_1  and  O_2
REMARK    2  A    between atoms: O_2  and  C_3
REMARK    3  A    between atoms: C_8  and  C_9
REMARK    4  A    between atoms: C_12  and  N_13
REMARK    5  A    between atoms: N_13  and  C_14
REMARK    6  A    between atoms: C_17  and  C_18
REMARK    7  A    between atoms: C_18  and  C_19
REMARK    8  A    between atoms: C_24  and  C_25
REMARK    9  A    between atoms: C_26  and  C_27
REMARK                            x       y       z     vdW  Elec       q    Type
REMARK                         _______ _______ _______ _____ _____    ______ ____
ROOT
ATOM      1  C   UNL     1       1.079  11.037  19.325  0.00  0.00    +0.000 A 
ATOM      2  N   UNL     1       1.654  10.477  18.238  0.00  0.00    +0.000 NA
ATOM      3  N   UNL     1       1.998   9.142  18.217  0.00  0.00    +0.000 NA
ATOM      4  C   UNL     1       1.816   8.357  19.297  0.00  0.00    +0.000 A 
ATOM      5  C   UNL     1       1.173   8.867  20.433  0.00  0.00    +0.000 A 
ATOM      6  C   UNL     1       0.907   7.980  21.627  0.00  0.00    +0.000 C 
ATOM      7  C   UNL     1       0.730  10.219  20.424  0.00  0.00    +0.000 A 
ATOM      8  C   UNL     1      -0.071  10.749  21.590  0.00  0.00    +0.000 C 
ENDROOT
BRANCH   1  14
ATOM      9  C   UNL     1      -0.183  13.174  18.711  0.00  0.00    +0.000 A 
ATOM     10  C   UNL     1      -0.181  14.568  18.529  0.00  0.00    +0.000 A 
ATOM     11  C   UNL     1       0.913  15.338  18.908  0.00  0.00    +0.000 A 
ATOM     12  C   UNL     1       1.986  14.734  19.540  0.00  0.00    +0.000 A 
ATOM     13  C   UNL     1       1.978  13.355  19.756  0.00  0.00    +0.000 A 
ATOM     14  C   UNL     1       0.948  12.521  19.274  0.00  0.00    +0.000 A 
BRANCH   9  16
ATOM     15  C   UNL     1      -2.334  12.277  19.182  0.00  0.00    +0.000 C 
ATOM     16  O   UNL     1      -1.238  12.406  18.276  0.00  0.00    +0.000 OA
ENDBRANCH   9  16
ENDBRANCH   1  14
BRANCH   4  17
ATOM     17  N   UNL     1       2.330   7.041  19.312  0.00  0.00    +0.000 N 
ATOM     18  H   UNL     1       2.737   6.860  20.224  0.00  0.00    +0.000 HD
BRANCH  17  19
ATOM     19  C   UNL     1       3.011   6.375  18.271  0.00  0.00    +0.000 A 
ATOM     20  C   UNL     1       3.997   7.055  17.542  0.00  0.00    +0.000 A 
ATOM     21  C   UNL     1       4.822   6.375  16.641  0.00  0.00    +0.000 A 
ATOM     22  C   UNL     1       4.694   4.993  16.470  0.00  0.00    +0.000 A 
ATOM     23  C   UNL     1       3.681   4.316  17.161  0.00  0.00    +0.000 A 
ATOM     24  C   UNL     1       2.851   5.003  18.051  0.00  0.00    +0.000 A 
BRANCH  22  25
ATOM     25  C   UNL     1       5.691   4.226  15.632  0.00  0.00    +0.000 C 
BRANCH  25  26
ATOM     26  C   UNL     1       7.146   4.657  15.767  0.00  0.00    +0.000 C 
ATOM     27  N   UNL     1       7.819   4.342  16.911  0.00  0.00    +0.000 N 
ATOM     28  O   UNL     1       7.725   5.268  14.876  0.00  0.00    +0.000 OA
ATOM     29  H   UNL     1       7.405   3.836  17.679  0.00  0.00    +0.000 HD
ATOM     30  H   UNL     1       8.786   4.626  16.981  0.00  0.00    +0.000 HD
ENDBRANCH  25  26
ENDBRANCH  22  25
ENDBRANCH  17  19
ENDBRANCH   4  17
TORSDOF 6
ENDMDL
MODEL 4
REMARK VINA RESULT:      -7.6      1.156      1.906
REMARK  Name = 
REMARK  9 active torsions:
REMARK  status: ('A' for Active; 'I' for Inactive)
REMARK    1  A    between atoms: C_1  and  O_2
REMARK    2  A    between atoms: O_2  and  C_3
REMARK    3  A    between atoms: C_8  and  C_9
REMARK    4  A    between atoms: C_12  and  N_13
REMARK    5  A    between atoms: N_13  and  C_14
REMARK    6  A    between atoms: C_17  and  C_18
REMARK    7  A    between atoms: C_18  and  C_19
REMARK    8  A    between atoms: C_24  and  C_25
REMARK    9  A    between atoms: C_26  and  C_27
REMARK                            x       y       z     vdW  Elec       q    Type
REMARK                         _______ _______ _______ _____ _____    ______ ____
ROOT
ATOM      1  C   UNL     1       2.813   7.493  18.242  0.00  0.00    +0.000 A 
ATOM      2  N   UNL     1       2.712   8.523  17.372  0.00  0.00    +0.000 NA
ATOM      3  N   UNL     1       1.918   9.617  17.645  0.00  0.00    +0.000 NA
ATOM      4  C   UNL     1       1.175   9.677  18.767  0.00  0.00    +0.000 A 
ATOM      5  C   UNL     1       1.281   8.666  19.732  0.00  0.00    +0.000 A 
ATOM      6  C   UNL     1       0.500   8.754  21.023  0.00  0.00    +0.000 C 
ATOM      7  C   UNL     1       2.172   7.582  19.499  0.00  0.00    +0.000 A 
ATOM      8  C   UNL     1       2.389   6.548  20.579  0.00  0.00    +0.000 C 
ENDROOT
BRANCH   1  14
ATOM      9  C   UNL     1       2.933   5.026  17.584  0.00  0.00    +0.000 A 
ATOM     10  C   UNL     1       3.708   3.898  17.260  0.00  0.00    +0.000 A 
ATOM     11  C   UNL     1       5.079   4.006  17.055  0.00  0.00    +0.000 A 
ATOM     12  C   UNL     1       5.679   5.253  17.099  0.00  0.00    +0.000 A 
ATOM     13  C   UNL     1       4.911   6.384  17.386  0.00  0.00    +0.000 A 
ATOM     14  C   UNL     1       3.545   6.302  17.725  0.00  0.00    +0.000 A 
BRANCH   9  16
ATOM     15  C   UNL     1       1.163   3.644  18.365  0.00  0.00    +0.000 C 
ATOM     16  O   UNL     1       1.589   4.907  17.851  0.00  0.00    +0.000 OA
ENDBRANCH   9  16
ENDBRANCH   1  14
BRANCH   4  17
ATOM     17  N   UNL     1       0.242  10.723  18.945  0.00  0.00    +0.000 N 
ATOM     18  H   UNL     1       0.414  11.165  19.842  0.00  0.00    +0.000 HD
BRANCH  17  19
ATOM     19  C   UNL     1      -1.124  10.722  18.591  0.00  0.00    +0.000 A 
ATOM     20  C   UNL     1      -2.003  11.613  19.222  0.00  0.00    +0.000 A 
ATOM     21  C   UNL     1      -3.314  11.775  18.764  0.00  0.00    +0.000 A 
ATOM     22  C   UNL     1      -3.764  11.067  17.646  0.00  0.00    +0.000 A 
ATOM     23  C   UNL     1      -2.906  10.142  17.039  0.00  0.00    +0.000 A 
ATOM     24  C   UNL     1      -1.601   9.974  17.509  0.00  0.00    +0.000 A 
BRANCH  22  25
ATOM     25  C   UNL     1      -5.118  11.364  17.041  0.00  0.00    +0.000 C 
BRANCH  25  26
ATOM     26  C   UNL     1      -6.251  11.605  18.029  0.00  0.00    +0.000 C 
ATOM     27  N   UNL     1      -6.918  10.529  18.537  0.00  0.00    +0.000 N 
ATOM     28  O   UNL     1      -6.571  12.734  18.384  0.00  0.00    +0.000 OA
ATOM     29  H   UNL     1      -6.701   9.574  18.292  0.00  0.00    +0.000 HD
ATOM     30  H   UNL     1      -7.660  10.704  19.199  0.00  0.00    +0.000 HD
ENDBRANCH  25  26
ENDBRANCH  22  25
ENDBRANCH  17  19
ENDBRANCH   4  17
TORSDOF 6
ENDMDL
MODEL 5
REMARK VINA RESULT:      -7.5      0.861      1.270
REMARK  Name = 
REMARK  9 active torsions:
REMARK  status: ('A' for Active; 'I' for Inactive)
REMARK    1  A    between atoms: C_1  and  O_2
REMARK    2  A    between atoms: O_2  and  C_3
REMARK    3  A    between atoms: C_8  and  C_9
REMARK    4  A    between atoms: C_12  and  N_13
REMARK    5  A    between atoms: N_13  and  C_14
REMARK    6  A    between atoms: C_17  and  C_18
REMARK    7  A    between atoms: C_18  and  C_19
REMARK    8  A    between atoms: C_24  and  C_25
REMARK    9  A    between atoms: C_26  and  C_27
REMARK                            x       y       z     vdW  Elec       q    Type
REMARK                         _______ _______ _______ _____ _____    ______ ____
ROOT
ATOM      1  C   UNL     1       2.488   7.416  18.314  0.00  0.00    +0.000 A 
ATOM      2  N   UNL     1       2.527   8.340  17.330  0.00  0.00    +0.000 NA
ATOM      3  N   UNL     1       1.906   9.564  17.469  0.00  0.00    +0.000 NA
ATOM      4  C   UNL     1       1.195   9.863  18.574  0.00  0.00    +0.000 A 
ATOM      5  C   UNL     1       1.165   8.967  19.651  0.00  0.00    +0.000 A 
ATOM      6  C   UNL     1       0.423   9.318  20.920  0.00  0.00    +0.000 C 
ATOM      7  C   UNL     1       1.885   7.744  19.550  0.00  0.00    +0.000 A 
ATOM      8  C   UNL     1       1.962   6.822  20.744  0.00  0.00    +0.000 C 
ENDROOT
BRANCH   1  14
ATOM      9  C   UNL     1       4.361   5.891  17.477  0.00  0.00    +0.000 A 
ATOM     10  C   UNL     1       4.770   4.642  16.976  0.00  0.00    +0.000 A 
ATOM     11  C   UNL     1       3.893   3.563  16.941  0.00  0.00    +0.000 A 
ATOM     12  C   UNL     1       2.622   3.699  17.473  0.00  0.00    +0.000 A 
ATOM     13  C   UNL     1       2.219   4.926  18.004  0.00  0.00    +0.000 A 
ATOM     14  C   UNL     1       3.031   6.078  17.944  0.00  0.00    +0.000 A 
BRANCH   9  16
ATOM     15  C   UNL     1       6.602   6.680  17.539  0.00  0.00    +0.000 C 
ATOM     16  O   UNL     1       5.208   6.974  17.451  0.00  0.00    +0.000 OA
ENDBRANCH   9  16
ENDBRANCH   1  14
BRANCH   4  17
ATOM     17  N   UNL     1       0.428  11.048  18.624  0.00  0.00    +0.000 N 
ATOM     18  H   UNL     1       0.756  11.618  19.398  0.00  0.00    +0.000 HD
BRANCH  17  19
ATOM     19  C   UNL     1      -0.959  11.181  18.401  0.00  0.00    +0.000 A 
ATOM     20  C   UNL     1      -1.618  10.262  17.573  0.00  0.00    +0.000 A 
ATOM     21  C   UNL     1      -3.013  10.245  17.485  0.00  0.00    +0.000 A 
ATOM     22  C   UNL     1      -3.780  11.133  18.246  0.00  0.00    +0.000 A 
ATOM     23  C   UNL     1      -3.127  12.084  19.039  0.00  0.00    +0.000 A 
ATOM     24  C   UNL     1      -1.731  12.104  19.114  0.00  0.00    +0.000 A 
BRANCH  22  25
ATOM     25  C   UNL     1      -5.286  11.008  18.289  0.00  0.00    +0.000 C 
BRANCH  25  26
ATOM     26  C   UNL     1      -6.000  11.899  19.296  0.00  0.00    +0.000 C 
ATOM     27  N   UNL     1      -6.288  11.394  20.530  0.00  0.00    +0.000 N 
ATOM     28  O   UNL     1      -6.313  13.054  19.030  0.00  0.00    +0.000 OA
ATOM     29  H   UNL     1      -6.052  10.455  20.816  0.00  0.00    +0.000 HD
ATOM     30  H   UNL     1      -6.753  12.001  21.190  0.00  0.00    +0.000 HD
ENDBRANCH  25  26
ENDBRANCH  22  25
ENDBRANCH  17  19
ENDBRANCH   4  17
TORSDOF 6
ENDMDL
MODEL 6
REMARK VINA RESULT:      -7.4      1.213      2.162
REMARK  Name = 
REMARK  9 active torsions:
REMARK  status: ('A' for Active; 'I' for Inactive)
REMARK    1  A    between atoms: C_1  and  O_2
REMARK    2  A    between atoms: O_2  and  C_3
REMARK    3  A    between atoms: C_8  and  C_9
REMARK    4  A    between atoms: C_12  and  N_13
REMARK    5  A    between atoms: N_13  and  C_14
REMARK    6  A    between atoms: C_17  and  C_18
REMARK    7  A    between atoms: C_18  and  C_19
REMARK    8  A    between atoms: C_24  and  C_25
REMARK    9  A    between atoms: C_26  and  C_27
REMARK                            x       y       z     vdW  Elec       q    Type
REMARK                         _______ _______ _______ _____ _____    ______ ____
ROOT
ATOM      1  C   UNL     1       2.891   7.046  18.425  0.00  0.00    +0.000 A 
ATOM      2  N   UNL     1       2.772   8.134  17.633  0.00  0.00    +0.000 NA
ATOM      3  N   UNL     1       2.002   9.215  18.010  0.00  0.00    +0.000 NA
ATOM      4  C   UNL     1       1.302   9.205  19.161  0.00  0.00    +0.000 A 
ATOM      5  C   UNL     1       1.430   8.128  20.049  0.00  0.00    +0.000 A 
ATOM      6  C   UNL     1       0.698   8.133  21.371  0.00  0.00    +0.000 C 
ATOM      7  C   UNL     1       2.298   7.053  19.708  0.00  0.00    +0.000 A 
ATOM      8  C   UNL     1       2.540   5.945  20.705  0.00  0.00    +0.000 C 
ENDROOT
BRANCH   1  14
ATOM      9  C   UNL     1       2.926   4.664  17.497  0.00  0.00    +0.000 A 
ATOM     10  C   UNL     1       3.663   3.543  17.072  0.00  0.00    +0.000 A 
ATOM     11  C   UNL     1       5.043   3.608  16.924  0.00  0.00    +0.000 A 
ATOM     12  C   UNL     1       5.696   4.812  17.127  0.00  0.00    +0.000 A 
ATOM     13  C   UNL     1       4.968   5.939  17.516  0.00  0.00    +0.000 A 
ATOM     14  C   UNL     1       3.589   5.885  17.800  0.00  0.00    +0.000 A 
BRANCH   9  16
ATOM     15  C   UNL     1       1.123   3.459  18.471  0.00  0.00    +0.000 C 
ATOM     16  O   UNL     1       1.570   4.580  17.707  0.00  0.00    +0.000 OA
ENDBRANCH   9  16
ENDBRANCH   1  14
BRANCH   4  17
ATOM     17  N   UNL     1       0.390  10.245  19.445  0.00  0.00    +0.000 N 
ATOM     18  H   UNL     1       0.198  10.248  20.442  0.00  0.00    +0.000 HD
BRANCH  17  19
ATOM     19  C   UNL     1      -0.724  10.641  18.675  0.00  0.00    +0.000 A 
ATOM     20  C   UNL     1      -1.107   9.875  17.565  0.00  0.00    +0.000 A 
ATOM     21  C   UNL     1      -2.311  10.125  16.900  0.00  0.00    +0.000 A 
ATOM     22  C   UNL     1      -3.171  11.131  17.349  0.00  0.00    +0.000 A 
ATOM     23  C   UNL     1      -2.774  11.930  18.428  0.00  0.00    +0.000 A 
ATOM     24  C   UNL     1      -1.563  11.684  19.082  0.00  0.00    +0.000 A 
BRANCH  22  25
ATOM     25  C   UNL     1      -4.548  11.293  16.746  0.00  0.00    +0.000 C 
BRANCH  25  26
ATOM     26  C   UNL     1      -5.626  11.829  17.679  0.00  0.00    +0.000 C 
ATOM     27  N   UNL     1      -5.996  13.137  17.571  0.00  0.00    +0.000 N 
ATOM     28  O   UNL     1      -6.170  11.116  18.515  0.00  0.00    +0.000 OA
ATOM     29  H   UNL     1      -5.593  13.775  16.901  0.00  0.00    +0.000 HD
ATOM     30  H   UNL     1      -6.719  13.474  18.190  0.00  0.00    +0.000 HD
ENDBRANCH  25  26
ENDBRANCH  22  25
ENDBRANCH  17  19
ENDBRANCH   4  17
TORSDOF 6
ENDMDL
MODEL 7
REMARK VINA RESULT:      -7.4      3.810      4.769
REMARK  Name = 
REMARK  9 active torsions:
REMARK  status: ('A' for Active; 'I' for Inactive)
REMARK    1  A    between atoms: C_1  and  O_2
REMARK    2  A    between atoms: O_2  and  C_3
REMARK    3  A    between atoms: C_8  and  C_9
REMARK    4  A    between atoms: C_12  and  N_13
REMARK    5  A    between atoms: N_13  and  C_14
REMARK    6  A    between atoms: C_17  and  C_18
REMARK    7  A    between atoms: C_18  and  C_19
REMARK    8  A    between atoms: C_24  and  C_25
REMARK    9  A    between atoms: C_26  and  C_27
REMARK                            x       y       z     vdW  Elec       q    Type
REMARK                         _______ _______ _______ _____ _____    ______ ____
ROOT
ATOM      1  C   UNL     1       2.499   7.231  18.360  0.00  0.00    +0.000 A 
ATOM      2  N   UNL     1       2.636   8.081  17.318  0.00  0.00    +0.000 NA
ATOM      3  N   UNL     1       2.116   9.358  17.361  0.00  0.00    +0.000 NA
ATOM      4  C   UNL     1       1.411   9.789  18.426  0.00  0.00    +0.000 A 
ATOM      5  C   UNL     1       1.284   8.972  19.558  0.00  0.00    +0.000 A 
ATOM      6  C   UNL     1       0.549   9.467  20.782  0.00  0.00    +0.000 C 
ATOM      7  C   UNL     1       1.900   7.690  19.555  0.00  0.00    +0.000 A 
ATOM      8  C   UNL     1       1.876   6.847  20.809  0.00  0.00    +0.000 C 
ENDROOT
BRANCH   1  14
ATOM      9  C   UNL     1       4.304   5.463  17.970  0.00  0.00    +0.000 A 
ATOM     10  C   UNL     1       4.656   4.170  17.545  0.00  0.00    +0.000 A 
ATOM     11  C   UNL     1       3.682   3.222  17.251  0.00  0.00    +0.000 A 
ATOM     12  C   UNL     1       2.347   3.532  17.448  0.00  0.00    +0.000 A 
ATOM     13  C   UNL     1       1.989   4.803  17.903  0.00  0.00    +0.000 A 
ATOM     14  C   UNL     1       2.935   5.831  18.091  0.00  0.00    +0.000 A 
BRANCH   9  16
ATOM     15  C   UNL     1       6.043   6.805  17.063  0.00  0.00    +0.000 C 
ATOM     16  O   UNL     1       5.266   6.419  18.197  0.00  0.00    +0.000 OA
ENDBRANCH   9  16
ENDBRANCH   1  14
BRANCH   4  17
ATOM     17  N   UNL     1       0.745  11.033  18.379  0.00  0.00    +0.000 N 
ATOM     18  H   UNL     1       0.162  11.060  17.548  0.00  0.00    +0.000 HD
BRANCH  17  19
ATOM     19  C   UNL     1       1.268  12.299  18.718  0.00  0.00    +0.000 A 
ATOM     20  C   UNL     1       2.462  12.735  18.126  0.00  0.00    +0.000 A 
ATOM     21  C   UNL     1       2.905  14.051  18.288  0.00  0.00    +0.000 A 
ATOM     22  C   UNL     1       2.147  14.967  19.024  0.00  0.00    +0.000 A 
ATOM     23  C   UNL     1       0.977  14.526  19.655  0.00  0.00    +0.000 A 
ATOM     24  C   UNL     1       0.546  13.205  19.501  0.00  0.00    +0.000 A 
BRANCH  22  25
ATOM     25  C   UNL     1       2.528  16.430  19.058  0.00  0.00    +0.000 C 
BRANCH  25  26
ATOM     26  C   UNL     1       2.064  17.267  17.874  0.00  0.00    +0.000 C 
ATOM     27  N   UNL     1       0.782  17.732  17.862  0.00  0.00    +0.000 N 
ATOM     28  O   UNL     1       2.812  17.539  16.941  0.00  0.00    +0.000 OA
ATOM     29  H   UNL     1       0.118  17.550  18.599  0.00  0.00    +0.000 HD
ATOM     30  H   UNL     1       0.493  18.294  17.074  0.00  0.00    +0.000 HD
ENDBRANCH  25  26
ENDBRANCH  22  25
ENDBRANCH  17  19
ENDBRANCH   4  17
TORSDOF 6
ENDMDL
MODEL 8
REMARK VINA RESULT:      -7.4      3.708      9.169
REMARK  Name = 
REMARK  9 active torsions:
REMARK  status: ('A' for Active; 'I' for Inactive)
REMARK    1  A    between atoms: C_1  and  O_2
REMARK    2  A    between atoms: O_2  and  C_3
REMARK    3  A    between atoms: C_8  and  C_9
REMARK    4  A    between atoms: C_12  and  N_13
REMARK    5  A    between atoms: N_13  and  C_14
REMARK    6  A    between atoms: C_17  and  C_18
REMARK    7  A    between atoms: C_18  and  C_19
REMARK    8  A    between atoms: C_24  and  C_25
REMARK    9  A    between atoms: C_26  and  C_27
REMARK                            x       y       z     vdW  Elec       q    Type
REMARK                         _______ _______ _______ _____ _____    ______ ____
ROOT
ATOM      1  C   UNL     1      -1.099  12.265  21.404  0.00  0.00    +0.000 A 
ATOM      2  N   UNL     1       0.168  12.075  21.833  0.00  0.00    +0.000 NA
ATOM      3  N   UNL     1       1.075  11.347  21.092  0.00  0.00    +0.000 NA
ATOM      4  C   UNL     1       0.716  10.757  19.935  0.00  0.00    +0.000 A 
ATOM      5  C   UNL     1      -0.568  10.964  19.412  0.00  0.00    +0.000 A 
ATOM      6  C   UNL     1      -0.962  10.359  18.085  0.00  0.00    +0.000 C 
ATOM      7  C   UNL     1      -1.477  11.794  20.126  0.00  0.00    +0.000 A 
ATOM      8  C   UNL     1      -2.820  12.125  19.519  0.00  0.00    +0.000 C 
ENDROOT
BRANCH   1  14
ATOM      9  C   UNL     1      -2.039  14.300  22.632  0.00  0.00    +0.000 A 
ATOM     10  C   UNL     1      -2.789  14.829  23.698  0.00  0.00    +0.000 A 
ATOM     11  C   UNL     1      -3.530  13.999  24.533  0.00  0.00    +0.000 A 
ATOM     12  C   UNL     1      -3.589  12.642  24.268  0.00  0.00    +0.000 A 
ATOM     13  C   UNL     1      -2.875  12.112  23.190  0.00  0.00    +0.000 A 
ATOM     14  C   UNL     1      -2.013  12.898  22.398  0.00  0.00    +0.000 A 
BRANCH   9  16
ATOM     15  C   UNL     1      -1.938  15.849  20.832  0.00  0.00    +0.000 C 
ATOM     16  O   UNL     1      -1.255  15.114  21.848  0.00  0.00    +0.000 OA
ENDBRANCH   9  16
ENDBRANCH   1  14
BRANCH   4  17
ATOM     17  N   UNL     1       1.607   9.877  19.281  0.00  0.00    +0.000 N 
ATOM     18  H   UNL     1       1.699  10.166  18.312  0.00  0.00    +0.000 HD
BRANCH  17  19
ATOM     19  C   UNL     1       1.706   8.480  19.444  0.00  0.00    +0.000 A 
ATOM     20  C   UNL     1       2.302   7.706  18.438  0.00  0.00    +0.000 A 
ATOM     21  C   UNL     1       2.591   6.354  18.647  0.00  0.00    +0.000 A 
ATOM     22  C   UNL     1       2.313   5.754  19.878  0.00  0.00    +0.000 A 
ATOM     23  C   UNL     1       1.675   6.509  20.871  0.00  0.00    +0.000 A 
ATOM     24  C   UNL     1       1.377   7.857  20.652  0.00  0.00    +0.000 A 
BRANCH  22  25
ATOM     25  C   UNL     1       2.778   4.346  20.171  0.00  0.00    +0.000 C 
BRANCH  25  26
ATOM     26  C   UNL     1       1.864   3.514  21.062  0.00  0.00    +0.000 C 
ATOM     27  N   UNL     1       0.663   3.102  20.565  0.00  0.00    +0.000 N 
ATOM     28  O   UNL     1       2.183   3.201  22.203  0.00  0.00    +0.000 OA
ATOM     29  H   UNL     1       0.342   3.319  19.633  0.00  0.00    +0.000 HD
ATOM     30  H   UNL     1       0.073   2.543  21.164  0.00  0.00    +0.000 HD
ENDBRANCH  25  26
ENDBRANCH  22  25
ENDBRANCH  17  19
ENDBRANCH   4  17
TORSDOF 6
ENDMDL
MODEL 9
REMARK VINA RESULT:      -7.4      2.373      3.867
REMARK  Name = 
REMARK  9 active torsions:
REMARK  status: ('A' for Active; 'I' for Inactive)
REMARK    1  A    between atoms: C_1  and  O_2
REMARK    2  A    between atoms: O_2  and  C_3
REMARK    3  A    between atoms: C_8  and  C_9
REMARK    4  A    between atoms: C_12  and  N_13
REMARK    5  A    between atoms: N_13  and  C_14
REMARK    6  A    between atoms: C_17  and  C_18
REMARK    7  A    between atoms: C_18  and  C_19
REMARK    8  A    between atoms: C_24  and  C_25
REMARK    9  A    between atoms: C_26  and  C_27
REMARK                            x       y       z     vdW  Elec       q    Type
REMARK                         _______ _______ _______ _____ _____    ______ ____
ROOT
ATOM      1  C   UNL     1       4.468   5.434  18.030  0.00  0.00    +0.000 A 
ATOM      2  N   UNL     1       4.104   6.733  17.962  0.00  0.00    +0.000 NA
ATOM      3  N   UNL     1       3.212   7.275  18.864  0.00  0.00    +0.000 NA
ATOM      4  C   UNL     1       2.635   6.517  19.816  0.00  0.00    +0.000 A 
ATOM      5  C   UNL     1       3.015   5.177  19.971  0.00  0.00    +0.000 A 
ATOM      6  C   UNL     1       2.421   4.333  21.074  0.00  0.00    +0.000 C 
ATOM      7  C   UNL     1       4.006   4.638  19.103  0.00  0.00    +0.000 A 
ATOM      8  C   UNL     1       4.515   3.235  19.333  0.00  0.00    +0.000 C 
ENDROOT
BRANCH   1  14
ATOM      9  C   UNL     1       6.689   5.111  16.806  0.00  0.00    +0.000 A 
ATOM     10  C   UNL     1       7.383   4.792  15.624  0.00  0.00    +0.000 A 
ATOM     11  C   UNL     1       6.712   4.296  14.512  0.00  0.00    +0.000 A 
ATOM     12  C   UNL     1       5.353   4.044  14.591  0.00  0.00    +0.000 A 
ATOM     13  C   UNL     1       4.662   4.325  15.772  0.00  0.00    +0.000 A 
ATOM     14  C   UNL     1       5.278   4.946  16.877  0.00  0.00    +0.000 A 
BRANCH   9  16
ATOM     15  C   UNL     1       7.669   7.049  17.772  0.00  0.00    +0.000 C 
ATOM     16  O   UNL     1       7.343   5.663  17.882  0.00  0.00    +0.000 OA
ENDBRANCH   9  16
ENDBRANCH   1  14
BRANCH   4  17
ATOM     17  N   UNL     1       1.600   7.050  20.617  0.00  0.00    +0.000 N 
ATOM     18  H   UNL     1       0.882   6.342  20.736  0.00  0.00    +0.000 HD
BRANCH  17  19
ATOM     19  C   UNL     1       1.073   8.358  20.577  0.00  0.00    +0.000 A 
ATOM     20  C   UNL     1       1.250   9.141  19.428  0.00  0.00    +0.000 A 
ATOM     21  C   UNL     1       0.581  10.360  19.279  0.00  0.00    +0.000 A 
ATOM     22  C   UNL     1      -0.300  10.808  20.266  0.00  0.00    +0.000 A 
ATOM     23  C   UNL     1      -0.446  10.054  21.437  0.00  0.00    +0.000 A 
ATOM     24  C   UNL     1       0.235   8.842  21.587  0.00  0.00    +0.000 A 
BRANCH  22  25
ATOM     25  C   UNL     1      -1.156  12.033  20.037  0.00  0.00    +0.000 C 
BRANCH  25  26
ATOM     26  C   UNL     1      -1.930  12.069  18.725  0.00  0.00    +0.000 C 
ATOM     27  N   UNL     1      -1.336  12.619  17.628  0.00  0.00    +0.000 N 
ATOM     28  O   UNL     1      -3.063  11.611  18.631  0.00  0.00    +0.000 OA
ATOM     29  H   UNL     1      -0.404  13.007  17.636  0.00  0.00    +0.000 HD
ATOM     30  H   UNL     1      -1.858  12.626  16.764  0.00  0.00    +0.000 HD
ENDBRANCH  25  26
ENDBRANCH  22  25
ENDBRANCH  17  19
ENDBRANCH   4  17
TORSDOF 6
ENDMDL
