MODEL 1
REMARK VINA RESULT:      -7.5      0.000      0.000
REMARK  Name = 
REMARK  10 active torsions:
REMARK  status: ('A' for Active; 'I' for Inactive)
REMARK    1  A    between atoms: C_1  and  O_2
REMARK    2  A    between atoms: O_2  and  C_3
REMARK    3  A    between atoms: C_6  and  C_7
REMARK    4  A    between atoms: N_9  and  O_10
REMARK    5  A    between atoms: O_10  and  C_11
REMARK    6  A    between atoms: C_11  and  C_13
REMARK    7  A    between atoms: C_13  and  C_14
REMARK    8  A    between atoms: C_14  and  C_15
REMARK    9  A    between atoms: C_21  and  O_22
REMARK   10  A    between atoms: O_22  and  C_23
REMARK                            x       y       z     vdW  Elec       q    Type
REMARK                         _______ _______ _______ _____ _____    ______ ____
ROOT
ATOM      1  C   UNL     1       4.685   2.773  18.892  0.00  0.00    +0.000 C 
ATOM      2  N   UNL     1       5.067   2.287  20.025  0.00  0.00    +0.000 NA
ATOM      3  N   UNL     1       3.729   2.097  18.136  0.00  0.00    +0.000 N 
ATOM      4  H   UNL     1       5.807   2.833  20.470  0.00  0.00    +0.000 HD
ATOM      5  H   UNL     1       3.309   2.543  17.323  0.00  0.00    +0.000 HD
ENDROOT
BRANCH   1   9
ATOM      6  C   UNL     1       6.622   6.317  17.201  0.00  0.00    +0.000 A 
ATOM      7  C   UNL     1       6.587   6.099  18.581  0.00  0.00    +0.000 A 
ATOM      8  C   UNL     1       5.984   4.969  19.146  0.00  0.00    +0.000 A 
ATOM      9  C   UNL     1       5.297   4.053  18.334  0.00  0.00    +0.000 A 
ATOM     10  C   UNL     1       5.237   4.337  16.966  0.00  0.00    +0.000 A 
ATOM     11  C   UNL     1       5.885   5.446  16.376  0.00  0.00    +0.000 A 
BRANCH   6  13
ATOM     12  C   UNL     1       7.763   8.333  17.635  0.00  0.00    +0.000 C 
ATOM     13  O   UNL     1       7.454   7.287  16.697  0.00  0.00    +0.000 OA
ENDBRANCH   6  13
BRANCH  11  14
ATOM     14  O   UNL     1       5.762   5.406  15.018  0.00  0.00    +0.000 OA
ATOM     15  C   UNL     1       5.875   4.177  14.329  0.00  0.00    +0.000 C 
ENDBRANCH  11  14
ENDBRANCH   1   9
BRANCH   3  16
ATOM     16  O   UNL     1       2.770   1.383  18.903  0.00  0.00    +0.000 OA
BRANCH  16  17
ATOM     17  C   UNL     1       1.633   2.110  19.098  0.00  0.00    +0.000 C 
ATOM     18  O   UNL     1       0.752   2.243  18.233  0.00  0.00    +0.000 OA
BRANCH  17  19
ATOM     19  C   UNL     1       1.594   2.760  20.465  0.00  0.00    +0.000 C 
BRANCH  19  20
ATOM     20  C   UNL     1       1.021   4.186  20.437  0.00  0.00    +0.000 C 
BRANCH  20  21
ATOM     21  C   UNL     1       2.020   5.240  19.931  0.00  0.00    +0.000 C 
ATOM     22  C   UNL     1       1.990   5.429  18.416  0.00  0.00    +0.000 C 
ATOM     23  C   UNL     1       2.692   6.762  18.195  0.00  0.00    +0.000 C 
ATOM     24  C   UNL     1       2.425   7.587  19.452  0.00  0.00    +0.000 C 
ATOM     25  C   UNL     1       1.729   6.652  20.441  0.00  0.00    +0.000 C 
ENDBRANCH  20  21
ENDBRANCH  19  20
ENDBRANCH  17  19
ENDBRANCH  16  17
ENDBRANCH   3  16
TORSDOF 8
ENDMDL
MODEL 2
REMARK VINA RESULT:      -7.2      0.634      1.050
REMARK  Name = 
REMARK  10 active torsions:
REMARK  status: ('A' for Active; 'I' for Inactive)
REMARK    1  A    between atoms: C_1  and  O_2
REMARK    2  A    between atoms: O_2  and  C_3
REMARK    3  A    between atoms: C_6  and  C_7
REMARK    4  A    between atoms: N_9  and  O_10
REMARK    5  A    between atoms: O_10  and  C_11
REMARK    6  A    between atoms: C_11  and  C_13
REMARK    7  A    between atoms: C_13  and  C_14
REMARK    8  A    between atoms: C_14  and  C_15
REMARK    9  A    between atoms: C_21  and  O_22
REMARK   10  A    between atoms: O_22  and  C_23
REMARK                            x       y       z     vdW  Elec       q    Type
REMARK                         _______ _______ _______ _____ _____    ______ ____
ROOT
ATOM      1  C   UNL     1       4.573   3.017  18.857  0.00  0.00    +0.000 C 
ATOM      2  N   UNL     1       4.978   2.351  19.885  0.00  0.00    +0.000 NA
ATOM      3  N   UNL     1       3.443   2.595  18.159  0.00  0.00    +0.000 N 
ATOM      4  H   UNL     1       5.843   2.715  20.287  0.00  0.00    +0.000 HD
ATOM      5  H   UNL     1       3.026   3.193  17.448  0.00  0.00    +0.000 HD
ENDROOT
BRANCH   1   9
ATOM      6  C   UNL     1       6.936   6.365  17.315  0.00  0.00    +0.000 A 
ATOM      7  C   UNL     1       6.864   6.100  18.685  0.00  0.00    +0.000 A 
ATOM      8  C   UNL     1       6.125   5.029  19.202  0.00  0.00    +0.000 A 
ATOM      9  C   UNL     1       5.339   4.235  18.352  0.00  0.00    +0.000 A 
ATOM     10  C   UNL     1       5.325   4.578  16.996  0.00  0.00    +0.000 A 
ATOM     11  C   UNL     1       6.107   5.622  16.453  0.00  0.00    +0.000 A 
BRANCH   6  13
ATOM     12  C   UNL     1       7.967   8.464  17.616  0.00  0.00    +0.000 C 
ATOM     13  O   UNL     1       7.883   7.247  16.853  0.00  0.00    +0.000 OA
ENDBRANCH   6  13
BRANCH  11  14
ATOM     14  O   UNL     1       5.992   5.651  15.094  0.00  0.00    +0.000 OA
ATOM     15  C   UNL     1       6.731   4.747  14.298  0.00  0.00    +0.000 C 
ENDBRANCH  11  14
ENDBRANCH   1   9
BRANCH   3  16
ATOM     16  O   UNL     1       2.457   1.965  18.965  0.00  0.00    +0.000 OA
BRANCH  16  17
ATOM     17  C   UNL     1       1.355   2.752  19.127  0.00  0.00    +0.000 C 
ATOM     18  O   UNL     1       0.576   3.032  18.202  0.00  0.00    +0.000 OA
BRANCH  17  19
ATOM     19  C   UNL     1       1.221   3.269  20.543  0.00  0.00    +0.000 C 
BRANCH  19  20
ATOM     20  C   UNL     1       2.109   4.491  20.825  0.00  0.00    +0.000 C 
BRANCH  20  21
ATOM     21  C   UNL     1       1.655   5.763  20.089  0.00  0.00    +0.000 C 
ATOM     22  C   UNL     1       1.663   7.011  20.968  0.00  0.00    +0.000 C 
ATOM     23  C   UNL     1       1.618   8.164  19.976  0.00  0.00    +0.000 C 
ATOM     24  C   UNL     1       2.312   7.655  18.714  0.00  0.00    +0.000 C 
ATOM     25  C   UNL     1       2.582   6.167  18.941  0.00  0.00    +0.000 C 
ENDBRANCH  20  21
ENDBRANCH  19  20
ENDBRANCH  17  19
ENDBRANCH  16  17
ENDBRANCH   3  16
TORSDOF 8
ENDMDL
MODEL 3
REMARK VINA RESULT:      -7.0      2.367      3.749
REMARK  Name = 
REMARK  10 active torsions:
REMARK  status: ('A' for Active; 'I' for Inactive)
REMARK    1  A    between atoms: C_1  and  O_2
REMARK    2  A    between atoms: O_2  and  C_3
REMARK    3  A    between atoms: C_6  and  C_7
REMARK    4  A    between atoms: N_9  and  O_10
REMARK    5  A    between atoms: O_10  and  C_11
REMARK    6  A    between atoms: C_11  and  C_13
REMARK    7  A    between atoms: C_13  and  C_14
REMARK    8  A    between atoms: C_14  and  C_15
REMARK    9  A    between atoms: C_21  and  O_22
REMARK   10  A    between atoms: O_22  and  C_23
REMARK                            x       y       z     vdW  Elec       q    Type
REMARK                         _______ _______ _______ _____ _____    ______ ____
ROOT
ATOM      1  C   UNL     1       3.302   6.410  19.168  0.00  0.00    +0.000 C 
ATOM      2  N   UNL     1       2.442   7.350  18.963  0.00  0.00    +0.000 NA
ATOM      3  N   UNL     1       3.288   5.711  20.374  0.00  0.00    +0.000 N 
ATOM      4  H   UNL     1       2.575   7.832  18.072  0.00  0.00    +0.000 HD
ATOM      5  H   UNL     1       3.853   4.871  20.487  0.00  0.00    +0.000 HD
ENDROOT
BRANCH   1   9
ATOM      6  C   UNL     1       6.506   5.646  16.284  0.00  0.00    +0.000 A 
ATOM      7  C   UNL     1       5.261   6.131  15.872  0.00  0.00    +0.000 A 
ATOM      8  C   UNL     1       4.225   6.395  16.776  0.00  0.00    +0.000 A 
ATOM      9  C   UNL     1       4.374   6.079  18.136  0.00  0.00    +0.000 A 
ATOM     10  C   UNL     1       5.580   5.486  18.522  0.00  0.00    +0.000 A 
ATOM     11  C   UNL     1       6.654   5.263  17.631  0.00  0.00    +0.000 A 
BRANCH   6  13
ATOM     12  C   UNL     1       7.286   5.002  14.155  0.00  0.00    +0.000 C 
ATOM     13  O   UNL     1       7.558   5.668  15.400  0.00  0.00    +0.000 OA
ENDBRANCH   6  13
BRANCH  11  14
ATOM     14  O   UNL     1       7.743   4.791  18.301  0.00  0.00    +0.000 OA
ATOM     15  C   UNL     1       8.143   5.386  19.519  0.00  0.00    +0.000 C 
ENDBRANCH  11  14
ENDBRANCH   1   9
BRANCH   3  16
ATOM     16  O   UNL     1       1.998   5.562  20.951  0.00  0.00    +0.000 OA
BRANCH  16  17
ATOM     17  C   UNL     1       1.692   4.252  21.178  0.00  0.00    +0.000 C 
ATOM     18  O   UNL     1       2.244   3.564  22.052  0.00  0.00    +0.000 OA
BRANCH  17  19
ATOM     19  C   UNL     1       0.640   3.734  20.220  0.00  0.00    +0.000 C 
BRANCH  19  20
ATOM     20  C   UNL     1       0.879   2.277  19.795  0.00  0.00    +0.000 C 
BRANCH  20  21
ATOM     21  C   UNL     1       1.749   2.140  18.534  0.00  0.00    +0.000 C 
ATOM     22  C   UNL     1       1.791   3.408  17.684  0.00  0.00    +0.000 C 
ATOM     23  C   UNL     1       3.000   3.209  16.781  0.00  0.00    +0.000 C 
ATOM     24  C   UNL     1       3.971   2.334  17.572  0.00  0.00    +0.000 C 
ATOM     25  C   UNL     1       3.229   1.902  18.837  0.00  0.00    +0.000 C 
ENDBRANCH  20  21
ENDBRANCH  19  20
ENDBRANCH  17  19
ENDBRANCH  16  17
ENDBRANCH   3  16
TORSDOF 8
ENDMDL
MODEL 4
REMARK VINA RESULT:      -6.8      3.121      5.996
REMARK  Name = 
REMARK  10 active torsions:
REMARK  status: ('A' for Active; 'I' for Inactive)
REMARK    1  A    between atoms: C_1  and  O_2
REMARK    2  A    between atoms: O_2  and  C_3
REMARK    3  A    between atoms: C_6  and  C_7
REMARK    4  A    between atoms: N_9  and  O_10
REMARK    5  A    between atoms: O_10  and  C_11
REMARK    6  A    between atoms: C_11  and  C_13
REMARK    7  A    between atoms: C_13  and  C_14
REMARK    8  A    between atoms: C_14  and  C_15
REMARK    9  A    between atoms: C_21  and  O_22
REMARK   10  A    between atoms: O_22  and  C_23
REMARK                            x       y       z     vdW  Elec       q    Type
REMARK                         _______ _______ _______ _____ _____    ______ ____
ROOT
ATOM      1  C   UNL     1       2.950   5.737  20.000  0.00  0.00    +0.000 C 
ATOM      2  N   UNL     1       2.401   5.034  20.931  0.00  0.00    +0.000 NA
ATOM      3  N   UNL     1       4.109   5.276  19.377  0.00  0.00    +0.000 N 
ATOM      4  H   UNL     1       1.590   5.488  21.356  0.00  0.00    +0.000 HD
ATOM      5  H   UNL     1       4.462   5.741  18.543  0.00  0.00    +0.000 HD
ENDROOT
BRANCH   1   9
ATOM      6  C   UNL     1       1.117   9.538  18.833  0.00  0.00    +0.000 A 
ATOM      7  C   UNL     1       1.940   8.830  17.952  0.00  0.00    +0.000 A 
ATOM      8  C   UNL     1       2.529   7.608  18.298  0.00  0.00    +0.000 A 
ATOM      9  C   UNL     1       2.387   7.096  19.597  0.00  0.00    +0.000 A 
ATOM     10  C   UNL     1       1.657   7.866  20.507  0.00  0.00    +0.000 A 
ATOM     11  C   UNL     1       1.013   9.075  20.158  0.00  0.00    +0.000 A 
BRANCH   6  13
ATOM     12  C   UNL     1      -0.982  10.196  17.985  0.00  0.00    +0.000 C 
ATOM     13  O   UNL     1       0.356  10.576  18.350  0.00  0.00    +0.000 OA
ENDBRANCH   6  13
BRANCH  11  14
ATOM     14  O   UNL     1       0.275   9.544  21.204  0.00  0.00    +0.000 OA
ATOM     15  C   UNL     1       0.708   9.333  22.533  0.00  0.00    +0.000 C 
ENDBRANCH  11  14
ENDBRANCH   1   9
BRANCH   3  16
ATOM     16  O   UNL     1       4.198   3.862  19.274  0.00  0.00    +0.000 OA
BRANCH  16  17
ATOM     17  C   UNL     1       3.969   3.431  18.001  0.00  0.00    +0.000 C 
ATOM     18  O   UNL     1       3.499   2.313  17.733  0.00  0.00    +0.000 OA
BRANCH  17  19
ATOM     19  C   UNL     1       4.389   4.452  16.965  0.00  0.00    +0.000 C 
BRANCH  19  20
ATOM     20  C   UNL     1       5.789   4.185  16.389  0.00  0.00    +0.000 C 
BRANCH  20  21
ATOM     21  C   UNL     1       6.816   5.274  16.743  0.00  0.00    +0.000 C 
ATOM     22  C   UNL     1       6.220   6.679  16.793  0.00  0.00    +0.000 C 
ATOM     23  C   UNL     1       7.253   7.492  17.561  0.00  0.00    +0.000 C 
ATOM     24  C   UNL     1       7.935   6.509  18.510  0.00  0.00    +0.000 C 
ATOM     25  C   UNL     1       7.408   5.121  18.144  0.00  0.00    +0.000 C 
ENDBRANCH  20  21
ENDBRANCH  19  20
ENDBRANCH  17  19
ENDBRANCH  16  17
ENDBRANCH   3  16
TORSDOF 8
ENDMDL
MODEL 5
REMARK VINA RESULT:      -6.8      3.031      7.604
REMARK  Name = 
REMARK  10 active torsions:
REMARK  status: ('A' for Active; 'I' for Inactive)
REMARK    1  A    between atoms: C_1  and  O_2
REMARK    2  A    between atoms: O_2  and  C_3
REMARK    3  A    between atoms: C_6  and  C_7
REMARK    4  A    between atoms: N_9  and  O_10
REMARK    5  A    between atoms: O_10  and  C_11
REMARK    6  A    between atoms: C_11  and  C_13
REMARK    7  A    between atoms: C_13  and  C_14
REMARK    8  A    between atoms: C_14  and  C_15
REMARK    9  A    between atoms: C_21  and  O_22
REMARK   10  A    between atoms: O_22  and  C_23
REMARK                            x       y       z     vdW  Elec       q    Type
REMARK                         _______ _______ _______ _____ _____    ______ ____
ROOT
ATOM      1  C   UNL     1       5.386   6.224  16.680  0.00  0.00    +0.000 C 
ATOM      2  N   UNL     1       5.130   6.801  15.555  0.00  0.00    +0.000 NA
ATOM      3  N   UNL     1       6.694   6.192  17.160  0.00  0.00    +0.000 N 
ATOM      4  H   UNL     1       4.152   6.719  15.272  0.00  0.00    +0.000 HD
ATOM      5  H   UNL     1       6.885   5.881  18.110  0.00  0.00    +0.000 HD
ENDROOT
BRANCH   1   9
ATOM      6  C   UNL     1       2.198   4.081  18.781  0.00  0.00    +0.000 A 
ATOM      7  C   UNL     1       2.033   5.408  18.376  0.00  0.00    +0.000 A 
ATOM      8  C   UNL     1       3.033   6.111  17.692  0.00  0.00    +0.000 A 
ATOM      9  C   UNL     1       4.291   5.525  17.478  0.00  0.00    +0.000 A 
ATOM     10  C   UNL     1       4.487   4.239  17.989  0.00  0.00    +0.000 A 
ATOM     11  C   UNL     1       3.471   3.497  18.633  0.00  0.00    +0.000 A 
BRANCH   6  13
ATOM     12  C   UNL     1       1.005   3.222  20.624  0.00  0.00    +0.000 C 
ATOM     13  O   UNL     1       1.100   3.366  19.196  0.00  0.00    +0.000 OA
ENDBRANCH   6  13
BRANCH  11  14
ATOM     14  O   UNL     1       3.904   2.235  18.914  0.00  0.00    +0.000 OA
ATOM     15  C   UNL     1       4.519   1.952  20.154  0.00  0.00    +0.000 C 
ENDBRANCH  11  14
ENDBRANCH   1   9
BRANCH   3  16
ATOM     16  O   UNL     1       7.477   7.325  16.807  0.00  0.00    +0.000 OA
BRANCH  16  17
ATOM     17  C   UNL     1       8.047   7.907  17.900  0.00  0.00    +0.000 C 
ATOM     18  O   UNL     1       8.450   7.264  18.883  0.00  0.00    +0.000 OA
BRANCH  17  19
ATOM     19  C   UNL     1       8.093   9.416  17.789  0.00  0.00    +0.000 C 
BRANCH  19  20
ATOM     20  C   UNL     1       9.046  10.066  18.806  0.00  0.00    +0.000 C 
BRANCH  20  21
ATOM     21  C   UNL     1      10.013  11.083  18.177  0.00  0.00    +0.000 C 
ATOM     22  C   UNL     1       9.334  12.381  17.746  0.00  0.00    +0.000 C 
ATOM     23  C   UNL     1      10.485  13.363  17.577  0.00  0.00    +0.000 C 
ATOM     24  C   UNL     1      11.563  12.913  18.561  0.00  0.00    +0.000 C 
ATOM     25  C   UNL     1      11.086  11.583  19.145  0.00  0.00    +0.000 C 
ENDBRANCH  20  21
ENDBRANCH  19  20
ENDBRANCH  17  19
ENDBRANCH  16  17
ENDBRANCH   3  16
TORSDOF 8
ENDMDL
MODEL 6
REMARK VINA RESULT:      -6.7      0.766      1.246
REMARK  Name = 
REMARK  10 active torsions:
REMARK  status: ('A' for Active; 'I' for Inactive)
REMARK    1  A    between atoms: C_1  and  O_2
REMARK    2  A    between atoms: O_2  and  C_3
REMARK    3  A    between atoms: C_6  and  C_7
REMARK    4  A    between atoms: N_9  and  O_10
REMARK    5  A    between atoms: O_10  and  C_11
REMARK    6  A    between atoms: C_11  and  C_13
REMARK    7  A    between atoms: C_13  and  C_14
REMARK    8  A    between atoms: C_14  and  C_15
REMARK    9  A    between atoms: C_21  and  O_22
REMARK   10  A    between atoms: O_22  and  C_23
REMARK                            x       y       z     vdW  Elec       q    Type
REMARK                         _______ _______ _______ _____ _____    ______ ____
ROOT
ATOM      1  C   UNL     1       4.945   2.990  18.794  0.00  0.00    +0.000 C 
ATOM      2  N   UNL     1       5.018   2.642  20.034  0.00  0.00    +0.000 NA
ATOM      3  N   UNL     1       4.322   2.148  17.875  0.00  0.00    +0.000 N 
ATOM      4  H   UNL     1       5.541   3.305  20.609  0.00  0.00    +0.000 HD
ATOM      5  H   UNL     1       4.122   2.476  16.931  0.00  0.00    +0.000 HD
ENDROOT
BRANCH   1   9
ATOM      6  C   UNL     1       6.936   6.582  17.275  0.00  0.00    +0.000 A 
ATOM      7  C   UNL     1       6.888   6.304  18.644  0.00  0.00    +0.000 A 
ATOM      8  C   UNL     1       6.268   5.156  19.154  0.00  0.00    +0.000 A 
ATOM      9  C   UNL     1       5.576   4.286  18.297  0.00  0.00    +0.000 A 
ATOM     10  C   UNL     1       5.530   4.631  16.943  0.00  0.00    +0.000 A 
ATOM     11  C   UNL     1       6.195   5.757  16.407  0.00  0.00    +0.000 A 
BRANCH   6  13
ATOM     12  C   UNL     1       7.985   8.637  17.757  0.00  0.00    +0.000 C 
ATOM     13  O   UNL     1       7.783   7.563  16.821  0.00  0.00    +0.000 OA
ENDBRANCH   6  13
BRANCH  11  14
ATOM     14  O   UNL     1       6.082   5.779  15.048  0.00  0.00    +0.000 OA
ATOM     15  C   UNL     1       6.744   4.809  14.263  0.00  0.00    +0.000 C 
ENDBRANCH  11  14
ENDBRANCH   1   9
BRANCH   3  16
ATOM     16  O   UNL     1       3.248   1.387  18.409  0.00  0.00    +0.000 OA
BRANCH  16  17
ATOM     17  C   UNL     1       2.063   2.058  18.331  0.00  0.00    +0.000 C 
ATOM     18  O   UNL     1       1.104   1.837  19.089  0.00  0.00    +0.000 OA
BRANCH  17  19
ATOM     19  C   UNL     1       2.045   3.063  17.200  0.00  0.00    +0.000 C 
BRANCH  19  20
ATOM     20  C   UNL     1       1.347   4.380  17.575  0.00  0.00    +0.000 C 
BRANCH  20  21
ATOM     21  C   UNL     1       2.110   5.201  18.629  0.00  0.00    +0.000 C 
ATOM     22  C   UNL     1       2.238   6.680  18.271  0.00  0.00    +0.000 C 
ATOM     23  C   UNL     1       2.608   7.349  19.587  0.00  0.00    +0.000 C 
ATOM     24  C   UNL     1       1.975   6.492  20.682  0.00  0.00    +0.000 C 
ATOM     25  C   UNL     1       1.408   5.255  19.986  0.00  0.00    +0.000 C 
ENDBRANCH  20  21
ENDBRANCH  19  20
ENDBRANCH  17  19
ENDBRANCH  16  17
ENDBRANCH   3  16
TORSDOF 8
ENDMDL
MODEL 7
REMARK VINA RESULT:      -6.6      3.245      7.829
REMARK  Name = 
REMARK  10 active torsions:
REMARK  status: ('A' for Active; 'I' for Inactive)
REMARK    1  A    between atoms: C_1  and  O_2
REMARK    2  A    between atoms: O_2  and  C_3
REMARK    3  A    between atoms: C_6  and  C_7
REMARK    4  A    between atoms: N_9  and  O_10
REMARK    5  A    between atoms: O_10  and  C_11
REMARK    6  A    between atoms: C_11  and  C_13
REMARK    7  A    between atoms: C_13  and  C_14
REMARK    8  A    between atoms: C_14  and  C_15
REMARK    9  A    between atoms: C_21  and  O_22
REMARK   10  A    between atoms: O_22  and  C_23
REMARK                            x       y       z     vdW  Elec       q    Type
REMARK                         _______ _______ _______ _____ _____    ______ ____
ROOT
ATOM      1  C   UNL     1       5.735   5.910  16.597  0.00  0.00    +0.000 C 
ATOM      2  N   UNL     1       5.716   6.198  15.340  0.00  0.00    +0.000 NA
ATOM      3  N   UNL     1       6.780   6.371  17.397  0.00  0.00    +0.000 N 
ATOM      4  H   UNL     1       4.938   5.767  14.838  0.00  0.00    +0.000 HD
ATOM      5  H   UNL     1       6.727   6.284  18.410  0.00  0.00    +0.000 HD
ENDROOT
BRANCH   1   9
ATOM      6  C   UNL     1       2.818   3.289  18.543  0.00  0.00    +0.000 A 
ATOM      7  C   UNL     1       3.256   3.043  17.239  0.00  0.00    +0.000 A 
ATOM      8  C   UNL     1       4.197   3.859  16.599  0.00  0.00    +0.000 A 
ATOM      9  C   UNL     1       4.661   5.028  17.223  0.00  0.00    +0.000 A 
ATOM     10  C   UNL     1       4.131   5.329  18.481  0.00  0.00    +0.000 A 
ATOM     11  C   UNL     1       3.222   4.488  19.161  0.00  0.00    +0.000 A 
BRANCH   6  13
ATOM     12  C   UNL     1       0.701   2.333  18.943  0.00  0.00    +0.000 C 
ATOM     13  O   UNL     1       2.114   2.313  19.208  0.00  0.00    +0.000 OA
ENDBRANCH   6  13
BRANCH  11  14
ATOM     14  O   UNL     1       2.971   4.965  20.414  0.00  0.00    +0.000 OA
ATOM     15  C   UNL     1       1.712   5.526  20.724  0.00  0.00    +0.000 C 
ENDBRANCH  11  14
ENDBRANCH   1   9
BRANCH   3  16
ATOM     16  O   UNL     1       7.313   7.627  17.000  0.00  0.00    +0.000 OA
BRANCH  16  17
ATOM     17  C   UNL     1       8.085   8.182  17.978  0.00  0.00    +0.000 C 
ATOM     18  O   UNL     1       8.627   7.518  18.878  0.00  0.00    +0.000 OA
BRANCH  17  19
ATOM     19  C   UNL     1       8.169   9.688  17.859  0.00  0.00    +0.000 C 
BRANCH  19  20
ATOM     20  C   UNL     1       9.121  10.321  18.886  0.00  0.00    +0.000 C 
BRANCH  20  21
ATOM     21  C   UNL     1      10.212  11.200  18.252  0.00  0.00    +0.000 C 
ATOM     22  C   UNL     1       9.691  12.540  17.736  0.00  0.00    +0.000 C 
ATOM     23  C   UNL     1      10.944  13.387  17.570  0.00  0.00    +0.000 C 
ATOM     24  C   UNL     1      11.934  12.875  18.614  0.00  0.00    +0.000 C 
ATOM     25  C   UNL     1      11.298  11.632  19.238  0.00  0.00    +0.000 C 
ENDBRANCH  20  21
ENDBRANCH  19  20
ENDBRANCH  17  19
ENDBRANCH  16  17
ENDBRANCH   3  16
TORSDOF 8
ENDMDL
MODEL 8
REMARK VINA RESULT:      -6.5      2.770      7.257
REMARK  Name = 
REMARK  10 active torsions:
REMARK  status: ('A' for Active; 'I' for Inactive)
REMARK    1  A    between atoms: C_1  and  O_2
REMARK    2  A    between atoms: O_2  and  C_3
REMARK    3  A    between atoms: C_6  and  C_7
REMARK    4  A    between atoms: N_9  and  O_10
REMARK    5  A    between atoms: O_10  and  C_11
REMARK    6  A    between atoms: C_11  and  C_13
REMARK    7  A    between atoms: C_13  and  C_14
REMARK    8  A    between atoms: C_14  and  C_15
REMARK    9  A    between atoms: C_21  and  O_22
REMARK   10  A    between atoms: O_22  and  C_23
REMARK                            x       y       z     vdW  Elec       q    Type
REMARK                         _______ _______ _______ _____ _____    ______ ____
ROOT
ATOM      1  C   UNL     1       6.617   5.071  18.074  0.00  0.00    +0.000 C 
ATOM      2  N   UNL     1       7.542   4.435  17.439  0.00  0.00    +0.000 NA
ATOM      3  N   UNL     1       6.963   6.069  18.984  0.00  0.00    +0.000 N 
ATOM      4  H   UNL     1       7.182   3.690  16.839  0.00  0.00    +0.000 HD
ATOM      5  H   UNL     1       6.246   6.680  19.372  0.00  0.00    +0.000 HD
ENDROOT
BRANCH   1   9
ATOM      6  C   UNL     1       2.394   3.958  17.760  0.00  0.00    +0.000 A 
ATOM      7  C   UNL     1       3.370   3.324  16.986  0.00  0.00    +0.000 A 
ATOM      8  C   UNL     1       4.728   3.654  17.076  0.00  0.00    +0.000 A 
ATOM      9  C   UNL     1       5.145   4.719  17.890  0.00  0.00    +0.000 A 
ATOM     10  C   UNL     1       4.150   5.424  18.574  0.00  0.00    +0.000 A 
ATOM     11  C   UNL     1       2.782   5.069  18.534  0.00  0.00    +0.000 A 
BRANCH   6  13
ATOM     12  C   UNL     1       1.031   2.306  18.745  0.00  0.00    +0.000 C 
ATOM     13  O   UNL     1       1.135   3.411  17.830  0.00  0.00    +0.000 OA
ENDBRANCH   6  13
BRANCH  11  14
ATOM     14  O   UNL     1       2.060   5.847  19.389  0.00  0.00    +0.000 OA
ATOM     15  C   UNL     1       1.803   5.408  20.707  0.00  0.00    +0.000 C 
ENDBRANCH  11  14
ENDBRANCH   1   9
BRANCH   3  16
ATOM     16  O   UNL     1       8.144   6.784  18.650  0.00  0.00    +0.000 OA
BRANCH  16  17
ATOM     17  C   UNL     1       7.955   7.605  17.577  0.00  0.00    +0.000 C 
ATOM     18  O   UNL     1       7.848   7.190  16.412  0.00  0.00    +0.000 OA
BRANCH  17  19
ATOM     19  C   UNL     1       7.930   9.067  17.969  0.00  0.00    +0.000 C 
BRANCH  19  20
ATOM     20  C   UNL     1       9.083   9.458  18.908  0.00  0.00    +0.000 C 
BRANCH  20  21
ATOM     21  C   UNL     1       9.398  10.963  18.900  0.00  0.00    +0.000 C 
ATOM     22  C   UNL     1      10.842  11.280  18.519  0.00  0.00    +0.000 C 
ATOM     23  C   UNL     1      10.813  12.757  18.153  0.00  0.00    +0.000 C 
ATOM     24  C   UNL     1       9.408  13.026  17.618  0.00  0.00    +0.000 C 
ATOM     25  C   UNL     1       8.606  11.746  17.852  0.00  0.00    +0.000 C 
ENDBRANCH  20  21
ENDBRANCH  19  20
ENDBRANCH  17  19
ENDBRANCH  16  17
ENDBRANCH   3  16
TORSDOF 8
ENDMDL
MODEL 9
REMARK VINA RESULT:      -6.4      3.062      7.417
REMARK  Name = 
REMARK  10 active torsions:
REMARK  status: ('A' for Active; 'I' for Inactive)
REMARK    1  A    between atoms: C_1  and  O_2
REMARK    2  A    between atoms: O_2  and  C_3
REMARK    3  A    between atoms: C_6  and  C_7
REMARK    4  A    between atoms: N_9  and  O_10
REMARK    5  A    between atoms: O_10  and  C_11
REMARK    6  A    between atoms: C_11  and  C_13
REMARK    7  A    between atoms: C_13  and  C_14
REMARK    8  A    between atoms: C_14  and  C_15
REMARK    9  A    between atoms: C_21  and  O_22
REMARK   10  A    between atoms: O_22  and  C_23
REMARK                            x       y       z     vdW  Elec       q    Type
REMARK                         _______ _______ _______ _____ _____    ______ ____
ROOT
ATOM      1  C   UNL     1       5.941   5.959  16.722  0.00  0.00    +0.000 C 
ATOM      2  N   UNL     1       5.304   6.816  15.997  0.00  0.00    +0.000 NA
ATOM      3  N   UNL     1       7.333   5.993  16.772  0.00  0.00    +0.000 N 
ATOM      4  H   UNL     1       4.294   6.667  15.989  0.00  0.00    +0.000 HD
ATOM      5  H   UNL     1       7.836   5.429  17.454  0.00  0.00    +0.000 HD
ENDROOT
BRANCH   1   9
ATOM      6  C   UNL     1       3.667   2.994  19.004  0.00  0.00    +0.000 A 
ATOM      7  C   UNL     1       4.944   3.394  19.406  0.00  0.00    +0.000 A 
ATOM      8  C   UNL     1       5.686   4.348  18.700  0.00  0.00    +0.000 A 
ATOM      9  C   UNL     1       5.202   4.868  17.489  0.00  0.00    +0.000 A 
ATOM     10  C   UNL     1       3.975   4.378  17.033  0.00  0.00    +0.000 A 
ATOM     11  C   UNL     1       3.190   3.455  17.761  0.00  0.00    +0.000 A 
BRANCH   6  13
ATOM     12  C   UNL     1       2.870   2.797  21.213  0.00  0.00    +0.000 C 
ATOM     13  O   UNL     1       2.886   2.272  19.874  0.00  0.00    +0.000 OA
ENDBRANCH   6  13
BRANCH  11  14
ATOM     14  O   UNL     1       1.993   3.250  17.142  0.00  0.00    +0.000 OA
ATOM     15  C   UNL     1       0.894   4.095  17.419  0.00  0.00    +0.000 C 
ENDBRANCH  11  14
ENDBRANCH   1   9
BRANCH   3  16
ATOM     16  O   UNL     1       7.893   7.293  16.643  0.00  0.00    +0.000 OA
BRANCH  16  17
ATOM     17  C   UNL     1       8.139   7.862  17.858  0.00  0.00    +0.000 C 
ATOM     18  O   UNL     1       8.370   7.202  18.885  0.00  0.00    +0.000 OA
BRANCH  17  19
ATOM     19  C   UNL     1       8.058   9.372  17.813  0.00  0.00    +0.000 C 
BRANCH  19  20
ATOM     20  C   UNL     1       9.028  10.057  18.789  0.00  0.00    +0.000 C 
BRANCH  20  21
ATOM     21  C   UNL     1       9.926  11.113  18.122  0.00  0.00    +0.000 C 
ATOM     22  C   UNL     1       9.201  12.421  17.815  0.00  0.00    +0.000 C 
ATOM     23  C   UNL     1      10.325  13.423  17.588  0.00  0.00    +0.000 C 
ATOM     24  C   UNL     1      11.492  12.941  18.447  0.00  0.00    +0.000 C 
ATOM     25  C   UNL     1      11.080  11.581  19.010  0.00  0.00    +0.000 C 
ENDBRANCH  20  21
ENDBRANCH  19  20
ENDBRANCH  17  19
ENDBRANCH  16  17
ENDBRANCH   3  16
TORSDOF 8
ENDMDL
