MODEL 1
REMARK VINA RESULT:      -6.9      0.000      0.000
REMARK  Name = 
REMARK  13 active torsions:
REMARK  status: ('A' for Active; 'I' for Inactive)
REMARK    1  A    between atoms: C_1  and  C_2
REMARK    2  A    between atoms: C_2  and  C_3
REMARK    3  A    between atoms: C_4  and  C_5
REMARK    4  A    between atoms: C_5  and  C_6
REMARK    5  A    between atoms: C_6  and  C_7
REMARK    6  A    between atoms: C_7  and  C_8
REMARK    7  A    between atoms: C_9  and  C_10
REMARK    8  A    between atoms: C_10  and  N_11
REMARK    9  A    between atoms: C_13  and  C_14
REMARK   10  A    between atoms: C_14  and  C_15
REMARK   11  A    between atoms: C_15  and  P_16
REMARK   12  A    between atoms: P_16  and  O_18
REMARK   13  A    between atoms: P_16  and  O_19
REMARK                            x       y       z     vdW  Elec       q    Type
REMARK                         _______ _______ _______ _____ _____    ______ ____
ROOT
ATOM      1  N   UNL     1       3.687   5.192  17.315  0.00  0.00    +0.000 N 
ATOM      2  C   UNL     1       2.615   5.361  18.141  0.00  0.00    +0.000 A 
ATOM      3  C   UNL     1       2.080   4.098  18.250  0.00  0.00    +0.000 A 
ATOM      4  N   UNL     1       2.828   3.227  17.500  0.00  0.00    +0.000 NA
ATOM      5  N   UNL     1       3.817   3.908  16.937  0.00  0.00    +0.000 NA
ENDROOT
BRANCH   1   6
ATOM      6  C   UNL     1       4.634   6.196  16.864  0.00  0.00    +0.000 C 
BRANCH   6   9
ATOM      7  C   UNL     1       6.485   5.206  15.395  0.00  0.00    +0.000 C 
ATOM      8  C   UNL     1       7.356   4.842  16.570  0.00  0.00    +0.000 C 
ATOM      9  C   UNL     1       5.282   5.794  15.569  0.00  0.00    +0.000 C 
BRANCH   7  10
ATOM     10  C   UNL     1       7.046   4.849  14.022  0.00  0.00    +0.000 C 
BRANCH  10  11
ATOM     11  C   UNL     1       6.463   3.576  13.389  0.00  0.00    +0.000 C 
BRANCH  11  15
ATOM     12  C   UNL     1       3.672   3.290  10.685  0.00  0.00    +0.000 C 
ATOM     13  C   UNL     1       4.878   2.961  11.513  0.00  0.00    +0.000 C 
ATOM     14  C   UNL     1       5.533   1.628  11.277  0.00  0.00    +0.000 C 
ATOM     15  C   UNL     1       5.338   3.842  12.429  0.00  0.00    +0.000 C 
ENDBRANCH  11  15
ENDBRANCH  10  11
ENDBRANCH   7  10
ENDBRANCH   6   9
ENDBRANCH   1   6
BRANCH   3  16
ATOM     16  C   UNL     1       0.918   3.615  19.037  0.00  0.00    +0.000 C 
BRANCH  16  17
ATOM     17  C   UNL     1       1.282   2.391  19.864  0.00  0.00    +0.000 C 
BRANCH  17  18
ATOM     18  P   UNL     1       1.897   2.790  21.481  0.00  0.00    +0.000 P 
ATOM     19  O   UNL     1       1.077   2.343  22.641  0.00  0.00    +0.000 OA
BRANCH  18  20
ATOM     20  O   UNL     1       3.400   2.232  21.488  0.00  0.00    +0.000 OA
ATOM     21  H   UNL     1       3.500   1.281  21.679  0.00  0.00    +0.000 HD
ENDBRANCH  18  20
BRANCH  18  22
ATOM     22  O   UNL     1       2.169   4.366  21.436  0.00  0.00    +0.000 OA
ATOM     23  H   UNL     1       2.605   4.616  20.597  0.00  0.00    +0.000 HD
ENDBRANCH  18  22
ENDBRANCH  17  18
ENDBRANCH  16  17
ENDBRANCH   3  16
TORSDOF 10
ENDMDL
MODEL 2
REMARK VINA RESULT:      -6.9      3.938      6.288
REMARK  Name = 
REMARK  13 active torsions:
REMARK  status: ('A' for Active; 'I' for Inactive)
REMARK    1  A    between atoms: C_1  and  C_2
REMARK    2  A    between atoms: C_2  and  C_3
REMARK    3  A    between atoms: C_4  and  C_5
REMARK    4  A    between atoms: C_5  and  C_6
REMARK    5  A    between atoms: C_6  and  C_7
REMARK    6  A    between atoms: C_7  and  C_8
REMARK    7  A    between atoms: C_9  and  C_10
REMARK    8  A    between atoms: C_10  and  N_11
REMARK    9  A    between atoms: C_13  and  C_14
REMARK   10  A    between atoms: C_14  and  C_15
REMARK   11  A    between atoms: C_15  and  P_16
REMARK   12  A    between atoms: P_16  and  O_18
REMARK   13  A    between atoms: P_16  and  O_19
REMARK                            x       y       z     vdW  Elec       q    Type
REMARK                         _______ _______ _______ _____ _____    ______ ____
ROOT
ATOM      1  N   UNL     1       5.202   4.765  17.175  0.00  0.00    +0.000 N 
ATOM      2  C   UNL     1       4.614   3.555  17.401  0.00  0.00    +0.000 A 
ATOM      3  C   UNL     1       3.313   3.874  17.719  0.00  0.00    +0.000 A 
ATOM      4  N   UNL     1       3.163   5.237  17.679  0.00  0.00    +0.000 NA
ATOM      5  N   UNL     1       4.326   5.772  17.336  0.00  0.00    +0.000 NA
ENDROOT
BRANCH   1   6
ATOM      6  C   UNL     1       6.575   5.032  16.787  0.00  0.00    +0.000 C 
BRANCH   6   9
ATOM      7  C   UNL     1       7.558   7.213  17.703  0.00  0.00    +0.000 C 
ATOM      8  C   UNL     1       8.178   6.543  18.902  0.00  0.00    +0.000 C 
ATOM      9  C   UNL     1       6.866   6.506  16.784  0.00  0.00    +0.000 C 
BRANCH   7  10
ATOM     10  C   UNL     1       7.784   8.719  17.597  0.00  0.00    +0.000 C 
BRANCH  10  11
ATOM     11  C   UNL     1       8.693   9.321  18.679  0.00  0.00    +0.000 C 
BRANCH  11  15
ATOM     12  C   UNL     1      10.391  12.828  18.705  0.00  0.00    +0.000 C 
ATOM     13  C   UNL     1       9.745  11.565  19.193  0.00  0.00    +0.000 C 
ATOM     14  C   UNL     1       9.673  11.359  20.681  0.00  0.00    +0.000 C 
ATOM     15  C   UNL     1       9.257  10.664  18.311  0.00  0.00    +0.000 C 
ENDBRANCH  11  15
ENDBRANCH  10  11
ENDBRANCH   7  10
ENDBRANCH   6   9
ENDBRANCH   1   6
BRANCH   3  16
ATOM     16  C   UNL     1       2.161   2.994  18.037  0.00  0.00    +0.000 C 
BRANCH  16  17
ATOM     17  C   UNL     1       2.327   2.338  19.399  0.00  0.00    +0.000 C 
BRANCH  17  18
ATOM     18  P   UNL     1       1.745   3.344  20.741  0.00  0.00    +0.000 P 
ATOM     19  O   UNL     1       2.514   4.586  21.033  0.00  0.00    +0.000 OA
BRANCH  18  20
ATOM     20  O   UNL     1       0.196   3.595  20.414  0.00  0.00    +0.000 OA
ATOM     21  H   UNL     1      -0.001   4.375  19.862  0.00  0.00    +0.000 HD
ENDBRANCH  18  20
BRANCH  18  22
ATOM     22  O   UNL     1       1.623   2.340  21.981  0.00  0.00    +0.000 OA
ATOM     23  H   UNL     1       2.175   2.647  22.728  0.00  0.00    +0.000 HD
ENDBRANCH  18  22
ENDBRANCH  17  18
ENDBRANCH  16  17
ENDBRANCH   3  16
TORSDOF 10
ENDMDL
MODEL 3
REMARK VINA RESULT:      -6.9      1.222      1.809
REMARK  Name = 
REMARK  13 active torsions:
REMARK  status: ('A' for Active; 'I' for Inactive)
REMARK    1  A    between atoms: C_1  and  C_2
REMARK    2  A    between atoms: C_2  and  C_3
REMARK    3  A    between atoms: C_4  and  C_5
REMARK    4  A    between atoms: C_5  and  C_6
REMARK    5  A    between atoms: C_6  and  C_7
REMARK    6  A    between atoms: C_7  and  C_8
REMARK    7  A    between atoms: C_9  and  C_10
REMARK    8  A    between atoms: C_10  and  N_11
REMARK    9  A    between atoms: C_13  and  C_14
REMARK   10  A    between atoms: C_14  and  C_15
REMARK   11  A    between atoms: C_15  and  P_16
REMARK   12  A    between atoms: P_16  and  O_18
REMARK   13  A    between atoms: P_16  and  O_19
REMARK                            x       y       z     vdW  Elec       q    Type
REMARK                         _______ _______ _______ _____ _____    ______ ____
ROOT
ATOM      1  N   UNL     1       4.628   4.742  18.058  0.00  0.00    +0.000 N 
ATOM      2  C   UNL     1       3.532   3.953  17.865  0.00  0.00    +0.000 A 
ATOM      3  C   UNL     1       3.686   2.943  18.787  0.00  0.00    +0.000 A 
ATOM      4  N   UNL     1       4.847   3.149  19.488  0.00  0.00    +0.000 NA
ATOM      5  N   UNL     1       5.412   4.260  19.038  0.00  0.00    +0.000 NA
ENDROOT
BRANCH   1   6
ATOM      6  C   UNL     1       4.978   5.969  17.364  0.00  0.00    +0.000 C 
BRANCH   6   9
ATOM      7  C   UNL     1       6.665   5.099  15.644  0.00  0.00    +0.000 C 
ATOM      8  C   UNL     1       7.627   4.606  16.693  0.00  0.00    +0.000 C 
ATOM      9  C   UNL     1       5.498   5.687  15.983  0.00  0.00    +0.000 C 
BRANCH   7  10
ATOM     10  C   UNL     1       7.092   4.870  14.197  0.00  0.00    +0.000 C 
BRANCH  10  11
ATOM     11  C   UNL     1       5.976   4.400  13.252  0.00  0.00    +0.000 C 
BRANCH  11  15
ATOM     12  C   UNL     1       5.934   1.243  10.968  0.00  0.00    +0.000 C 
ATOM     13  C   UNL     1       5.492   2.508  11.641  0.00  0.00    +0.000 C 
ATOM     14  C   UNL     1       4.176   3.093  11.209  0.00  0.00    +0.000 C 
ATOM     15  C   UNL     1       6.262   3.080  12.594  0.00  0.00    +0.000 C 
ENDBRANCH  11  15
ENDBRANCH  10  11
ENDBRANCH   7  10
ENDBRANCH   6   9
ENDBRANCH   1   6
BRANCH   3  16
ATOM     16  C   UNL     1       2.807   1.788  19.098  0.00  0.00    +0.000 C 
BRANCH  16  17
ATOM     17  C   UNL     1       1.541   2.235  19.813  0.00  0.00    +0.000 C 
BRANCH  17  18
ATOM     18  P   UNL     1       1.856   3.054  21.358  0.00  0.00    +0.000 P 
ATOM     19  O   UNL     1       1.921   4.542  21.328  0.00  0.00    +0.000 OA
BRANCH  18  20
ATOM     20  O   UNL     1       0.749   2.467  22.357  0.00  0.00    +0.000 OA
ATOM     21  H   UNL     1       0.976   2.494  23.306  0.00  0.00    +0.000 HD
ENDBRANCH  18  20
BRANCH  18  22
ATOM     22  O   UNL     1       3.173   2.350  21.932  0.00  0.00    +0.000 OA
ATOM     23  H   UNL     1       3.236   1.427  21.614  0.00  0.00    +0.000 HD
ENDBRANCH  18  22
ENDBRANCH  17  18
ENDBRANCH  16  17
ENDBRANCH   3  16
TORSDOF 10
ENDMDL
MODEL 4
REMARK VINA RESULT:      -6.8      3.899      6.215
REMARK  Name = 
REMARK  13 active torsions:
REMARK  status: ('A' for Active; 'I' for Inactive)
REMARK    1  A    between atoms: C_1  and  C_2
REMARK    2  A    between atoms: C_2  and  C_3
REMARK    3  A    between atoms: C_4  and  C_5
REMARK    4  A    between atoms: C_5  and  C_6
REMARK    5  A    between atoms: C_6  and  C_7
REMARK    6  A    between atoms: C_7  and  C_8
REMARK    7  A    between atoms: C_9  and  C_10
REMARK    8  A    between atoms: C_10  and  N_11
REMARK    9  A    between atoms: C_13  and  C_14
REMARK   10  A    between atoms: C_14  and  C_15
REMARK   11  A    between atoms: C_15  and  P_16
REMARK   12  A    between atoms: P_16  and  O_18
REMARK   13  A    between atoms: P_16  and  O_19
REMARK                            x       y       z     vdW  Elec       q    Type
REMARK                         _______ _______ _______ _____ _____    ______ ____
ROOT
ATOM      1  N   UNL     1       5.370   4.586  17.143  0.00  0.00    +0.000 N 
ATOM      2  C   UNL     1       4.615   5.048  18.181  0.00  0.00    +0.000 A 
ATOM      3  C   UNL     1       3.371   4.505  17.953  0.00  0.00    +0.000 A 
ATOM      4  N   UNL     1       3.415   3.751  16.808  0.00  0.00    +0.000 NA
ATOM      5  N   UNL     1       4.648   3.801  16.324  0.00  0.00    +0.000 NA
ENDROOT
BRANCH   1   6
ATOM      6  C   UNL     1       6.777   4.833  16.882  0.00  0.00    +0.000 C 
BRANCH   6   9
ATOM      7  C   UNL     1       7.657   7.063  17.784  0.00  0.00    +0.000 C 
ATOM      8  C   UNL     1       8.133   6.461  19.081  0.00  0.00    +0.000 C 
ATOM      9  C   UNL     1       7.073   6.305  16.832  0.00  0.00    +0.000 C 
BRANCH   7  10
ATOM     10  C   UNL     1       7.901   8.560  17.623  0.00  0.00    +0.000 C 
BRANCH  10  11
ATOM     11  C   UNL     1       8.752   9.207  18.726  0.00  0.00    +0.000 C 
BRANCH  11  15
ATOM     12  C   UNL     1      10.197  12.824  18.827  0.00  0.00    +0.000 C 
ATOM     13  C   UNL     1       9.626  11.515  19.286  0.00  0.00    +0.000 C 
ATOM     14  C   UNL     1       9.521  11.294  20.769  0.00  0.00    +0.000 C 
ATOM     15  C   UNL     1       9.231  10.589  18.384  0.00  0.00    +0.000 C 
ENDBRANCH  11  15
ENDBRANCH  10  11
ENDBRANCH   7  10
ENDBRANCH   6   9
ENDBRANCH   1   6
BRANCH   3  16
ATOM     16  C   UNL     1       2.122   4.606  18.747  0.00  0.00    +0.000 C 
BRANCH  16  17
ATOM     17  C   UNL     1       2.412   4.569  20.240  0.00  0.00    +0.000 C 
BRANCH  17  18
ATOM     18  P   UNL     1       2.436   2.925  20.912  0.00  0.00    +0.000 P 
ATOM     19  O   UNL     1       1.929   2.762  22.304  0.00  0.00    +0.000 OA
BRANCH  18  20
ATOM     20  O   UNL     1       1.664   2.034  19.826  0.00  0.00    +0.000 OA
ATOM     21  H   UNL     1       1.796   2.292  18.894  0.00  0.00    +0.000 HD
ENDBRANCH  18  20
BRANCH  18  22
ATOM     22  O   UNL     1       3.937   2.418  20.696  0.00  0.00    +0.000 OA
ATOM     23  H   UNL     1       4.563   3.169  20.727  0.00  0.00    +0.000 HD
ENDBRANCH  18  22
ENDBRANCH  17  18
ENDBRANCH  16  17
ENDBRANCH   3  16
TORSDOF 10
ENDMDL
MODEL 5
REMARK VINA RESULT:      -6.8      1.941      2.908
REMARK  Name = 
REMARK  13 active torsions:
REMARK  status: ('A' for Active; 'I' for Inactive)
REMARK    1  A    between atoms: C_1  and  C_2
REMARK    2  A    between atoms: C_2  and  C_3
REMARK    3  A    between atoms: C_4  and  C_5
REMARK    4  A    between atoms: C_5  and  C_6
REMARK    5  A    between atoms: C_6  and  C_7
REMARK    6  A    between atoms: C_7  and  C_8
REMARK    7  A    between atoms: C_9  and  C_10
REMARK    8  A    between atoms: C_10  and  N_11
REMARK    9  A    between atoms: C_13  and  C_14
REMARK   10  A    between atoms: C_14  and  C_15
REMARK   11  A    between atoms: C_15  and  P_16
REMARK   12  A    between atoms: P_16  and  O_18
REMARK   13  A    between atoms: P_16  and  O_19
REMARK                            x       y       z     vdW  Elec       q    Type
REMARK                         _______ _______ _______ _____ _____    ______ ____
ROOT
ATOM      1  N   UNL     1       5.832   5.150  16.612  0.00  0.00    +0.000 N 
ATOM      2  C   UNL     1       4.507   4.831  16.556  0.00  0.00    +0.000 A 
ATOM      3  C   UNL     1       4.043   5.125  17.818  0.00  0.00    +0.000 A 
ATOM      4  N   UNL     1       5.082   5.597  18.578  0.00  0.00    +0.000 NA
ATOM      5  N   UNL     1       6.173   5.615  17.826  0.00  0.00    +0.000 NA
ENDROOT
BRANCH   1   6
ATOM      6  C   UNL     1       6.819   5.054  15.551  0.00  0.00    +0.000 C 
BRANCH   6   9
ATOM      7  C   UNL     1       6.695   4.167  13.151  0.00  0.00    +0.000 C 
ATOM      8  C   UNL     1       7.658   5.197  12.618  0.00  0.00    +0.000 C 
ATOM      9  C   UNL     1       6.359   4.132  14.458  0.00  0.00    +0.000 C 
BRANCH   7  10
ATOM     10  C   UNL     1       6.155   3.175  12.125  0.00  0.00    +0.000 C 
BRANCH  10  11
ATOM     11  C   UNL     1       4.625   3.138  11.993  0.00  0.00    +0.000 C 
BRANCH  11  15
ATOM     12  C   UNL     1       2.596   4.775   9.096  0.00  0.00    +0.000 C 
ATOM     13  C   UNL     1       3.141   3.736  10.032  0.00  0.00    +0.000 C 
ATOM     14  C   UNL     1       2.587   2.344   9.911  0.00  0.00    +0.000 C 
ATOM     15  C   UNL     1       4.090   4.063  10.937  0.00  0.00    +0.000 C 
ENDBRANCH  11  15
ENDBRANCH  10  11
ENDBRANCH   7  10
ENDBRANCH   6   9
ENDBRANCH   1   6
BRANCH   3  16
ATOM     16  C   UNL     1       2.674   5.028  18.381  0.00  0.00    +0.000 C 
BRANCH  16  17
ATOM     17  C   UNL     1       1.888   3.898  17.732  0.00  0.00    +0.000 C 
BRANCH  17  18
ATOM     18  P   UNL     1       1.686   2.484  18.788  0.00  0.00    +0.000 P 
ATOM     19  O   UNL     1       1.781   2.723  20.255  0.00  0.00    +0.000 OA
BRANCH  18  20
ATOM     20  O   UNL     1       0.301   1.827  18.319  0.00  0.00    +0.000 OA
ATOM     21  H   UNL     1       0.171   1.752  17.356  0.00  0.00    +0.000 HD
ENDBRANCH  18  20
BRANCH  18  22
ATOM     22  O   UNL     1       2.726   1.405  18.228  0.00  0.00    +0.000 OA
ATOM     23  H   UNL     1       2.262   0.708  17.723  0.00  0.00    +0.000 HD
ENDBRANCH  18  22
ENDBRANCH  17  18
ENDBRANCH  16  17
ENDBRANCH   3  16
TORSDOF 10
ENDMDL
MODEL 6
REMARK VINA RESULT:      -6.8      0.931      1.051
REMARK  Name = 
REMARK  13 active torsions:
REMARK  status: ('A' for Active; 'I' for Inactive)
REMARK    1  A    between atoms: C_1  and  C_2
REMARK    2  A    between atoms: C_2  and  C_3
REMARK    3  A    between atoms: C_4  and  C_5
REMARK    4  A    between atoms: C_5  and  C_6
REMARK    5  A    between atoms: C_6  and  C_7
REMARK    6  A    between atoms: C_7  and  C_8
REMARK    7  A    between atoms: C_9  and  C_10
REMARK    8  A    between atoms: C_10  and  N_11
REMARK    9  A    between atoms: C_13  and  C_14
REMARK   10  A    between atoms: C_14  and  C_15
REMARK   11  A    between atoms: C_15  and  P_16
REMARK   12  A    between atoms: P_16  and  O_18
REMARK   13  A    between atoms: P_16  and  O_19
REMARK                            x       y       z     vdW  Elec       q    Type
REMARK                         _______ _______ _______ _____ _____    ______ ____
ROOT
ATOM      1  N   UNL     1       4.173   4.935  17.718  0.00  0.00    +0.000 N 
ATOM      2  C   UNL     1       3.187   4.007  17.549  0.00  0.00    +0.000 A 
ATOM      3  C   UNL     1       3.335   3.168  18.629  0.00  0.00    +0.000 A 
ATOM      4  N   UNL     1       4.385   3.605  19.396  0.00  0.00    +0.000 NA
ATOM      5  N   UNL     1       4.886   4.694  18.831  0.00  0.00    +0.000 NA
ENDROOT
BRANCH   1   6
ATOM      6  C   UNL     1       4.477   6.078  16.875  0.00  0.00    +0.000 C 
BRANCH   6   9
ATOM      7  C   UNL     1       6.462   5.407  15.402  0.00  0.00    +0.000 C 
ATOM      8  C   UNL     1       7.458   5.513  16.528  0.00  0.00    +0.000 C 
ATOM      9  C   UNL     1       5.150   5.654  15.601  0.00  0.00    +0.000 C 
BRANCH   7  10
ATOM     10  C   UNL     1       7.035   4.986  14.052  0.00  0.00    +0.000 C 
BRANCH  10  11
ATOM     11  C   UNL     1       6.475   3.673  13.484  0.00  0.00    +0.000 C 
BRANCH  11  15
ATOM     12  C   UNL     1       3.663   3.222  10.825  0.00  0.00    +0.000 C 
ATOM     13  C   UNL     1       4.910   2.975  11.621  0.00  0.00    +0.000 C 
ATOM     14  C   UNL     1       5.670   1.710  11.335  0.00  0.00    +0.000 C 
ATOM     15  C   UNL     1       5.312   3.868  12.553  0.00  0.00    +0.000 C 
ENDBRANCH  11  15
ENDBRANCH  10  11
ENDBRANCH   7  10
ENDBRANCH   6   9
ENDBRANCH   1   6
BRANCH   3  16
ATOM     16  C   UNL     1       2.544   1.979  19.034  0.00  0.00    +0.000 C 
BRANCH  16  17
ATOM     17  C   UNL     1       1.378   2.372  19.929  0.00  0.00    +0.000 C 
BRANCH  17  18
ATOM     18  P   UNL     1       1.868   2.780  21.587  0.00  0.00    +0.000 P 
ATOM     19  O   UNL     1       0.948   2.361  22.681  0.00  0.00    +0.000 OA
BRANCH  18  20
ATOM     20  O   UNL     1       3.355   2.198  21.722  0.00  0.00    +0.000 OA
ATOM     21  H   UNL     1       4.068   2.861  21.770  0.00  0.00    +0.000 HD
ENDBRANCH  18  20
BRANCH  18  22
ATOM     22  O   UNL     1       2.170   4.351  21.547  0.00  0.00    +0.000 OA
ATOM     23  H   UNL     1       3.122   4.522  21.690  0.00  0.00    +0.000 HD
ENDBRANCH  18  22
ENDBRANCH  17  18
ENDBRANCH  16  17
ENDBRANCH   3  16
TORSDOF 10
ENDMDL
MODEL 7
REMARK VINA RESULT:      -6.7      1.934      2.868
REMARK  Name = 
REMARK  13 active torsions:
REMARK  status: ('A' for Active; 'I' for Inactive)
REMARK    1  A    between atoms: C_1  and  C_2
REMARK    2  A    between atoms: C_2  and  C_3
REMARK    3  A    between atoms: C_4  and  C_5
REMARK    4  A    between atoms: C_5  and  C_6
REMARK    5  A    between atoms: C_6  and  C_7
REMARK    6  A    between atoms: C_7  and  C_8
REMARK    7  A    between atoms: C_9  and  C_10
REMARK    8  A    between atoms: C_10  and  N_11
REMARK    9  A    between atoms: C_13  and  C_14
REMARK   10  A    between atoms: C_14  and  C_15
REMARK   11  A    between atoms: C_15  and  P_16
REMARK   12  A    between atoms: P_16  and  O_18
REMARK   13  A    between atoms: P_16  and  O_19
REMARK                            x       y       z     vdW  Elec       q    Type
REMARK                         _______ _______ _______ _____ _____    ______ ____
ROOT
ATOM      1  N   UNL     1       5.822   5.065  16.584  0.00  0.00    +0.000 N 
ATOM      2  C   UNL     1       5.697   4.453  17.797  0.00  0.00    +0.000 A 
ATOM      3  C   UNL     1       4.495   4.918  18.279  0.00  0.00    +0.000 A 
ATOM      4  N   UNL     1       3.948   5.779  17.363  0.00  0.00    +0.000 NA
ATOM      5  N   UNL     1       4.766   5.855  16.324  0.00  0.00    +0.000 NA
ENDROOT
BRANCH   1   6
ATOM      6  C   UNL     1       6.901   4.929  15.622  0.00  0.00    +0.000 C 
BRANCH   6   9
ATOM      7  C   UNL     1       6.855   4.224  13.160  0.00  0.00    +0.000 C 
ATOM      8  C   UNL     1       7.815   5.304  12.732  0.00  0.00    +0.000 C 
ATOM      9  C   UNL     1       6.485   4.085  14.451  0.00  0.00    +0.000 C 
BRANCH   7  10
ATOM     10  C   UNL     1       6.358   3.304  12.048  0.00  0.00    +0.000 C 
BRANCH  10  11
ATOM     11  C   UNL     1       4.832   3.163  11.949  0.00  0.00    +0.000 C 
BRANCH  11  15
ATOM     12  C   UNL     1       2.545   4.722   9.206  0.00  0.00    +0.000 C 
ATOM     13  C   UNL     1       3.157   3.713  10.133  0.00  0.00    +0.000 C 
ATOM     14  C   UNL     1       2.548   2.339  10.153  0.00  0.00    +0.000 C 
ATOM     15  C   UNL     1       4.212   4.051  10.907  0.00  0.00    +0.000 C 
ENDBRANCH  11  15
ENDBRANCH  10  11
ENDBRANCH   7  10
ENDBRANCH   6   9
ENDBRANCH   1   6
BRANCH   3  16
ATOM     16  C   UNL     1       3.781   4.598  19.540  0.00  0.00    +0.000 C 
BRANCH  16  17
ATOM     17  C   UNL     1       3.190   3.196  19.499  0.00  0.00    +0.000 C 
BRANCH  17  18
ATOM     18  P   UNL     1       1.460   3.172  19.101  0.00  0.00    +0.000 P 
ATOM     19  O   UNL     1       0.528   3.727  20.122  0.00  0.00    +0.000 OA
BRANCH  18  20
ATOM     20  O   UNL     1       1.365   3.889  17.670  0.00  0.00    +0.000 OA
ATOM     21  H   UNL     1       1.945   3.527  16.974  0.00  0.00    +0.000 HD
ENDBRANCH  18  20
BRANCH  18  22
ATOM     22  O   UNL     1       1.157   1.655  18.689  0.00  0.00    +0.000 OA
ATOM     23  H   UNL     1       1.463   1.478  17.778  0.00  0.00    +0.000 HD
ENDBRANCH  18  22
ENDBRANCH  17  18
ENDBRANCH  16  17
ENDBRANCH   3  16
TORSDOF 10
ENDMDL
MODEL 8
REMARK VINA RESULT:      -6.7      1.162      1.576
REMARK  Name = 
REMARK  13 active torsions:
REMARK  status: ('A' for Active; 'I' for Inactive)
REMARK    1  A    between atoms: C_1  and  C_2
REMARK    2  A    between atoms: C_2  and  C_3
REMARK    3  A    between atoms: C_4  and  C_5
REMARK    4  A    between atoms: C_5  and  C_6
REMARK    5  A    between atoms: C_6  and  C_7
REMARK    6  A    between atoms: C_7  and  C_8
REMARK    7  A    between atoms: C_9  and  C_10
REMARK    8  A    between atoms: C_10  and  N_11
REMARK    9  A    between atoms: C_13  and  C_14
REMARK   10  A    between atoms: C_14  and  C_15
REMARK   11  A    between atoms: C_15  and  P_16
REMARK   12  A    between atoms: P_16  and  O_18
REMARK   13  A    between atoms: P_16  and  O_19
REMARK                            x       y       z     vdW  Elec       q    Type
REMARK                         _______ _______ _______ _____ _____    ______ ____
ROOT
ATOM      1  N   UNL     1       4.386   5.038  17.565  0.00  0.00    +0.000 N 
ATOM      2  C   UNL     1       4.692   4.666  18.841  0.00  0.00    +0.000 A 
ATOM      3  C   UNL     1       4.062   3.451  18.990  0.00  0.00    +0.000 A 
ATOM      4  N   UNL     1       3.409   3.139  17.825  0.00  0.00    +0.000 NA
ATOM      5  N   UNL     1       3.622   4.116  16.956  0.00  0.00    +0.000 NA
ENDROOT
BRANCH   1   6
ATOM      6  C   UNL     1       4.801   6.239  16.861  0.00  0.00    +0.000 C 
BRANCH   6   9
ATOM      7  C   UNL     1       6.549   5.221  15.289  0.00  0.00    +0.000 C 
ATOM      8  C   UNL     1       7.371   4.650  16.415  0.00  0.00    +0.000 C 
ATOM      9  C   UNL     1       5.411   5.908  15.529  0.00  0.00    +0.000 C 
BRANCH   7  10
ATOM     10  C   UNL     1       7.077   4.951  13.882  0.00  0.00    +0.000 C 
BRANCH  10  11
ATOM     11  C   UNL     1       6.587   3.645  13.239  0.00  0.00    +0.000 C 
BRANCH  11  15
ATOM     12  C   UNL     1       3.570   3.123  10.828  0.00  0.00    +0.000 C 
ATOM     13  C   UNL     1       4.877   2.897  11.529  0.00  0.00    +0.000 C 
ATOM     14  C   UNL     1       5.613   1.623  11.219  0.00  0.00    +0.000 C 
ATOM     15  C   UNL     1       5.352   3.815  12.399  0.00  0.00    +0.000 C 
ENDBRANCH  11  15
ENDBRANCH  10  11
ENDBRANCH   7  10
ENDBRANCH   6   9
ENDBRANCH   1   6
BRANCH   3  16
ATOM     16  C   UNL     1       4.041   2.519  20.145  0.00  0.00    +0.000 C 
BRANCH  16  17
ATOM     17  C   UNL     1       2.635   2.007  20.416  0.00  0.00    +0.000 C 
BRANCH  17  18
ATOM     18  P   UNL     1       1.586   3.207  21.199  0.00  0.00    +0.000 P 
ATOM     19  O   UNL     1       2.209   4.513  21.554  0.00  0.00    +0.000 OA
BRANCH  18  20
ATOM     20  O   UNL     1       0.318   3.329  20.227  0.00  0.00    +0.000 OA
ATOM     21  H   UNL     1       0.431   3.909  19.451  0.00  0.00    +0.000 HD
ENDBRANCH  18  20
BRANCH  18  22
ATOM     22  O   UNL     1       0.934   2.432  22.437  0.00  0.00    +0.000 OA
ATOM     23  H   UNL     1       1.129   2.896  23.276  0.00  0.00    +0.000 HD
ENDBRANCH  18  22
ENDBRANCH  17  18
ENDBRANCH  16  17
ENDBRANCH   3  16
TORSDOF 10
ENDMDL
MODEL 9
REMARK VINA RESULT:      -6.7      2.207      2.615
REMARK  Name = 
REMARK  13 active torsions:
REMARK  status: ('A' for Active; 'I' for Inactive)
REMARK    1  A    between atoms: C_1  and  C_2
REMARK    2  A    between atoms: C_2  and  C_3
REMARK    3  A    between atoms: C_4  and  C_5
REMARK    4  A    between atoms: C_5  and  C_6
REMARK    5  A    between atoms: C_6  and  C_7
REMARK    6  A    between atoms: C_7  and  C_8
REMARK    7  A    between atoms: C_9  and  C_10
REMARK    8  A    between atoms: C_10  and  N_11
REMARK    9  A    between atoms: C_13  and  C_14
REMARK   10  A    between atoms: C_14  and  C_15
REMARK   11  A    between atoms: C_15  and  P_16
REMARK   12  A    between atoms: P_16  and  O_18
REMARK   13  A    between atoms: P_16  and  O_19
REMARK                            x       y       z     vdW  Elec       q    Type
REMARK                         _______ _______ _______ _____ _____    ______ ____
ROOT
ATOM      1  N   UNL     1       5.233   5.145  18.889  0.00  0.00    +0.000 N 
ATOM      2  C   UNL     1       3.996   5.308  19.441  0.00  0.00    +0.000 A 
ATOM      3  C   UNL     1       3.725   4.085  20.012  0.00  0.00    +0.000 A 
ATOM      4  N   UNL     1       4.783   3.241  19.787  0.00  0.00    +0.000 NA
ATOM      5  N   UNL     1       5.705   3.905  19.105  0.00  0.00    +0.000 NA
ENDROOT
BRANCH   1   6
ATOM      6  C   UNL     1       6.025   6.124  18.167  0.00  0.00    +0.000 C 
BRANCH   6   9
ATOM      7  C   UNL     1       6.469   5.342  15.768  0.00  0.00    +0.000 C 
ATOM      8  C   UNL     1       5.163   5.883  15.247  0.00  0.00    +0.000 C 
ATOM      9  C   UNL     1       6.818   5.480  17.065  0.00  0.00    +0.000 C 
BRANCH   7  10
ATOM     10  C   UNL     1       7.360   4.658  14.735  0.00  0.00    +0.000 C 
BRANCH  10  11
ATOM     11  C   UNL     1       6.859   4.739  13.285  0.00  0.00    +0.000 C 
BRANCH  11  15
ATOM     12  C   UNL     1       5.835   1.627  11.175  0.00  0.00    +0.000 C 
ATOM     13  C   UNL     1       5.736   2.918  11.932  0.00  0.00    +0.000 C 
ATOM     14  C   UNL     1       4.408   3.623  11.919  0.00  0.00    +0.000 C 
ATOM     15  C   UNL     1       6.810   3.407  12.591  0.00  0.00    +0.000 C 
ENDBRANCH  11  15
ENDBRANCH  10  11
ENDBRANCH   7  10
ENDBRANCH   6   9
ENDBRANCH   1   6
BRANCH   3  16
ATOM     16  C   UNL     1       2.547   3.633  20.793  0.00  0.00    +0.000 C 
BRANCH  16  17
ATOM     17  C   UNL     1       1.300   3.569  19.925  0.00  0.00    +0.000 C 
BRANCH  17  18
ATOM     18  P   UNL     1       1.534   2.655  18.421  0.00  0.00    +0.000 P 
ATOM     19  O   UNL     1       1.912   3.438  17.211  0.00  0.00    +0.000 OA
BRANCH  18  20
ATOM     20  O   UNL     1       2.579   1.503  18.808  0.00  0.00    +0.000 OA
ATOM     21  H   UNL     1       2.927   1.533  19.719  0.00  0.00    +0.000 HD
ENDBRANCH  18  20
BRANCH  18  22
ATOM     22  O   UNL     1       0.196   1.793  18.255  0.00  0.00    +0.000 OA
ATOM     23  H   UNL     1       0.358   0.858  18.489  0.00  0.00    +0.000 HD
ENDBRANCH  18  22
ENDBRANCH  17  18
ENDBRANCH  16  17
ENDBRANCH   3  16
TORSDOF 10
ENDMDL
