MODEL 1
REMARK VINA RESULT:      -7.2      0.000      0.000
REMARK  Name = 
REMARK  4 active torsions:
REMARK  status: ('A' for Active; 'I' for Inactive)
REMARK    1  A    between atoms: C_1  and  O_2
REMARK    2  A    between atoms: O_2  and  C_3
REMARK    3  A    between atoms: C_6  and  C_7
REMARK    4  A    between atoms: C_7  and  N_8
REMARK                            x       y       z     vdW  Elec       q    Type
REMARK                         _______ _______ _______ _____ _____    ______ ____
ROOT
ATOM      1  N   UNL     1       3.492   3.693  17.803  0.00  0.00    +0.000 N 
ATOM      2  C   UNL     1       3.253   2.338  18.068  0.00  0.00    +0.000 A 
ATOM      3  O   UNL     1       3.894   1.383  17.647  0.00  0.00    +0.000 OA
ATOM      4  S   UNL     1       1.894   2.145  19.172  0.00  0.00    +0.000 S 
ATOM      5  C   UNL     1       1.897   3.879  19.510  0.00  0.00    +0.000 A 
ATOM      6  C   UNL     1       1.132   4.501  20.491  0.00  0.00    +0.000 A 
ATOM      7  C   UNL     1       1.339   5.855  20.721  0.00  0.00    +0.000 A 
ATOM      8  C   UNL     1       2.288   6.551  19.956  0.00  0.00    +0.000 A 
ATOM      9  C   UNL     1       3.020   5.916  18.940  0.00  0.00    +0.000 A 
ATOM     10  C   UNL     1       2.828   4.562  18.715  0.00  0.00    +0.000 A 
ENDROOT
BRANCH   1  11
ATOM     11  C   UNL     1       4.599   3.963  16.905  0.00  0.00    +0.000 C 
BRANCH  11  15
ATOM     12  C   UNL     1       7.587   6.855  18.130  0.00  0.00    +0.000 A 
ATOM     13  C   UNL     1       6.602   7.182  17.195  0.00  0.00    +0.000 A 
ATOM     14  C   UNL     1       5.668   6.234  16.774  0.00  0.00    +0.000 A 
ATOM     15  C   UNL     1       5.718   4.919  17.246  0.00  0.00    +0.000 A 
ATOM     16  C   UNL     1       6.721   4.588  18.178  0.00  0.00    +0.000 A 
ATOM     17  C   UNL     1       7.644   5.558  18.625  0.00  0.00    +0.000 A 
BRANCH  12  19
ATOM     18  C   UNL     1       8.134   9.161  17.886  0.00  0.00    +0.000 C 
ATOM     19  O   UNL     1       8.427   7.889  18.442  0.00  0.00    +0.000 OA
ENDBRANCH  12  19
ENDBRANCH  11  15
ENDBRANCH   1  11
TORSDOF 3
ENDMDL
MODEL 2
REMARK VINA RESULT:      -7.0      2.242      2.971
REMARK  Name = 
REMARK  4 active torsions:
REMARK  status: ('A' for Active; 'I' for Inactive)
REMARK    1  A    between atoms: C_1  and  O_2
REMARK    2  A    between atoms: O_2  and  C_3
REMARK    3  A    between atoms: C_6  and  C_7
REMARK    4  A    between atoms: C_7  and  N_8
REMARK                            x       y       z     vdW  Elec       q    Type
REMARK                         _______ _______ _______ _____ _____    ______ ____
ROOT
ATOM      1  N   UNL     1       3.328   4.018  18.840  0.00  0.00    +0.000 N 
ATOM      2  C   UNL     1       3.233   3.393  20.091  0.00  0.00    +0.000 A 
ATOM      3  O   UNL     1       3.774   2.348  20.432  0.00  0.00    +0.000 OA
ATOM      4  S   UNL     1       2.247   4.346  21.196  0.00  0.00    +0.000 S 
ATOM      5  C   UNL     1       2.265   5.707  20.070  0.00  0.00    +0.000 A 
ATOM      6  C   UNL     1       1.778   6.980  20.350  0.00  0.00    +0.000 A 
ATOM      7  C   UNL     1       1.980   7.978  19.406  0.00  0.00    +0.000 A 
ATOM      8  C   UNL     1       2.645   7.677  18.208  0.00  0.00    +0.000 A 
ATOM      9  C   UNL     1       3.092   6.377  17.924  0.00  0.00    +0.000 A 
ATOM     10  C   UNL     1       2.905   5.378  18.867  0.00  0.00    +0.000 A 
ENDROOT
BRANCH   1  11
ATOM     11  C   UNL     1       4.126   3.316  17.854  0.00  0.00    +0.000 C 
BRANCH  11  15
ATOM     12  C   UNL     1       6.974   5.030  15.072  0.00  0.00    +0.000 A 
ATOM     13  C   UNL     1       7.261   4.932  16.436  0.00  0.00    +0.000 A 
ATOM     14  C   UNL     1       6.324   4.418  17.333  0.00  0.00    +0.000 A 
ATOM     15  C   UNL     1       5.056   4.023  16.896  0.00  0.00    +0.000 A 
ATOM     16  C   UNL     1       4.764   4.135  15.523  0.00  0.00    +0.000 A 
ATOM     17  C   UNL     1       5.726   4.627  14.615  0.00  0.00    +0.000 A 
BRANCH  12  19
ATOM     18  C   UNL     1       7.988   5.279  12.930  0.00  0.00    +0.000 C 
ATOM     19  O   UNL     1       7.992   5.553  14.322  0.00  0.00    +0.000 OA
ENDBRANCH  12  19
ENDBRANCH  11  15
ENDBRANCH   1  11
TORSDOF 3
ENDMDL
MODEL 3
REMARK VINA RESULT:      -6.9      2.181      2.819
REMARK  Name = 
REMARK  4 active torsions:
REMARK  status: ('A' for Active; 'I' for Inactive)
REMARK    1  A    between atoms: C_1  and  O_2
REMARK    2  A    between atoms: O_2  and  C_3
REMARK    3  A    between atoms: C_6  and  C_7
REMARK    4  A    between atoms: C_7  and  N_8
REMARK                            x       y       z     vdW  Elec       q    Type
REMARK                         _______ _______ _______ _____ _____    ______ ____
ROOT
ATOM      1  N   UNL     1       3.123   4.069  18.701  0.00  0.00    +0.000 N 
ATOM      2  C   UNL     1       3.060   3.497  19.979  0.00  0.00    +0.000 A 
ATOM      3  O   UNL     1       3.541   2.427  20.329  0.00  0.00    +0.000 OA
ATOM      4  S   UNL     1       2.218   4.563  21.101  0.00  0.00    +0.000 S 
ATOM      5  C   UNL     1       2.268   5.877  19.923  0.00  0.00    +0.000 A 
ATOM      6  C   UNL     1       1.895   7.193  20.179  0.00  0.00    +0.000 A 
ATOM      7  C   UNL     1       2.113   8.139  19.186  0.00  0.00    +0.000 A 
ATOM      8  C   UNL     1       2.679   7.745  17.964  0.00  0.00    +0.000 A 
ATOM      9  C   UNL     1       3.008   6.404  17.706  0.00  0.00    +0.000 A 
ATOM     10  C   UNL     1       2.806   5.457  18.698  0.00  0.00    +0.000 A 
ENDROOT
BRANCH   1  11
ATOM     11  C   UNL     1       3.804   3.272  17.699  0.00  0.00    +0.000 C 
BRANCH  11  15
ATOM     12  C   UNL     1       7.013   5.068  15.403  0.00  0.00    +0.000 A 
ATOM     13  C   UNL     1       5.866   4.568  14.780  0.00  0.00    +0.000 A 
ATOM     14  C   UNL     1       4.855   3.954  15.520  0.00  0.00    +0.000 A 
ATOM     15  C   UNL     1       4.981   3.785  16.902  0.00  0.00    +0.000 A 
ATOM     16  C   UNL     1       6.143   4.277  17.526  0.00  0.00    +0.000 A 
ATOM     17  C   UNL     1       7.149   4.925  16.778  0.00  0.00    +0.000 A 
BRANCH  12  19
ATOM     18  C   UNL     1       7.866   5.238  13.184  0.00  0.00    +0.000 C 
ATOM     19  O   UNL     1       7.911   5.641  14.545  0.00  0.00    +0.000 OA
ENDBRANCH  12  19
ENDBRANCH  11  15
ENDBRANCH   1  11
TORSDOF 3
ENDMDL
MODEL 4
REMARK VINA RESULT:      -6.7      2.712      3.979
REMARK  Name = 
REMARK  4 active torsions:
REMARK  status: ('A' for Active; 'I' for Inactive)
REMARK    1  A    between atoms: C_1  and  O_2
REMARK    2  A    between atoms: O_2  and  C_3
REMARK    3  A    between atoms: C_6  and  C_7
REMARK    4  A    between atoms: C_7  and  N_8
REMARK                            x       y       z     vdW  Elec       q    Type
REMARK                         _______ _______ _______ _____ _____    ______ ____
ROOT
ATOM      1  N   UNL     1       4.472   5.168  19.029  0.00  0.00    +0.000 N 
ATOM      2  C   UNL     1       3.975   6.356  18.476  0.00  0.00    +0.000 A 
ATOM      3  O   UNL     1       4.521   7.059  17.634  0.00  0.00    +0.000 OA
ATOM      4  S   UNL     1       2.374   6.723  19.112  0.00  0.00    +0.000 S 
ATOM      5  C   UNL     1       2.274   5.116  19.840  0.00  0.00    +0.000 A 
ATOM      6  C   UNL     1       1.135   4.580  20.433  0.00  0.00    +0.000 A 
ATOM      7  C   UNL     1       1.178   3.255  20.847  0.00  0.00    +0.000 A 
ATOM      8  C   UNL     1       2.355   2.510  20.673  0.00  0.00    +0.000 A 
ATOM      9  C   UNL     1       3.508   3.082  20.112  0.00  0.00    +0.000 A 
ATOM     10  C   UNL     1       3.469   4.400  19.685  0.00  0.00    +0.000 A 
ENDROOT
BRANCH   1  11
ATOM     11  C   UNL     1       5.788   4.772  18.566  0.00  0.00    +0.000 C 
BRANCH  11  15
ATOM     12  C   UNL     1       6.462   4.265  14.313  0.00  0.00    +0.000 A 
ATOM     13  C   UNL     1       5.339   3.719  14.940  0.00  0.00    +0.000 A 
ATOM     14  C   UNL     1       5.148   3.850  16.316  0.00  0.00    +0.000 A 
ATOM     15  C   UNL     1       6.098   4.498  17.112  0.00  0.00    +0.000 A 
ATOM     16  C   UNL     1       7.236   5.035  16.481  0.00  0.00    +0.000 A 
ATOM     17  C   UNL     1       7.409   4.927  15.084  0.00  0.00    +0.000 A 
BRANCH  12  19
ATOM     18  C   UNL     1       5.454   3.299  12.383  0.00  0.00    +0.000 C 
ATOM     19  O   UNL     1       6.507   4.054  12.962  0.00  0.00    +0.000 OA
ENDBRANCH  12  19
ENDBRANCH  11  15
ENDBRANCH   1  11
TORSDOF 3
ENDMDL
MODEL 5
REMARK VINA RESULT:      -6.7      3.562      5.547
REMARK  Name = 
REMARK  4 active torsions:
REMARK  status: ('A' for Active; 'I' for Inactive)
REMARK    1  A    between atoms: C_1  and  O_2
REMARK    2  A    between atoms: O_2  and  C_3
REMARK    3  A    between atoms: C_6  and  C_7
REMARK    4  A    between atoms: C_7  and  N_8
REMARK                            x       y       z     vdW  Elec       q    Type
REMARK                         _______ _______ _______ _____ _____    ______ ____
ROOT
ATOM      1  N   UNL     1       3.050   5.745  18.395  0.00  0.00    +0.000 N 
ATOM      2  C   UNL     1       3.907   5.261  17.396  0.00  0.00    +0.000 A 
ATOM      3  O   UNL     1       4.786   5.887  16.817  0.00  0.00    +0.000 OA
ATOM      4  S   UNL     1       3.606   3.554  17.084  0.00  0.00    +0.000 S 
ATOM      5  C   UNL     1       2.582   3.452  18.520  0.00  0.00    +0.000 A 
ATOM      6  C   UNL     1       2.066   2.273  19.049  0.00  0.00    +0.000 A 
ATOM      7  C   UNL     1       1.384   2.343  20.256  0.00  0.00    +0.000 A 
ATOM      8  C   UNL     1       1.222   3.583  20.892  0.00  0.00    +0.000 A 
ATOM      9  C   UNL     1       1.712   4.769  20.321  0.00  0.00    +0.000 A 
ATOM     10  C   UNL     1       2.406   4.705  19.123  0.00  0.00    +0.000 A 
ENDROOT
BRANCH   1  11
ATOM     11  C   UNL     1       3.220   7.145  18.732  0.00  0.00    +0.000 C 
BRANCH  11  15
ATOM     12  C   UNL     1       0.122  10.092  19.448  0.00  0.00    +0.000 A 
ATOM     13  C   UNL     1       0.628   9.304  20.486  0.00  0.00    +0.000 A 
ATOM     14  C   UNL     1       1.595   8.328  20.242  0.00  0.00    +0.000 A 
ATOM     15  C   UNL     1       2.056   8.085  18.944  0.00  0.00    +0.000 A 
ATOM     16  C   UNL     1       1.535   8.870  17.898  0.00  0.00    +0.000 A 
ATOM     17  C   UNL     1       0.579   9.877  18.154  0.00  0.00    +0.000 A 
BRANCH  12  19
ATOM     18  C   UNL     1      -0.831  11.377  21.214  0.00  0.00    +0.000 C 
ATOM     19  O   UNL     1      -0.819  11.003  19.845  0.00  0.00    +0.000 OA
ENDBRANCH  12  19
ENDBRANCH  11  15
ENDBRANCH   1  11
TORSDOF 3
ENDMDL
MODEL 6
REMARK VINA RESULT:      -6.7      3.163      5.470
REMARK  Name = 
REMARK  4 active torsions:
REMARK  status: ('A' for Active; 'I' for Inactive)
REMARK    1  A    between atoms: C_1  and  O_2
REMARK    2  A    between atoms: O_2  and  C_3
REMARK    3  A    between atoms: C_6  and  C_7
REMARK    4  A    between atoms: C_7  and  N_8
REMARK                            x       y       z     vdW  Elec       q    Type
REMARK                         _______ _______ _______ _____ _____    ______ ____
ROOT
ATOM      1  N   UNL     1       3.839   6.008  17.506  0.00  0.00    +0.000 N 
ATOM      2  C   UNL     1       5.211   5.900  17.770  0.00  0.00    +0.000 A 
ATOM      3  O   UNL     1       6.002   6.821  17.932  0.00  0.00    +0.000 OA
ATOM      4  S   UNL     1       5.692   4.211  17.906  0.00  0.00    +0.000 S 
ATOM      5  C   UNL     1       3.999   3.710  17.939  0.00  0.00    +0.000 A 
ATOM      6  C   UNL     1       3.554   2.419  18.204  0.00  0.00    +0.000 A 
ATOM      7  C   UNL     1       2.186   2.210  18.321  0.00  0.00    +0.000 A 
ATOM      8  C   UNL     1       1.303   3.288  18.154  0.00  0.00    +0.000 A 
ATOM      9  C   UNL     1       1.767   4.576  17.842  0.00  0.00    +0.000 A 
ATOM     10  C   UNL     1       3.132   4.794  17.738  0.00  0.00    +0.000 A 
ENDROOT
BRANCH   1  11
ATOM     11  C   UNL     1       3.337   7.363  17.380  0.00  0.00    +0.000 C 
BRANCH  11  15
ATOM     12  C   UNL     1       0.757   9.278  20.291  0.00  0.00    +0.000 A 
ATOM     13  C   UNL     1       1.521   8.156  20.625  0.00  0.00    +0.000 A 
ATOM     14  C   UNL     1       2.318   7.519  19.673  0.00  0.00    +0.000 A 
ATOM     15  C   UNL     1       2.342   7.962  18.347  0.00  0.00    +0.000 A 
ATOM     16  C   UNL     1       1.561   9.084  18.009  0.00  0.00    +0.000 A 
ATOM     17  C   UNL     1       0.780   9.744  18.983  0.00  0.00    +0.000 A 
BRANCH  12  19
ATOM     18  C   UNL     1       0.374   9.365  22.641  0.00  0.00    +0.000 C 
ATOM     19  O   UNL     1       0.030   9.789  21.331  0.00  0.00    +0.000 OA
ENDBRANCH  12  19
ENDBRANCH  11  15
ENDBRANCH   1  11
TORSDOF 3
ENDMDL
MODEL 7
REMARK VINA RESULT:      -6.7      3.496      5.618
REMARK  Name = 
REMARK  4 active torsions:
REMARK  status: ('A' for Active; 'I' for Inactive)
REMARK    1  A    between atoms: C_1  and  O_2
REMARK    2  A    between atoms: O_2  and  C_3
REMARK    3  A    between atoms: C_6  and  C_7
REMARK    4  A    between atoms: C_7  and  N_8
REMARK                            x       y       z     vdW  Elec       q    Type
REMARK                         _______ _______ _______ _____ _____    ______ ____
ROOT
ATOM      1  N   UNL     1       3.282   5.660  18.522  0.00  0.00    +0.000 N 
ATOM      2  C   UNL     1       4.417   5.432  17.733  0.00  0.00    +0.000 A 
ATOM      3  O   UNL     1       5.403   6.154  17.639  0.00  0.00    +0.000 OA
ATOM      4  S   UNL     1       4.296   3.891  16.888  0.00  0.00    +0.000 S 
ATOM      5  C   UNL     1       2.894   3.444  17.866  0.00  0.00    +0.000 A 
ATOM      6  C   UNL     1       2.293   2.189  17.870  0.00  0.00    +0.000 A 
ATOM      7  C   UNL     1       1.278   1.954  18.788  0.00  0.00    +0.000 A 
ATOM      8  C   UNL     1       0.882   2.978  19.662  0.00  0.00    +0.000 A 
ATOM      9  C   UNL     1       1.470   4.252  19.613  0.00  0.00    +0.000 A 
ATOM     10  C   UNL     1       2.493   4.490  18.708  0.00  0.00    +0.000 A 
ENDROOT
BRANCH   1  11
ATOM     11  C   UNL     1       3.284   6.905  19.266  0.00  0.00    +0.000 C 
BRANCH  11  15
ATOM     12  C   UNL     1       0.309  10.056  19.135  0.00  0.00    +0.000 A 
ATOM     13  C   UNL     1       0.567   9.349  20.313  0.00  0.00    +0.000 A 
ATOM     14  C   UNL     1       1.496   8.308  20.339  0.00  0.00    +0.000 A 
ATOM     15  C   UNL     1       2.166   7.917  19.176  0.00  0.00    +0.000 A 
ATOM     16  C   UNL     1       1.894   8.621  17.987  0.00  0.00    +0.000 A 
ATOM     17  C   UNL     1       0.977   9.693  17.972  0.00  0.00    +0.000 A 
BRANCH  12  19
ATOM     18  C   UNL     1      -1.860  10.879  18.589  0.00  0.00    +0.000 C 
ATOM     19  O   UNL     1      -0.625  11.046  19.270  0.00  0.00    +0.000 OA
ENDBRANCH  12  19
ENDBRANCH  11  15
ENDBRANCH   1  11
TORSDOF 3
ENDMDL
MODEL 8
REMARK VINA RESULT:      -6.7      3.165      5.601
REMARK  Name = 
REMARK  4 active torsions:
REMARK  status: ('A' for Active; 'I' for Inactive)
REMARK    1  A    between atoms: C_1  and  O_2
REMARK    2  A    between atoms: O_2  and  C_3
REMARK    3  A    between atoms: C_6  and  C_7
REMARK    4  A    between atoms: C_7  and  N_8
REMARK                            x       y       z     vdW  Elec       q    Type
REMARK                         _______ _______ _______ _____ _____    ______ ____
ROOT
ATOM      1  N   UNL     1       3.328   5.221  18.803  0.00  0.00    +0.000 N 
ATOM      2  C   UNL     1       2.386   4.203  18.601  0.00  0.00    +0.000 A 
ATOM      3  O   UNL     1       1.301   4.087  19.156  0.00  0.00    +0.000 OA
ATOM      4  S   UNL     1       2.934   3.079  17.360  0.00  0.00    +0.000 S 
ATOM      5  C   UNL     1       4.241   4.179  16.912  0.00  0.00    +0.000 A 
ATOM      6  C   UNL     1       5.074   4.021  15.809  0.00  0.00    +0.000 A 
ATOM      7  C   UNL     1       5.973   5.039  15.518  0.00  0.00    +0.000 A 
ATOM      8  C   UNL     1       6.027   6.174  16.341  0.00  0.00    +0.000 A 
ATOM      9  C   UNL     1       5.209   6.296  17.476  0.00  0.00    +0.000 A 
ATOM     10  C   UNL     1       4.300   5.291  17.765  0.00  0.00    +0.000 A 
ENDROOT
BRANCH   1  11
ATOM     11  C   UNL     1       2.971   6.206  19.805  0.00  0.00    +0.000 C 
BRANCH  11  15
ATOM     12  C   UNL     1       0.914   9.943  19.025  0.00  0.00    +0.000 A 
ATOM     13  C   UNL     1       0.891   9.352  20.291  0.00  0.00    +0.000 A 
ATOM     14  C   UNL     1       1.520   8.128  20.526  0.00  0.00    +0.000 A 
ATOM     15  C   UNL     1       2.157   7.440  19.489  0.00  0.00    +0.000 A 
ATOM     16  C   UNL     1       2.167   8.030  18.211  0.00  0.00    +0.000 A 
ATOM     17  C   UNL     1       1.557   9.283  17.985  0.00  0.00    +0.000 A 
BRANCH  12  19
ATOM     18  C   UNL     1      -1.060  11.195  19.485  0.00  0.00    +0.000 C 
ATOM     19  O   UNL     1       0.255  11.139  18.954  0.00  0.00    +0.000 OA
ENDBRANCH  12  19
ENDBRANCH  11  15
ENDBRANCH   1  11
TORSDOF 3
ENDMDL
MODEL 9
REMARK VINA RESULT:      -6.7      2.844      4.053
REMARK  Name = 
REMARK  4 active torsions:
REMARK  status: ('A' for Active; 'I' for Inactive)
REMARK    1  A    between atoms: C_1  and  O_2
REMARK    2  A    between atoms: O_2  and  C_3
REMARK    3  A    between atoms: C_6  and  C_7
REMARK    4  A    between atoms: C_7  and  N_8
REMARK                            x       y       z     vdW  Elec       q    Type
REMARK                         _______ _______ _______ _____ _____    ______ ____
ROOT
ATOM      1  N   UNL     1       4.427   5.194  18.935  0.00  0.00    +0.000 N 
ATOM      2  C   UNL     1       3.907   6.432  18.530  0.00  0.00    +0.000 A 
ATOM      3  O   UNL     1       4.391   7.196  17.705  0.00  0.00    +0.000 OA
ATOM      4  S   UNL     1       2.376   6.762  19.335  0.00  0.00    +0.000 S 
ATOM      5  C   UNL     1       2.308   5.101  19.931  0.00  0.00    +0.000 A 
ATOM      6  C   UNL     1       1.216   4.530  20.577  0.00  0.00    +0.000 A 
ATOM      7  C   UNL     1       1.268   3.174  20.872  0.00  0.00    +0.000 A 
ATOM      8  C   UNL     1       2.410   2.432  20.532  0.00  0.00    +0.000 A 
ATOM      9  C   UNL     1       3.520   3.035  19.920  0.00  0.00    +0.000 A 
ATOM     10  C   UNL     1       3.470   4.385  19.610  0.00  0.00    +0.000 A 
ENDROOT
BRANCH   1  11
ATOM     11  C   UNL     1       5.689   4.823  18.324  0.00  0.00    +0.000 C 
BRANCH  11  15
ATOM     12  C   UNL     1       6.455   4.289  14.091  0.00  0.00    +0.000 A 
ATOM     13  C   UNL     1       7.356   4.975  14.910  0.00  0.00    +0.000 A 
ATOM     14  C   UNL     1       7.084   5.179  16.264  0.00  0.00    +0.000 A 
ATOM     15  C   UNL     1       5.883   4.738  16.828  0.00  0.00    +0.000 A 
ATOM     16  C   UNL     1       4.971   4.061  15.997  0.00  0.00    +0.000 A 
ATOM     17  C   UNL     1       5.264   3.829  14.636  0.00  0.00    +0.000 A 
BRANCH  12  19
ATOM     18  C   UNL     1       6.258   3.153  12.006  0.00  0.00    +0.000 C 
ATOM     19  O   UNL     1       6.863   4.169  12.790  0.00  0.00    +0.000 OA
ENDBRANCH  12  19
ENDBRANCH  11  15
ENDBRANCH   1  11
TORSDOF 3
ENDMDL
