MODEL 1
REMARK VINA RESULT:      -7.7      0.000      0.000
REMARK  Name = 
REMARK  7 active torsions:
REMARK  status: ('A' for Active; 'I' for Inactive)
REMARK    1  A    between atoms: C_1  and  C_2
REMARK    2  A    between atoms: C_2  and  C_3
REMARK    3  A    between atoms: C_2  and  C_4
REMARK    4  A    between atoms: C_2  and  C_5
REMARK    5  A    between atoms: C_8  and  C_9
REMARK    6  A    between atoms: C_15  and  C_16
REMARK    7  A    between atoms: N_18  and  C_19
REMARK                            x       y       z     vdW  Elec       q    Type
REMARK                         _______ _______ _______ _____ _____    ______ ____
ROOT
ATOM      1  C   UNL     1      -0.030  12.347  21.474  0.00  0.00    +0.000 A 
ATOM      2  C   UNL     1      -0.878  12.406  22.522  0.00  0.00    +0.000 A 
ATOM      3  C   UNL     1      -1.247  11.189  23.227  0.00  0.00    +0.000 A 
ATOM      4  C   UNL     1      -0.846   9.983  22.784  0.00  0.00    +0.000 A 
ATOM      5  C   UNL     1      -0.018   9.893  21.629  0.00  0.00    +0.000 A 
ATOM      6  C   UNL     1       0.387   8.862  20.801  0.00  0.00    +0.000 A 
ATOM      7  C   UNL     1       1.226   9.404  19.774  0.00  0.00    +0.000 A 
ATOM      8  C   UNL     1       1.376  10.747  20.095  0.00  0.00    +0.000 A 
ATOM      9  N   UNL     1       0.452  11.078  21.074  0.00  0.00    +0.000 N 
ENDROOT
BRANCH   1  13
ATOM     10  C   UNL     1       0.479  16.026  19.258  0.00  0.00    +0.000 A 
ATOM     11  C   UNL     1       1.129  15.806  20.490  0.00  0.00    +0.000 A 
ATOM     12  C   UNL     1       1.000  14.602  21.198  0.00  0.00    +0.000 A 
ATOM     13  C   UNL     1       0.204  13.575  20.700  0.00  0.00    +0.000 A 
ATOM     14  C   UNL     1      -0.454  13.769  19.481  0.00  0.00    +0.000 A 
ATOM     15  C   UNL     1      -0.321  14.977  18.773  0.00  0.00    +0.000 A 
BRANCH  10  17
ATOM     16  C   UNL     1       1.921  17.334  17.617  0.00  0.00    +0.000 C 
ATOM     17  C   UNL     1       0.644  17.357  18.490  0.00  0.00    +0.000 C 
ATOM     18  C   UNL     1       0.755  18.547  19.469  0.00  0.00    +0.000 C 
ATOM     19  C   UNL     1      -0.539  17.664  17.542  0.00  0.00    +0.000 C 
ENDBRANCH  10  17
ENDBRANCH   1  13
BRANCH   7  20
ATOM     20  C   UNL     1       1.775   8.648  18.632  0.00  0.00    +0.000 C 
ATOM     21  O   UNL     1       1.840   9.134  17.510  0.00  0.00    +0.000 OA
ATOM     22  N   UNL     1       2.263   7.389  18.917  0.00  0.00    +0.000 N 
ATOM     23  H   UNL     1       2.130   7.030  19.848  0.00  0.00    +0.000 HD
BRANCH  22  24
ATOM     24  C   UNL     1       2.909   6.534  17.910  0.00  0.00    +0.000 C 
ATOM     25  C   UNL     1       4.394   6.906  17.600  0.00  0.00    +0.000 C 
ATOM     26  N   UNL     1       5.339   5.762  17.786  0.00  0.00    +0.000 NA
ATOM     27  C   UNL     1       5.267   5.302  19.186  0.00  0.00    +0.000 C 
ATOM     28  C   UNL     1       3.836   4.907  19.575  0.00  0.00    +0.000 C 
ATOM     29  C   UNL     1       2.902   5.051  18.354  0.00  0.00    +0.000 C 
ATOM     30  C   UNL     1       3.485   4.206  17.204  0.00  0.00    +0.000 C 
ATOM     31  C   UNL     1       4.932   4.638  16.916  0.00  0.00    +0.000 C 
ENDBRANCH  22  24
ENDBRANCH   7  20
TORSDOF 4
ENDMDL
MODEL 2
REMARK VINA RESULT:      -7.5      0.234      1.186
REMARK  Name = 
REMARK  7 active torsions:
REMARK  status: ('A' for Active; 'I' for Inactive)
REMARK    1  A    between atoms: C_1  and  C_2
REMARK    2  A    between atoms: C_2  and  C_3
REMARK    3  A    between atoms: C_2  and  C_4
REMARK    4  A    between atoms: C_2  and  C_5
REMARK    5  A    between atoms: C_8  and  C_9
REMARK    6  A    between atoms: C_15  and  C_16
REMARK    7  A    between atoms: N_18  and  C_19
REMARK                            x       y       z     vdW  Elec       q    Type
REMARK                         _______ _______ _______ _____ _____    ______ ____
ROOT
ATOM      1  C   UNL     1      -0.076  12.210  21.543  0.00  0.00    +0.000 A 
ATOM      2  C   UNL     1      -0.928  12.205  22.589  0.00  0.00    +0.000 A 
ATOM      3  C   UNL     1      -1.248  10.954  23.259  0.00  0.00    +0.000 A 
ATOM      4  C   UNL     1      -0.795   9.779  22.785  0.00  0.00    +0.000 A 
ATOM      5  C   UNL     1       0.040   9.755  21.631  0.00  0.00    +0.000 A 
ATOM      6  C   UNL     1       0.491   8.766  20.776  0.00  0.00    +0.000 A 
ATOM      7  C   UNL     1       1.310   9.371  19.769  0.00  0.00    +0.000 A 
ATOM      8  C   UNL     1       1.401  10.709  20.127  0.00  0.00    +0.000 A 
ATOM      9  N   UNL     1       0.462  10.974  21.111  0.00  0.00    +0.000 N 
ENDROOT
BRANCH   1  13
ATOM     10  C   UNL     1       0.652  15.846  19.318  0.00  0.00    +0.000 A 
ATOM     11  C   UNL     1      -0.134  14.800  18.793  0.00  0.00    +0.000 A 
ATOM     12  C   UNL     1      -0.407  13.633  19.522  0.00  0.00    +0.000 A 
ATOM     13  C   UNL     1       0.109  13.467  20.804  0.00  0.00    +0.000 A 
ATOM     14  C   UNL     1       0.894  14.489  21.346  0.00  0.00    +0.000 A 
ATOM     15  C   UNL     1       1.164  15.658  20.613  0.00  0.00    +0.000 A 
BRANCH  10  17
ATOM     16  C   UNL     1       1.207  18.329  19.438  0.00  0.00    +0.000 C 
ATOM     17  C   UNL     1       0.931  17.129  18.501  0.00  0.00    +0.000 C 
ATOM     18  C   UNL     1      -0.280  17.487  17.610  0.00  0.00    +0.000 C 
ATOM     19  C   UNL     1       2.156  17.001  17.566  0.00  0.00    +0.000 C 
ENDBRANCH  10  17
ENDBRANCH   1  13
BRANCH   7  20
ATOM     20  C   UNL     1       1.894   8.670  18.609  0.00  0.00    +0.000 C 
ATOM     21  O   UNL     1       1.956   9.196  17.504  0.00  0.00    +0.000 OA
ATOM     22  N   UNL     1       2.416   7.418  18.857  0.00  0.00    +0.000 N 
ATOM     23  H   UNL     1       2.283   7.023  19.774  0.00  0.00    +0.000 HD
BRANCH  22  24
ATOM     24  C   UNL     1       3.098   6.616  17.831  0.00  0.00    +0.000 C 
ATOM     25  C   UNL     1       4.597   6.994  17.602  0.00  0.00    +0.000 C 
ATOM     26  N   UNL     1       5.527   5.836  17.760  0.00  0.00    +0.000 NA
ATOM     27  C   UNL     1       5.396   5.297  19.128  0.00  0.00    +0.000 C 
ATOM     28  C   UNL     1       3.948   4.891  19.436  0.00  0.00    +0.000 C 
ATOM     29  C   UNL     1       3.065   5.111  18.189  0.00  0.00    +0.000 C 
ATOM     30  C   UNL     1       3.692   4.328  17.016  0.00  0.00    +0.000 C 
ATOM     31  C   UNL     1       5.151   4.765  16.813  0.00  0.00    +0.000 C 
ENDBRANCH  22  24
ENDBRANCH   7  20
TORSDOF 4
ENDMDL
MODEL 3
REMARK VINA RESULT:      -7.5      0.669      1.043
REMARK  Name = 
REMARK  7 active torsions:
REMARK  status: ('A' for Active; 'I' for Inactive)
REMARK    1  A    between atoms: C_1  and  C_2
REMARK    2  A    between atoms: C_2  and  C_3
REMARK    3  A    between atoms: C_2  and  C_4
REMARK    4  A    between atoms: C_2  and  C_5
REMARK    5  A    between atoms: C_8  and  C_9
REMARK    6  A    between atoms: C_15  and  C_16
REMARK    7  A    between atoms: N_18  and  C_19
REMARK                            x       y       z     vdW  Elec       q    Type
REMARK                         _______ _______ _______ _____ _____    ______ ____
ROOT
ATOM      1  C   UNL     1       0.138  11.969  21.427  0.00  0.00    +0.000 A 
ATOM      2  C   UNL     1      -0.729  12.033  22.459  0.00  0.00    +0.000 A 
ATOM      3  C   UNL     1      -1.107  10.820  23.167  0.00  0.00    +0.000 A 
ATOM      4  C   UNL     1      -0.695   9.612  22.740  0.00  0.00    +0.000 A 
ATOM      5  C   UNL     1       0.153   9.515  21.600  0.00  0.00    +0.000 A 
ATOM      6  C   UNL     1       0.575   8.480  20.786  0.00  0.00    +0.000 A 
ATOM      7  C   UNL     1       1.431   9.017  19.771  0.00  0.00    +0.000 A 
ATOM      8  C   UNL     1       1.572  10.362  20.084  0.00  0.00    +0.000 A 
ATOM      9  N   UNL     1       0.630  10.698  21.045  0.00  0.00    +0.000 N 
ENDROOT
BRANCH   1  13
ATOM     10  C   UNL     1       0.730  15.663  19.259  0.00  0.00    +0.000 A 
ATOM     11  C   UNL     1       1.685  15.181  20.178  0.00  0.00    +0.000 A 
ATOM     12  C   UNL     1       1.519  13.966  20.858  0.00  0.00    +0.000 A 
ATOM     13  C   UNL     1       0.382  13.191  20.648  0.00  0.00    +0.000 A 
ATOM     14  C   UNL     1      -0.581  13.648  19.743  0.00  0.00    +0.000 A 
ATOM     15  C   UNL     1      -0.411  14.866  19.062  0.00  0.00    +0.000 A 
BRANCH  10  17
ATOM     16  C   UNL     1       1.174  18.158  19.511  0.00  0.00    +0.000 C 
ATOM     17  C   UNL     1       0.939  17.000  18.511  0.00  0.00    +0.000 C 
ATOM     18  C   UNL     1      -0.300  17.351  17.656  0.00  0.00    +0.000 C 
ATOM     19  C   UNL     1       2.155  16.981  17.556  0.00  0.00    +0.000 C 
ENDBRANCH  10  17
ENDBRANCH   1  13
BRANCH   7  20
ATOM     20  C   UNL     1       2.002   8.254  18.645  0.00  0.00    +0.000 C 
ATOM     21  O   UNL     1       2.066   8.724  17.515  0.00  0.00    +0.000 OA
ATOM     22  N   UNL     1       2.511   7.009  18.951  0.00  0.00    +0.000 N 
ATOM     23  H   UNL     1       2.378   6.661  19.886  0.00  0.00    +0.000 HD
BRANCH  22  24
ATOM     24  C   UNL     1       3.179   6.151  17.962  0.00  0.00    +0.000 C 
ATOM     25  C   UNL     1       4.709   5.947  18.208  0.00  0.00    +0.000 C 
ATOM     26  N   UNL     1       5.103   4.508  18.307  0.00  0.00    +0.000 NA
ATOM     27  C   UNL     1       4.374   3.885  19.428  0.00  0.00    +0.000 C 
ATOM     28  C   UNL     1       2.855   4.033  19.262  0.00  0.00    +0.000 C 
ATOM     29  C   UNL     1       2.540   4.742  17.927  0.00  0.00    +0.000 C 
ATOM     30  C   UNL     1       3.211   3.942  16.791  0.00  0.00    +0.000 C 
ATOM     31  C   UNL     1       4.717   3.804  17.066  0.00  0.00    +0.000 C 
ENDBRANCH  22  24
ENDBRANCH   7  20
TORSDOF 4
ENDMDL
MODEL 4
REMARK VINA RESULT:      -7.5      2.645      3.472
REMARK  Name = 
REMARK  7 active torsions:
REMARK  status: ('A' for Active; 'I' for Inactive)
REMARK    1  A    between atoms: C_1  and  C_2
REMARK    2  A    between atoms: C_2  and  C_3
REMARK    3  A    between atoms: C_2  and  C_4
REMARK    4  A    between atoms: C_2  and  C_5
REMARK    5  A    between atoms: C_8  and  C_9
REMARK    6  A    between atoms: C_15  and  C_16
REMARK    7  A    between atoms: N_18  and  C_19
REMARK                            x       y       z     vdW  Elec       q    Type
REMARK                         _______ _______ _______ _____ _____    ______ ____
ROOT
ATOM      1  C   UNL     1       0.749  12.697  19.125  0.00  0.00    +0.000 A 
ATOM      2  C   UNL     1      -0.442  13.329  19.101  0.00  0.00    +0.000 A 
ATOM      3  C   UNL     1      -1.662  12.573  18.862  0.00  0.00    +0.000 A 
ATOM      4  C   UNL     1      -1.615  11.265  18.550  0.00  0.00    +0.000 A 
ATOM      5  C   UNL     1      -0.359  10.596  18.487  0.00  0.00    +0.000 A 
ATOM      6  C   UNL     1       0.068   9.371  18.008  0.00  0.00    +0.000 A 
ATOM      7  C   UNL     1       1.481   9.266  18.217  0.00  0.00    +0.000 A 
ATOM      8  C   UNL     1       1.833  10.411  18.919  0.00  0.00    +0.000 A 
ATOM      9  N   UNL     1       0.772  11.302  18.880  0.00  0.00    +0.000 N 
ENDROOT
BRANCH   1  13
ATOM     10  C   UNL     1       4.437  14.930  19.453  0.00  0.00    +0.000 A 
ATOM     11  C   UNL     1       3.853  14.643  18.202  0.00  0.00    +0.000 A 
ATOM     12  C   UNL     1       2.638  13.952  18.087  0.00  0.00    +0.000 A 
ATOM     13  C   UNL     1       1.967  13.514  19.225  0.00  0.00    +0.000 A 
ATOM     14  C   UNL     1       2.527  13.783  20.477  0.00  0.00    +0.000 A 
ATOM     15  C   UNL     1       3.745  14.478  20.589  0.00  0.00    +0.000 A 
BRANCH  10  17
ATOM     16  C   UNL     1       6.568  15.262  20.808  0.00  0.00    +0.000 C 
ATOM     17  C   UNL     1       5.772  15.704  19.557  0.00  0.00    +0.000 C 
ATOM     18  C   UNL     1       5.520  17.224  19.663  0.00  0.00    +0.000 C 
ATOM     19  C   UNL     1       6.699  15.485  18.338  0.00  0.00    +0.000 C 
ENDBRANCH  10  17
ENDBRANCH   1  13
BRANCH   7  20
ATOM     20  C   UNL     1       2.333   8.156  17.750  0.00  0.00    +0.000 C 
ATOM     21  O   UNL     1       3.179   8.316  16.879  0.00  0.00    +0.000 OA
ATOM     22  N   UNL     1       2.160   6.947  18.392  0.00  0.00    +0.000 N 
ATOM     23  H   UNL     1       1.411   6.869  19.060  0.00  0.00    +0.000 HD
BRANCH  22  24
ATOM     24  C   UNL     1       2.977   5.760  18.099  0.00  0.00    +0.000 C 
ATOM     25  C   UNL     1       3.983   5.369  19.230  0.00  0.00    +0.000 C 
ATOM     26  N   UNL     1       3.820   3.961  19.701  0.00  0.00    +0.000 NA
ATOM     27  C   UNL     1       2.452   3.784  20.226  0.00  0.00    +0.000 C 
ATOM     28  C   UNL     1       1.395   4.141  19.172  0.00  0.00    +0.000 C 
ATOM     29  C   UNL     1       2.086   4.521  17.844  0.00  0.00    +0.000 C 
ATOM     30  C   UNL     1       3.002   3.351  17.430  0.00  0.00    +0.000 C 
ATOM     31  C   UNL     1       3.992   3.034  18.562  0.00  0.00    +0.000 C 
ENDBRANCH  22  24
ENDBRANCH   7  20
TORSDOF 4
ENDMDL
MODEL 5
REMARK VINA RESULT:      -7.4      2.772      3.619
REMARK  Name = 
REMARK  7 active torsions:
REMARK  status: ('A' for Active; 'I' for Inactive)
REMARK    1  A    between atoms: C_1  and  C_2
REMARK    2  A    between atoms: C_2  and  C_3
REMARK    3  A    between atoms: C_2  and  C_4
REMARK    4  A    between atoms: C_2  and  C_5
REMARK    5  A    between atoms: C_8  and  C_9
REMARK    6  A    between atoms: C_15  and  C_16
REMARK    7  A    between atoms: N_18  and  C_19
REMARK                            x       y       z     vdW  Elec       q    Type
REMARK                         _______ _______ _______ _____ _____    ______ ____
ROOT
ATOM      1  C   UNL     1       0.685  12.458  18.822  0.00  0.00    +0.000 A 
ATOM      2  C   UNL     1      -0.498  13.050  18.558  0.00  0.00    +0.000 A 
ATOM      3  C   UNL     1      -1.652  12.240  18.199  0.00  0.00    +0.000 A 
ATOM      4  C   UNL     1      -1.535  10.912  18.014  0.00  0.00    +0.000 A 
ATOM      5  C   UNL     1      -0.274  10.279  18.207  0.00  0.00    +0.000 A 
ATOM      6  C   UNL     1       0.243   9.030  17.911  0.00  0.00    +0.000 A 
ATOM      7  C   UNL     1       1.607   8.986  18.346  0.00  0.00    +0.000 A 
ATOM      8  C   UNL     1       1.825  10.197  18.990  0.00  0.00    +0.000 A 
ATOM      9  N   UNL     1       0.769  11.049  18.708  0.00  0.00    +0.000 N 
ENDROOT
BRANCH   1  13
ATOM     10  C   UNL     1       4.243  14.818  19.506  0.00  0.00    +0.000 A 
ATOM     11  C   UNL     1       3.802  14.502  18.205  0.00  0.00    +0.000 A 
ATOM     12  C   UNL     1       2.629  13.769  17.972  0.00  0.00    +0.000 A 
ATOM     13  C   UNL     1       1.858  13.316  19.039  0.00  0.00    +0.000 A 
ATOM     14  C   UNL     1       2.276  13.615  20.340  0.00  0.00    +0.000 A 
ATOM     15  C   UNL     1       3.452  14.351  20.569  0.00  0.00    +0.000 A 
BRANCH  10  17
ATOM     16  C   UNL     1       6.565  15.371  18.616  0.00  0.00    +0.000 C 
ATOM     17  C   UNL     1       5.534  15.637  19.739  0.00  0.00    +0.000 C 
ATOM     18  C   UNL     1       6.188  15.262  21.088  0.00  0.00    +0.000 C 
ATOM     19  C   UNL     1       5.289  17.164  19.767  0.00  0.00    +0.000 C 
ENDBRANCH  10  17
ENDBRANCH   1  13
BRANCH   7  20
ATOM     20  C   UNL     1       2.541   7.867  18.118  0.00  0.00    +0.000 C 
ATOM     21  O   UNL     1       3.489   7.966  17.349  0.00  0.00    +0.000 OA
ATOM     22  N   UNL     1       2.316   6.727  18.862  0.00  0.00    +0.000 N 
ATOM     23  H   UNL     1       1.487   6.692  19.434  0.00  0.00    +0.000 HD
BRANCH  22  24
ATOM     24  C   UNL     1       3.193   5.549  18.809  0.00  0.00    +0.000 C 
ATOM     25  C   UNL     1       3.128   4.634  20.074  0.00  0.00    +0.000 C 
ATOM     26  N   UNL     1       2.796   3.212  19.756  0.00  0.00    +0.000 NA
ATOM     27  C   UNL     1       1.480   3.163  19.090  0.00  0.00    +0.000 C 
ATOM     28  C   UNL     1       1.457   4.033  17.825  0.00  0.00    +0.000 C 
ATOM     29  C   UNL     1       2.851   4.656  17.592  0.00  0.00    +0.000 C 
ATOM     30  C   UNL     1       3.883   3.510  17.537  0.00  0.00    +0.000 C 
ATOM     31  C   UNL     1       3.801   2.667  18.819  0.00  0.00    +0.000 C 
ENDBRANCH  22  24
ENDBRANCH   7  20
TORSDOF 4
ENDMDL
MODEL 6
REMARK VINA RESULT:      -7.4      1.322      1.901
REMARK  Name = 
REMARK  7 active torsions:
REMARK  status: ('A' for Active; 'I' for Inactive)
REMARK    1  A    between atoms: C_1  and  C_2
REMARK    2  A    between atoms: C_2  and  C_3
REMARK    3  A    between atoms: C_2  and  C_4
REMARK    4  A    between atoms: C_2  and  C_5
REMARK    5  A    between atoms: C_8  and  C_9
REMARK    6  A    between atoms: C_15  and  C_16
REMARK    7  A    between atoms: N_18  and  C_19
REMARK                            x       y       z     vdW  Elec       q    Type
REMARK                         _______ _______ _______ _____ _____    ______ ____
ROOT
ATOM      1  C   UNL     1       0.232  12.118  21.614  0.00  0.00    +0.000 A 
ATOM      2  C   UNL     1      -0.746  12.378  22.506  0.00  0.00    +0.000 A 
ATOM      3  C   UNL     1      -1.400  11.283  23.207  0.00  0.00    +0.000 A 
ATOM      4  C   UNL     1      -1.125  10.002  22.900  0.00  0.00    +0.000 A 
ATOM      5  C   UNL     1      -0.154   9.706  21.901  0.00  0.00    +0.000 A 
ATOM      6  C   UNL     1       0.210   8.567  21.206  0.00  0.00    +0.000 A 
ATOM      7  C   UNL     1       1.269   8.904  20.302  0.00  0.00    +0.000 A 
ATOM      8  C   UNL     1       1.571  10.232  20.570  0.00  0.00    +0.000 A 
ATOM      9  N   UNL     1       0.571  10.765  21.367  0.00  0.00    +0.000 N 
ENDROOT
BRANCH   1  13
ATOM     10  C   UNL     1       1.976  15.305  19.269  0.00  0.00    +0.000 A 
ATOM     11  C   UNL     1       1.061  14.389  18.711  0.00  0.00    +0.000 A 
ATOM     12  C   UNL     1       0.462  13.375  19.472  0.00  0.00    +0.000 A 
ATOM     13  C   UNL     1       0.766  13.236  20.823  0.00  0.00    +0.000 A 
ATOM     14  C   UNL     1       1.673  14.131  21.400  0.00  0.00    +0.000 A 
ATOM     15  C   UNL     1       2.270  15.147  20.634  0.00  0.00    +0.000 A 
BRANCH  10  17
ATOM     16  C   UNL     1       3.341  15.826  17.183  0.00  0.00    +0.000 C 
ATOM     17  C   UNL     1       2.617  16.422  18.413  0.00  0.00    +0.000 C 
ATOM     18  C   UNL     1       3.652  17.221  19.237  0.00  0.00    +0.000 C 
ATOM     19  C   UNL     1       1.587  17.443  17.874  0.00  0.00    +0.000 C 
ENDBRANCH  10  17
ENDBRANCH   1  13
BRANCH   7  20
ATOM     20  C   UNL     1       1.864   7.991  19.307  0.00  0.00    +0.000 C 
ATOM     21  O   UNL     1       2.074   8.345  18.153  0.00  0.00    +0.000 OA
ATOM     22  N   UNL     1       2.221   6.741  19.767  0.00  0.00    +0.000 N 
ATOM     23  H   UNL     1       1.971   6.496  20.711  0.00  0.00    +0.000 HD
BRANCH  22  24
ATOM     24  C   UNL     1       2.891   5.738  18.926  0.00  0.00    +0.000 C 
ATOM     25  C   UNL     1       4.066   4.983  19.627  0.00  0.00    +0.000 C 
ATOM     26  N   UNL     1       3.906   3.497  19.607  0.00  0.00    +0.000 NA
ATOM     27  C   UNL     1       2.655   3.138  20.300  0.00  0.00    +0.000 C 
ATOM     28  C   UNL     1       1.441   3.834  19.668  0.00  0.00    +0.000 C 
ATOM     29  C   UNL     1       1.891   4.660  18.443  0.00  0.00    +0.000 C 
ATOM     30  C   UNL     1       2.636   3.716  17.477  0.00  0.00    +0.000 C 
ATOM     31  C   UNL     1       3.801   3.030  18.208  0.00  0.00    +0.000 C 
ENDBRANCH  22  24
ENDBRANCH   7  20
TORSDOF 4
ENDMDL
MODEL 7
REMARK VINA RESULT:      -7.4      3.618      9.184
REMARK  Name = 
REMARK  7 active torsions:
REMARK  status: ('A' for Active; 'I' for Inactive)
REMARK    1  A    between atoms: C_1  and  C_2
REMARK    2  A    between atoms: C_2  and  C_3
REMARK    3  A    between atoms: C_2  and  C_4
REMARK    4  A    between atoms: C_2  and  C_5
REMARK    5  A    between atoms: C_8  and  C_9
REMARK    6  A    between atoms: C_15  and  C_16
REMARK    7  A    between atoms: N_18  and  C_19
REMARK                            x       y       z     vdW  Elec       q    Type
REMARK                         _______ _______ _______ _____ _____    ______ ____
ROOT
ATOM      1  C   UNL     1       0.453  10.922  18.833  0.00  0.00    +0.000 A 
ATOM      2  C   UNL     1      -0.872  10.947  19.085  0.00  0.00    +0.000 A 
ATOM      3  C   UNL     1      -1.580  12.217  19.128  0.00  0.00    +0.000 A 
ATOM      4  C   UNL     1      -0.915  13.383  19.033  0.00  0.00    +0.000 A 
ATOM      5  C   UNL     1       0.497  13.381  18.851  0.00  0.00    +0.000 A 
ATOM      6  C   UNL     1       1.490  14.341  18.927  0.00  0.00    +0.000 A 
ATOM      7  C   UNL     1       2.749  13.719  18.648  0.00  0.00    +0.000 A 
ATOM      8  C   UNL     1       2.443  12.407  18.309  0.00  0.00    +0.000 A 
ATOM      9  N   UNL     1       1.123  12.156  18.648  0.00  0.00    +0.000 N 
ENDROOT
BRANCH   1  13
ATOM     10  C   UNL     1       2.343   7.046  19.153  0.00  0.00    +0.000 A 
ATOM     11  C   UNL     1       2.270   7.736  17.925  0.00  0.00    +0.000 A 
ATOM     12  C   UNL     1       1.693   9.010  17.819  0.00  0.00    +0.000 A 
ATOM     13  C   UNL     1       1.157   9.636  18.941  0.00  0.00    +0.000 A 
ATOM     14  C   UNL     1       1.214   8.970  20.169  0.00  0.00    +0.000 A 
ATOM     15  C   UNL     1       1.796   7.694  20.272  0.00  0.00    +0.000 A 
BRANCH  10  17
ATOM     16  C   UNL     1       2.638   4.787  18.013  0.00  0.00    +0.000 C 
ATOM     17  C   UNL     1       2.994   5.646  19.249  0.00  0.00    +0.000 C 
ATOM     18  C   UNL     1       2.505   4.898  20.509  0.00  0.00    +0.000 C 
ATOM     19  C   UNL     1       4.538   5.698  19.327  0.00  0.00    +0.000 C 
ENDBRANCH  10  17
ENDBRANCH   1  13
BRANCH   7  20
ATOM     20  C   UNL     1       4.065  14.380  18.732  0.00  0.00    +0.000 C 
ATOM     21  O   UNL     1       4.884  14.305  17.824  0.00  0.00    +0.000 OA
ATOM     22  N   UNL     1       4.295  15.133  19.866  0.00  0.00    +0.000 N 
ATOM     23  H   UNL     1       3.603  15.108  20.597  0.00  0.00    +0.000 HD
BRANCH  22  24
ATOM     24  C   UNL     1       5.522  15.914  20.075  0.00  0.00    +0.000 C 
ATOM     25  C   UNL     1       5.577  17.260  19.284  0.00  0.00    +0.000 C 
ATOM     26  N   UNL     1       5.814  18.448  20.160  0.00  0.00    +0.000 NA
ATOM     27  C   UNL     1       4.721  18.543  21.146  0.00  0.00    +0.000 C 
ATOM     28  C   UNL     1       4.600  17.258  21.977  0.00  0.00    +0.000 C 
ATOM     29  C   UNL     1       5.710  16.264  21.570  0.00  0.00    +0.000 C 
ATOM     30  C   UNL     1       7.069  16.976  21.726  0.00  0.00    +0.000 C 
ATOM     31  C   UNL     1       7.081  18.272  20.901  0.00  0.00    +0.000 C 
ENDBRANCH  22  24
ENDBRANCH   7  20
TORSDOF 4
ENDMDL
MODEL 8
REMARK VINA RESULT:      -7.4      1.611      2.174
REMARK  Name = 
REMARK  7 active torsions:
REMARK  status: ('A' for Active; 'I' for Inactive)
REMARK    1  A    between atoms: C_1  and  C_2
REMARK    2  A    between atoms: C_2  and  C_3
REMARK    3  A    between atoms: C_2  and  C_4
REMARK    4  A    between atoms: C_2  and  C_5
REMARK    5  A    between atoms: C_8  and  C_9
REMARK    6  A    between atoms: C_15  and  C_16
REMARK    7  A    between atoms: N_18  and  C_19
REMARK                            x       y       z     vdW  Elec       q    Type
REMARK                         _______ _______ _______ _____ _____    ______ ____
ROOT
ATOM      1  C   UNL     1       0.478  11.689  21.507  0.00  0.00    +0.000 A 
ATOM      2  C   UNL     1      -0.509  11.978  22.381  0.00  0.00    +0.000 A 
ATOM      3  C   UNL     1      -1.188  10.906  23.091  0.00  0.00    +0.000 A 
ATOM      4  C   UNL     1      -0.929   9.616  22.810  0.00  0.00    +0.000 A 
ATOM      5  C   UNL     1       0.051   9.288  21.830  0.00  0.00    +0.000 A 
ATOM      6  C   UNL     1       0.407   8.132  21.159  0.00  0.00    +0.000 A 
ATOM      7  C   UNL     1       1.484   8.437  20.264  0.00  0.00    +0.000 A 
ATOM      8  C   UNL     1       1.802   9.765  20.514  0.00  0.00    +0.000 A 
ATOM      9  N   UNL     1       0.799  10.327  21.288  0.00  0.00    +0.000 N 
ENDROOT
BRANCH   1  13
ATOM     10  C   UNL     1       2.002  15.040  19.239  0.00  0.00    +0.000 A 
ATOM     11  C   UNL     1       2.704  14.510  20.341  0.00  0.00    +0.000 A 
ATOM     12  C   UNL     1       2.237  13.399  21.059  0.00  0.00    +0.000 A 
ATOM     13  C   UNL     1       1.039  12.785  20.705  0.00  0.00    +0.000 A 
ATOM     14  C   UNL     1       0.322  13.294  19.617  0.00  0.00    +0.000 A 
ATOM     15  C   UNL     1       0.796  14.406  18.898  0.00  0.00    +0.000 A 
BRANCH  10  17
ATOM     16  C   UNL     1       1.382  17.161  17.973  0.00  0.00    +0.000 C 
ATOM     17  C   UNL     1       2.542  16.258  18.454  0.00  0.00    +0.000 C 
ATOM     18  C   UNL     1       3.340  15.801  17.212  0.00  0.00    +0.000 C 
ATOM     19  C   UNL     1       3.486  17.152  19.291  0.00  0.00    +0.000 C 
ENDBRANCH  10  17
ENDBRANCH   1  13
BRANCH   7  20
ATOM     20  C   UNL     1       2.078   7.499  19.293  0.00  0.00    +0.000 C 
ATOM     21  O   UNL     1       2.481   7.874  18.199  0.00  0.00    +0.000 OA
ATOM     22  N   UNL     1       2.206   6.191  19.713  0.00  0.00    +0.000 N 
ATOM     23  H   UNL     1       1.805   5.939  20.602  0.00  0.00    +0.000 HD
BRANCH  22  24
ATOM     24  C   UNL     1       2.842   5.146  18.898  0.00  0.00    +0.000 C 
ATOM     25  C   UNL     1       3.807   4.204  19.688  0.00  0.00    +0.000 C 
ATOM     26  N   UNL     1       3.458   2.757  19.553  0.00  0.00    +0.000 NA
ATOM     27  C   UNL     1       2.091   2.542  20.064  0.00  0.00    +0.000 C 
ATOM     28  C   UNL     1       1.071   3.427  19.333  0.00  0.00    +0.000 C 
ATOM     29  C   UNL     1       1.781   4.240  18.229  0.00  0.00    +0.000 C 
ATOM     30  C   UNL     1       2.515   3.249  17.303  0.00  0.00    +0.000 C 
ATOM     31  C   UNL     1       3.475   2.375  18.125  0.00  0.00    +0.000 C 
ENDBRANCH  22  24
ENDBRANCH   7  20
TORSDOF 4
ENDMDL
MODEL 9
REMARK VINA RESULT:      -7.4      2.778      3.554
REMARK  Name = 
REMARK  7 active torsions:
REMARK  status: ('A' for Active; 'I' for Inactive)
REMARK    1  A    between atoms: C_1  and  C_2
REMARK    2  A    between atoms: C_2  and  C_3
REMARK    3  A    between atoms: C_2  and  C_4
REMARK    4  A    between atoms: C_2  and  C_5
REMARK    5  A    between atoms: C_8  and  C_9
REMARK    6  A    between atoms: C_15  and  C_16
REMARK    7  A    between atoms: N_18  and  C_19
REMARK                            x       y       z     vdW  Elec       q    Type
REMARK                         _______ _______ _______ _____ _____    ______ ____
ROOT
ATOM      1  C   UNL     1       0.766  12.354  18.889  0.00  0.00    +0.000 A 
ATOM      2  C   UNL     1      -0.392  12.977  18.586  0.00  0.00    +0.000 A 
ATOM      3  C   UNL     1      -1.539  12.201  18.141  0.00  0.00    +0.000 A 
ATOM      4  C   UNL     1      -1.436  10.878  17.916  0.00  0.00    +0.000 A 
ATOM      5  C   UNL     1      -0.198  10.215  18.151  0.00  0.00    +0.000 A 
ATOM      6  C   UNL     1       0.313   8.968  17.838  0.00  0.00    +0.000 A 
ATOM      7  C   UNL     1       1.651   8.883  18.341  0.00  0.00    +0.000 A 
ATOM      8  C   UNL     1       1.857  10.067  19.037  0.00  0.00    +0.000 A 
ATOM      9  N   UNL     1       0.831  10.948  18.731  0.00  0.00    +0.000 N 
ENDROOT
BRANCH   1  13
ATOM     10  C   UNL     1       4.113  14.955  19.742  0.00  0.00    +0.000 A 
ATOM     11  C   UNL     1       3.332  14.390  20.771  0.00  0.00    +0.000 A 
ATOM     12  C   UNL     1       2.268  13.515  20.507  0.00  0.00    +0.000 A 
ATOM     13  C   UNL     1       1.941  13.182  19.195  0.00  0.00    +0.000 A 
ATOM     14  C   UNL     1       2.699  13.732  18.156  0.00  0.00    +0.000 A 
ATOM     15  C   UNL     1       3.766  14.606  18.426  0.00  0.00    +0.000 A 
BRANCH  10  17
ATOM     16  C   UNL     1       5.530  16.891  18.889  0.00  0.00    +0.000 C 
ATOM     17  C   UNL     1       5.290  15.908  20.058  0.00  0.00    +0.000 C 
ATOM     18  C   UNL     1       6.594  15.112  20.291  0.00  0.00    +0.000 C 
ATOM     19  C   UNL     1       5.055  16.766  21.323  0.00  0.00    +0.000 C 
ENDBRANCH  10  17
ENDBRANCH   1  13
BRANCH   7  20
ATOM     20  C   UNL     1       2.576   7.755  18.122  0.00  0.00    +0.000 C 
ATOM     21  O   UNL     1       3.523   7.839  17.349  0.00  0.00    +0.000 OA
ATOM     22  N   UNL     1       2.345   6.625  18.879  0.00  0.00    +0.000 N 
ATOM     23  H   UNL     1       1.519   6.602  19.454  0.00  0.00    +0.000 HD
BRANCH  22  24
ATOM     24  C   UNL     1       3.214   5.440  18.837  0.00  0.00    +0.000 C 
ATOM     25  C   UNL     1       3.149   4.541  20.113  0.00  0.00    +0.000 C 
ATOM     26  N   UNL     1       2.805   3.118  19.813  0.00  0.00    +0.000 NA
ATOM     27  C   UNL     1       1.486   3.070  19.154  0.00  0.00    +0.000 C 
ATOM     28  C   UNL     1       1.463   3.925  17.879  0.00  0.00    +0.000 C 
ATOM     29  C   UNL     1       2.860   4.535  17.632  0.00  0.00    +0.000 C 
ATOM     30  C   UNL     1       3.884   3.381  17.585  0.00  0.00    +0.000 C 
ATOM     31  C   UNL     1       3.802   2.554  18.878  0.00  0.00    +0.000 C 
ENDBRANCH  22  24
ENDBRANCH   7  20
TORSDOF 4
ENDMDL
