MODEL 1
REMARK VINA RESULT:      -6.7      0.000      0.000
REMARK  Name = 
REMARK  12 active torsions:
REMARK  status: ('A' for Active; 'I' for Inactive)
REMARK    1  A    between atoms: C_1  and  C_2
REMARK    2  A    between atoms: C_2  and  C_3
REMARK    3  A    between atoms: C_3  and  C_4
REMARK    4  A    between atoms: C_4  and  C_5
REMARK    5  A    between atoms: C_5  and  C_6
REMARK    6  A    between atoms: C_6  and  C_7
REMARK    7  A    between atoms: C_7  and  C_8
REMARK    8  A    between atoms: C_8  and  C_9
REMARK    9  A    between atoms: C_12  and  C_13
REMARK   10  A    between atoms: C_13  and  C_14
REMARK   11  A    between atoms: C_14  and  N_15
REMARK   12  A    between atoms: C_18  and  N_19
REMARK                            x       y       z     vdW  Elec       q    Type
REMARK                         _______ _______ _______ _____ _____    ______ ____
ROOT
ATOM      1  C   UNL     1       3.250   6.346  18.766  0.00  0.00    +0.000 A 
ATOM      2  C   UNL     1       2.604   6.391  20.008  0.00  0.00    +0.000 A 
ATOM      3  C   UNL     1       1.751   7.446  20.326  0.00  0.00    +0.000 A 
ATOM      4  C   UNL     1       1.555   8.494  19.421  0.00  0.00    +0.000 A 
ATOM      5  C   UNL     1       2.192   8.445  18.175  0.00  0.00    +0.000 A 
ATOM      6  C   UNL     1       3.032   7.378  17.850  0.00  0.00    +0.000 A 
ENDROOT
BRANCH   1   7
ATOM      7  C   UNL     1       4.189   5.216  18.435  0.00  0.00    +0.000 C 
BRANCH   7   8
ATOM      8  C   UNL     1       3.813   4.511  17.130  0.00  0.00    +0.000 C 
BRANCH   8   9
ATOM      9  C   UNL     1       2.484   3.778  17.273  0.00  0.00    +0.000 C 
BRANCH   9  10
ATOM     10  C   UNL     1       2.710   2.313  17.636  0.00  0.00    +0.000 C 
BRANCH  10  11
ATOM     11  C   UNL     1       2.288   2.041  19.077  0.00  0.00    +0.000 C 
BRANCH  11  12
ATOM     12  C   UNL     1       0.919   2.648  19.369  0.00  0.00    +0.000 C 
BRANCH  12  14
ATOM     13  C   UNL     1       1.895   2.929  21.669  0.00  0.00    +0.000 C 
ATOM     14  C   UNL     1       0.964   3.519  20.622  0.00  0.00    +0.000 C 
ENDBRANCH  12  14
ENDBRANCH  11  12
ENDBRANCH  10  11
ENDBRANCH   9  10
ENDBRANCH   8   9
ENDBRANCH   7   8
ENDBRANCH   1   7
BRANCH   4  15
ATOM     15  C   UNL     1       0.670   9.660  19.788  0.00  0.00    +0.000 C 
BRANCH  15  16
ATOM     16  C   UNL     1       0.170  10.422  18.546  0.00  0.00    +0.000 C 
BRANCH  16  17
ATOM     17  N   UNL     1      -1.298  10.397  18.383  0.00  0.00    +0.000 NA
ATOM     18  C   UNL     1      -1.694   9.937  17.045  0.00  0.00    +0.000 C 
ATOM     19  C   UNL     1      -3.214   9.882  16.907  0.00  0.00    +0.000 C 
ATOM     20  C   UNL     1      -3.828  11.251  17.191  0.00  0.00    +0.000 C 
ATOM     21  C   UNL     1      -3.375  11.751  18.562  0.00  0.00    +0.000 C 
ATOM     22  C   UNL     1      -1.850  11.737  18.662  0.00  0.00    +0.000 C 
BRANCH  20  23
ATOM     23  N   UNL     1      -5.289  11.192  17.124  0.00  0.00    +0.000 NA
ATOM     24  H   UNL     1      -5.574  10.918  16.183  0.00  0.00    +0.000 HD
ATOM     25  H   UNL     1      -5.674  12.124  17.269  0.00  0.00    +0.000 HD
ENDBRANCH  20  23
ENDBRANCH  16  17
ENDBRANCH  15  16
ENDBRANCH   4  15
TORSDOF 11
ENDMDL
MODEL 2
REMARK VINA RESULT:      -6.5      3.933      6.118
REMARK  Name = 
REMARK  12 active torsions:
REMARK  status: ('A' for Active; 'I' for Inactive)
REMARK    1  A    between atoms: C_1  and  C_2
REMARK    2  A    between atoms: C_2  and  C_3
REMARK    3  A    between atoms: C_3  and  C_4
REMARK    4  A    between atoms: C_4  and  C_5
REMARK    5  A    between atoms: C_5  and  C_6
REMARK    6  A    between atoms: C_6  and  C_7
REMARK    7  A    between atoms: C_7  and  C_8
REMARK    8  A    between atoms: C_8  and  C_9
REMARK    9  A    between atoms: C_12  and  C_13
REMARK   10  A    between atoms: C_13  and  C_14
REMARK   11  A    between atoms: C_14  and  N_15
REMARK   12  A    between atoms: C_18  and  N_19
REMARK                            x       y       z     vdW  Elec       q    Type
REMARK                         _______ _______ _______ _____ _____    ______ ____
ROOT
ATOM      1  C   UNL     1       5.256   4.801  15.993  0.00  0.00    +0.000 A 
ATOM      2  C   UNL     1       4.333   4.047  16.728  0.00  0.00    +0.000 A 
ATOM      3  C   UNL     1       3.492   4.662  17.653  0.00  0.00    +0.000 A 
ATOM      4  C   UNL     1       3.580   6.039  17.884  0.00  0.00    +0.000 A 
ATOM      5  C   UNL     1       4.494   6.795  17.142  0.00  0.00    +0.000 A 
ATOM      6  C   UNL     1       5.325   6.181  16.203  0.00  0.00    +0.000 A 
ENDROOT
BRANCH   1   7
ATOM      7  C   UNL     1       6.180   4.130  15.012  0.00  0.00    +0.000 C 
BRANCH   7   8
ATOM      8  C   UNL     1       5.500   3.850  13.670  0.00  0.00    +0.000 C 
BRANCH   8   9
ATOM      9  C   UNL     1       6.534   3.660  12.566  0.00  0.00    +0.000 C 
BRANCH   9  10
ATOM     10  C   UNL     1       5.985   2.764  11.459  0.00  0.00    +0.000 C 
BRANCH  10  11
ATOM     11  C   UNL     1       4.460   2.788  11.449  0.00  0.00    +0.000 C 
BRANCH  11  12
ATOM     12  C   UNL     1       3.938   4.025  10.724  0.00  0.00    +0.000 C 
BRANCH  12  14
ATOM     13  C   UNL     1       2.371   4.870   8.949  0.00  0.00    +0.000 C 
ATOM     14  C   UNL     1       2.854   3.651   9.717  0.00  0.00    +0.000 C 
ENDBRANCH  12  14
ENDBRANCH  11  12
ENDBRANCH  10  11
ENDBRANCH   9  10
ENDBRANCH   8   9
ENDBRANCH   7   8
ENDBRANCH   1   7
BRANCH   4  15
ATOM     15  C   UNL     1       2.702   6.694  18.922  0.00  0.00    +0.000 C 
BRANCH  15  16
ATOM     16  C   UNL     1       2.204   8.079  18.469  0.00  0.00    +0.000 C 
BRANCH  16  17
ATOM     17  N   UNL     1       1.737   8.936  19.578  0.00  0.00    +0.000 NA
ATOM     18  C   UNL     1       1.524   8.169  20.813  0.00  0.00    +0.000 C 
ATOM     19  C   UNL     1       1.078   9.077  21.957  0.00  0.00    +0.000 C 
ATOM     20  C   UNL     1      -0.200   9.823  21.582  0.00  0.00    +0.000 C 
ATOM     21  C   UNL     1       0.005  10.581  20.270  0.00  0.00    +0.000 C 
ATOM     22  C   UNL     1       0.501   9.635  19.176  0.00  0.00    +0.000 C 
BRANCH  20  23
ATOM     23  N   UNL     1      -0.600  10.743  22.648  0.00  0.00    +0.000 NA
ATOM     24  H   UNL     1      -0.380  11.699  22.370  0.00  0.00    +0.000 HD
ATOM     25  H   UNL     1      -0.040  10.561  23.481  0.00  0.00    +0.000 HD
ENDBRANCH  20  23
ENDBRANCH  16  17
ENDBRANCH  15  16
ENDBRANCH   4  15
TORSDOF 11
ENDMDL
MODEL 3
REMARK VINA RESULT:      -6.5      0.911      1.753
REMARK  Name = 
REMARK  12 active torsions:
REMARK  status: ('A' for Active; 'I' for Inactive)
REMARK    1  A    between atoms: C_1  and  C_2
REMARK    2  A    between atoms: C_2  and  C_3
REMARK    3  A    between atoms: C_3  and  C_4
REMARK    4  A    between atoms: C_4  and  C_5
REMARK    5  A    between atoms: C_5  and  C_6
REMARK    6  A    between atoms: C_6  and  C_7
REMARK    7  A    between atoms: C_7  and  C_8
REMARK    8  A    between atoms: C_8  and  C_9
REMARK    9  A    between atoms: C_12  and  C_13
REMARK   10  A    between atoms: C_13  and  C_14
REMARK   11  A    between atoms: C_14  and  N_15
REMARK   12  A    between atoms: C_18  and  N_19
REMARK                            x       y       z     vdW  Elec       q    Type
REMARK                         _______ _______ _______ _____ _____    ______ ____
ROOT
ATOM      1  C   UNL     1       3.708   6.306  18.249  0.00  0.00    +0.000 A 
ATOM      2  C   UNL     1       3.407   7.454  17.507  0.00  0.00    +0.000 A 
ATOM      3  C   UNL     1       2.514   8.404  18.000  0.00  0.00    +0.000 A 
ATOM      4  C   UNL     1       1.879   8.206  19.230  0.00  0.00    +0.000 A 
ATOM      5  C   UNL     1       2.188   7.064  19.979  0.00  0.00    +0.000 A 
ATOM      6  C   UNL     1       3.097   6.122  19.492  0.00  0.00    +0.000 A 
ENDROOT
BRANCH   1   7
ATOM      7  C   UNL     1       4.656   5.272  17.703  0.00  0.00    +0.000 C 
BRANCH   7   8
ATOM      8  C   UNL     1       4.499   3.916  18.394  0.00  0.00    +0.000 C 
BRANCH   8   9
ATOM      9  C   UNL     1       3.840   2.904  17.462  0.00  0.00    +0.000 C 
BRANCH   9  10
ATOM     10  C   UNL     1       2.323   2.919  17.633  0.00  0.00    +0.000 C 
BRANCH  10  11
ATOM     11  C   UNL     1       1.919   2.238  18.936  0.00  0.00    +0.000 C 
BRANCH  11  12
ATOM     12  C   UNL     1       0.797   3.006  19.630  0.00  0.00    +0.000 C 
BRANCH  12  14
ATOM     13  C   UNL     1       2.499   2.765  21.464  0.00  0.00    +0.000 C 
ATOM     14  C   UNL     1       1.235   3.478  21.014  0.00  0.00    +0.000 C 
ENDBRANCH  12  14
ENDBRANCH  11  12
ENDBRANCH  10  11
ENDBRANCH   9  10
ENDBRANCH   8   9
ENDBRANCH   7   8
ENDBRANCH   1   7
BRANCH   4  15
ATOM     15  C   UNL     1       0.875   9.211  19.738  0.00  0.00    +0.000 C 
BRANCH  15  16
ATOM     16  C   UNL     1       1.047  10.590  19.073  0.00  0.00    +0.000 C 
BRANCH  16  17
ATOM     17  N   UNL     1      -0.224  11.211  18.651  0.00  0.00    +0.000 NA
ATOM     18  C   UNL     1      -1.045  11.618  19.800  0.00  0.00    +0.000 C 
ATOM     19  C   UNL     1      -2.338  12.292  19.345  0.00  0.00    +0.000 C 
ATOM     20  C   UNL     1      -3.137  11.359  18.438  0.00  0.00    +0.000 C 
ATOM     21  C   UNL     1      -2.267  10.897  17.269  0.00  0.00    +0.000 C 
ATOM     22  C   UNL     1      -0.966  10.279  17.780  0.00  0.00    +0.000 C 
BRANCH  20  23
ATOM     23  N   UNL     1      -4.347  12.021  17.946  0.00  0.00    +0.000 NA
ATOM     24  H   UNL     1      -4.095  12.913  17.520  0.00  0.00    +0.000 HD
ATOM     25  H   UNL     1      -4.952  12.250  18.733  0.00  0.00    +0.000 HD
ENDBRANCH  20  23
ENDBRANCH  16  17
ENDBRANCH  15  16
ENDBRANCH   4  15
TORSDOF 11
ENDMDL
MODEL 4
REMARK VINA RESULT:      -6.5      1.085      1.727
REMARK  Name = 
REMARK  12 active torsions:
REMARK  status: ('A' for Active; 'I' for Inactive)
REMARK    1  A    between atoms: C_1  and  C_2
REMARK    2  A    between atoms: C_2  and  C_3
REMARK    3  A    between atoms: C_3  and  C_4
REMARK    4  A    between atoms: C_4  and  C_5
REMARK    5  A    between atoms: C_5  and  C_6
REMARK    6  A    between atoms: C_6  and  C_7
REMARK    7  A    between atoms: C_7  and  C_8
REMARK    8  A    between atoms: C_8  and  C_9
REMARK    9  A    between atoms: C_12  and  C_13
REMARK   10  A    between atoms: C_13  and  C_14
REMARK   11  A    between atoms: C_14  and  N_15
REMARK   12  A    between atoms: C_18  and  N_19
REMARK                            x       y       z     vdW  Elec       q    Type
REMARK                         _______ _______ _______ _____ _____    ______ ____
ROOT
ATOM      1  C   UNL     1       2.512   7.307  19.095  0.00  0.00    +0.000 A 
ATOM      2  C   UNL     1       1.828   7.697  20.253  0.00  0.00    +0.000 A 
ATOM      3  C   UNL     1       1.096   8.881  20.280  0.00  0.00    +0.000 A 
ATOM      4  C   UNL     1       1.061   9.717  19.159  0.00  0.00    +0.000 A 
ATOM      5  C   UNL     1       1.735   9.324  17.997  0.00  0.00    +0.000 A 
ATOM      6  C   UNL     1       2.453   8.127  17.965  0.00  0.00    +0.000 A 
ENDROOT
BRANCH   1   7
ATOM      7  C   UNL     1       3.321   6.038  19.077  0.00  0.00    +0.000 C 
BRANCH   7   8
ATOM      8  C   UNL     1       3.548   5.512  17.658  0.00  0.00    +0.000 C 
BRANCH   8   9
ATOM      9  C   UNL     1       3.004   4.096  17.510  0.00  0.00    +0.000 C 
BRANCH   9  10
ATOM     10  C   UNL     1       1.500   4.065  17.765  0.00  0.00    +0.000 C 
BRANCH  10  11
ATOM     11  C   UNL     1       1.154   3.044  18.845  0.00  0.00    +0.000 C 
BRANCH  11  12
ATOM     12  C   UNL     1       0.766   3.737  20.147  0.00  0.00    +0.000 C 
BRANCH  12  14
ATOM     13  C   UNL     1       2.918   2.742  20.983  0.00  0.00    +0.000 C 
ATOM     14  C   UNL     1       1.486   3.106  21.336  0.00  0.00    +0.000 C 
ENDBRANCH  12  14
ENDBRANCH  11  12
ENDBRANCH  10  11
ENDBRANCH   9  10
ENDBRANCH   8   9
ENDBRANCH   7   8
ENDBRANCH   1   7
BRANCH   4  15
ATOM     15  C   UNL     1       0.308  11.025  19.208  0.00  0.00    +0.000 C 
BRANCH  15  16
ATOM     16  C   UNL     1      -1.217  10.813  19.267  0.00  0.00    +0.000 C 
BRANCH  16  17
ATOM     17  N   UNL     1      -1.891  10.970  17.963  0.00  0.00    +0.000 NA
ATOM     18  C   UNL     1      -3.309  11.325  18.117  0.00  0.00    +0.000 C 
ATOM     19  C   UNL     1      -3.980  11.520  16.758  0.00  0.00    +0.000 C 
ATOM     20  C   UNL     1      -3.848  10.257  15.909  0.00  0.00    +0.000 C 
ATOM     21  C   UNL     1      -2.376   9.861  15.791  0.00  0.00    +0.000 C 
ATOM     22  C   UNL     1      -1.742   9.731  17.176  0.00  0.00    +0.000 C 
BRANCH  20  23
ATOM     23  N   UNL     1      -4.432  10.458  14.582  0.00  0.00    +0.000 NA
ATOM     24  H   UNL     1      -4.067  11.320  14.178  0.00  0.00    +0.000 HD
ATOM     25  H   UNL     1      -5.438  10.598  14.672  0.00  0.00    +0.000 HD
ENDBRANCH  20  23
ENDBRANCH  16  17
ENDBRANCH  15  16
ENDBRANCH   4  15
TORSDOF 11
ENDMDL
MODEL 5
REMARK VINA RESULT:      -6.5      0.813      1.438
REMARK  Name = 
REMARK  12 active torsions:
REMARK  status: ('A' for Active; 'I' for Inactive)
REMARK    1  A    between atoms: C_1  and  C_2
REMARK    2  A    between atoms: C_2  and  C_3
REMARK    3  A    between atoms: C_3  and  C_4
REMARK    4  A    between atoms: C_4  and  C_5
REMARK    5  A    between atoms: C_5  and  C_6
REMARK    6  A    between atoms: C_6  and  C_7
REMARK    7  A    between atoms: C_7  and  C_8
REMARK    8  A    between atoms: C_8  and  C_9
REMARK    9  A    between atoms: C_12  and  C_13
REMARK   10  A    between atoms: C_13  and  C_14
REMARK   11  A    between atoms: C_14  and  N_15
REMARK   12  A    between atoms: C_18  and  N_19
REMARK                            x       y       z     vdW  Elec       q    Type
REMARK                         _______ _______ _______ _____ _____    ______ ____
ROOT
ATOM      1  C   UNL     1       3.093   6.685  18.253  0.00  0.00    +0.000 A 
ATOM      2  C   UNL     1       2.738   7.854  17.569  0.00  0.00    +0.000 A 
ATOM      3  C   UNL     1       1.951   8.825  18.184  0.00  0.00    +0.000 A 
ATOM      4  C   UNL     1       1.475   8.629  19.485  0.00  0.00    +0.000 A 
ATOM      5  C   UNL     1       1.838   7.466  20.174  0.00  0.00    +0.000 A 
ATOM      6  C   UNL     1       2.643   6.502  19.563  0.00  0.00    +0.000 A 
ENDROOT
BRANCH   1   7
ATOM      7  C   UNL     1       3.925   5.628  17.576  0.00  0.00    +0.000 C 
BRANCH   7   8
ATOM      8  C   UNL     1       3.148   4.329  17.355  0.00  0.00    +0.000 C 
BRANCH   8   9
ATOM      9  C   UNL     1       4.069   3.119  17.467  0.00  0.00    +0.000 C 
BRANCH   9  10
ATOM     10  C   UNL     1       3.566   2.154  18.537  0.00  0.00    +0.000 C 
BRANCH  10  11
ATOM     11  C   UNL     1       4.113   2.534  19.910  0.00  0.00    +0.000 C 
BRANCH  11  12
ATOM     12  C   UNL     1       2.979   2.773  20.903  0.00  0.00    +0.000 C 
BRANCH  12  14
ATOM     13  C   UNL     1       0.738   3.742  20.309  0.00  0.00    +0.000 C 
ATOM     14  C   UNL     1       1.622   2.508  20.256  0.00  0.00    +0.000 C 
ENDBRANCH  12  14
ENDBRANCH  11  12
ENDBRANCH  10  11
ENDBRANCH   9  10
ENDBRANCH   8   9
ENDBRANCH   7   8
ENDBRANCH   1   7
BRANCH   4  15
ATOM     15  C   UNL     1       0.581   9.659  20.131  0.00  0.00    +0.000 C 
BRANCH  15  16
ATOM     16  C   UNL     1       0.088  10.714  19.122  0.00  0.00    +0.000 C 
BRANCH  16  17
ATOM     17  N   UNL     1      -1.345  10.592  18.785  0.00  0.00    +0.000 NA
ATOM     18  C   UNL     1      -1.547  10.072  17.425  0.00  0.00    +0.000 C 
ATOM     19  C   UNL     1      -3.033   9.917  17.108  0.00  0.00    +0.000 C 
ATOM     20  C   UNL     1      -3.757  11.253  17.269  0.00  0.00    +0.000 C 
ATOM     21  C   UNL     1      -3.505  11.817  18.666  0.00  0.00    +0.000 C 
ATOM     22  C   UNL     1      -2.005  11.901  18.950  0.00  0.00    +0.000 C 
BRANCH  20  23
ATOM     23  N   UNL     1      -5.193  11.099  17.029  0.00  0.00    +0.000 NA
ATOM     24  H   UNL     1      -5.710  11.676  17.692  0.00  0.00    +0.000 HD
ATOM     25  H   UNL     1      -5.469  10.137  17.223  0.00  0.00    +0.000 HD
ENDBRANCH  20  23
ENDBRANCH  16  17
ENDBRANCH  15  16
ENDBRANCH   4  15
TORSDOF 11
ENDMDL
MODEL 6
REMARK VINA RESULT:      -6.4      5.794      8.267
REMARK  Name = 
REMARK  12 active torsions:
REMARK  status: ('A' for Active; 'I' for Inactive)
REMARK    1  A    between atoms: C_1  and  C_2
REMARK    2  A    between atoms: C_2  and  C_3
REMARK    3  A    between atoms: C_3  and  C_4
REMARK    4  A    between atoms: C_4  and  C_5
REMARK    5  A    between atoms: C_5  and  C_6
REMARK    6  A    between atoms: C_6  and  C_7
REMARK    7  A    between atoms: C_7  and  C_8
REMARK    8  A    between atoms: C_8  and  C_9
REMARK    9  A    between atoms: C_12  and  C_13
REMARK   10  A    between atoms: C_13  and  C_14
REMARK   11  A    between atoms: C_14  and  N_15
REMARK   12  A    between atoms: C_18  and  N_19
REMARK                            x       y       z     vdW  Elec       q    Type
REMARK                         _______ _______ _______ _____ _____    ______ ____
ROOT
ATOM      1  C   UNL     1       5.802   5.060  18.575  0.00  0.00    +0.000 A 
ATOM      2  C   UNL     1       5.378   5.927  17.561  0.00  0.00    +0.000 A 
ATOM      3  C   UNL     1       6.183   6.989  17.154  0.00  0.00    +0.000 A 
ATOM      4  C   UNL     1       7.413   7.225  17.778  0.00  0.00    +0.000 A 
ATOM      5  C   UNL     1       7.843   6.352  18.784  0.00  0.00    +0.000 A 
ATOM      6  C   UNL     1       7.044   5.277  19.179  0.00  0.00    +0.000 A 
ENDROOT
BRANCH   1   7
ATOM      7  C   UNL     1       4.920   3.927  19.028  0.00  0.00    +0.000 C 
BRANCH   7   8
ATOM      8  C   UNL     1       3.925   3.497  17.948  0.00  0.00    +0.000 C 
BRANCH   8   9
ATOM      9  C   UNL     1       3.352   2.118  18.256  0.00  0.00    +0.000 C 
BRANCH   9  10
ATOM     10  C   UNL     1       1.864   2.211  18.583  0.00  0.00    +0.000 C 
BRANCH  10  11
ATOM     11  C   UNL     1       1.653   2.586  20.046  0.00  0.00    +0.000 C 
BRANCH  11  12
ATOM     12  C   UNL     1       0.956   3.937  20.169  0.00  0.00    +0.000 C 
BRANCH  12  14
ATOM     13  C   UNL     1       2.176   6.126  19.978  0.00  0.00    +0.000 C 
ATOM     14  C   UNL     1       1.849   4.949  20.882  0.00  0.00    +0.000 C 
ENDBRANCH  12  14
ENDBRANCH  11  12
ENDBRANCH  10  11
ENDBRANCH   9  10
ENDBRANCH   8   9
ENDBRANCH   7   8
ENDBRANCH   1   7
BRANCH   4  15
ATOM     15  C   UNL     1       8.259   8.406  17.369  0.00  0.00    +0.000 C 
BRANCH  15  16
ATOM     16  C   UNL     1       7.975   9.649  18.233  0.00  0.00    +0.000 C 
BRANCH  16  17
ATOM     17  N   UNL     1       9.152  10.518  18.432  0.00  0.00    +0.000 NA
ATOM     18  C   UNL     1       9.494  10.663  19.854  0.00  0.00    +0.000 C 
ATOM     19  C   UNL     1      10.735  11.534  20.038  0.00  0.00    +0.000 C 
ATOM     20  C   UNL     1      10.523  12.910  19.410  0.00  0.00    +0.000 C 
ATOM     21  C   UNL     1      10.119  12.756  17.944  0.00  0.00    +0.000 C 
ATOM     22  C   UNL     1       8.906  11.835  17.815  0.00  0.00    +0.000 C 
BRANCH  20  23
ATOM     23  N   UNL     1      11.731  13.728  19.526  0.00  0.00    +0.000 NA
ATOM     24  H   UNL     1      11.486  14.711  19.411  0.00  0.00    +0.000 HD
ATOM     25  H   UNL     1      12.365  13.509  18.758  0.00  0.00    +0.000 HD
ENDBRANCH  20  23
ENDBRANCH  16  17
ENDBRANCH  15  16
ENDBRANCH   4  15
TORSDOF 11
ENDMDL
MODEL 7
REMARK VINA RESULT:      -6.4      5.991      8.199
REMARK  Name = 
REMARK  12 active torsions:
REMARK  status: ('A' for Active; 'I' for Inactive)
REMARK    1  A    between atoms: C_1  and  C_2
REMARK    2  A    between atoms: C_2  and  C_3
REMARK    3  A    between atoms: C_3  and  C_4
REMARK    4  A    between atoms: C_4  and  C_5
REMARK    5  A    between atoms: C_5  and  C_6
REMARK    6  A    between atoms: C_6  and  C_7
REMARK    7  A    between atoms: C_7  and  C_8
REMARK    8  A    between atoms: C_8  and  C_9
REMARK    9  A    between atoms: C_12  and  C_13
REMARK   10  A    between atoms: C_13  and  C_14
REMARK   11  A    between atoms: C_14  and  N_15
REMARK   12  A    between atoms: C_18  and  N_19
REMARK                            x       y       z     vdW  Elec       q    Type
REMARK                         _______ _______ _______ _____ _____    ______ ____
ROOT
ATOM      1  C   UNL     1       5.954   5.301  18.423  0.00  0.00    +0.000 A 
ATOM      2  C   UNL     1       5.531   6.261  17.496  0.00  0.00    +0.000 A 
ATOM      3  C   UNL     1       6.316   7.379  17.224  0.00  0.00    +0.000 A 
ATOM      4  C   UNL     1       7.526   7.576  17.900  0.00  0.00    +0.000 A 
ATOM      5  C   UNL     1       7.955   6.611  18.819  0.00  0.00    +0.000 A 
ATOM      6  C   UNL     1       7.176   5.482  19.077  0.00  0.00    +0.000 A 
ENDROOT
BRANCH   1   7
ATOM      7  C   UNL     1       5.092   4.105  18.731  0.00  0.00    +0.000 C 
BRANCH   7   8
ATOM      8  C   UNL     1       4.458   3.506  17.474  0.00  0.00    +0.000 C 
BRANCH   8   9
ATOM      9  C   UNL     1       2.936   3.565  17.553  0.00  0.00    +0.000 C 
BRANCH   9  10
ATOM     10  C   UNL     1       2.346   2.162  17.673  0.00  0.00    +0.000 C 
BRANCH  10  11
ATOM     11  C   UNL     1       1.422   2.065  18.883  0.00  0.00    +0.000 C 
BRANCH  11  12
ATOM     12  C   UNL     1       0.976   3.450  19.343  0.00  0.00    +0.000 C 
BRANCH  12  14
ATOM     13  C   UNL     1       2.222   4.742  21.102  0.00  0.00    +0.000 C 
ATOM     14  C   UNL     1       1.218   3.633  20.839  0.00  0.00    +0.000 C 
ENDBRANCH  12  14
ENDBRANCH  11  12
ENDBRANCH  10  11
ENDBRANCH   9  10
ENDBRANCH   8   9
ENDBRANCH   7   8
ENDBRANCH   1   7
BRANCH   4  15
ATOM     15  C   UNL     1       8.350   8.813  17.640  0.00  0.00    +0.000 C 
BRANCH  15  16
ATOM     16  C   UNL     1       8.939   9.399  18.937  0.00  0.00    +0.000 C 
BRANCH  16  17
ATOM     17  N   UNL     1       9.128  10.863  18.897  0.00  0.00    +0.000 NA
ATOM     18  C   UNL     1      10.105  11.263  17.875  0.00  0.00    +0.000 C 
ATOM     19  C   UNL     1      10.258  12.782  17.822  0.00  0.00    +0.000 C 
ATOM     20  C   UNL     1      10.679  13.326  19.186  0.00  0.00    +0.000 C 
ATOM     21  C   UNL     1       9.690  12.868  20.257  0.00  0.00    +0.000 C 
ATOM     22  C   UNL     1       9.536  11.347  20.230  0.00  0.00    +0.000 C 
BRANCH  20  23
ATOM     23  N   UNL     1      10.767  14.787  19.161  0.00  0.00    +0.000 NA
ATOM     24  H   UNL     1       9.957  15.183  19.638  0.00  0.00    +0.000 HD
ATOM     25  H   UNL     1      10.708  15.114  18.197  0.00  0.00    +0.000 HD
ENDBRANCH  20  23
ENDBRANCH  16  17
ENDBRANCH  15  16
ENDBRANCH   4  15
TORSDOF 11
ENDMDL
MODEL 8
REMARK VINA RESULT:      -6.3      5.519      9.085
REMARK  Name = 
REMARK  12 active torsions:
REMARK  status: ('A' for Active; 'I' for Inactive)
REMARK    1  A    between atoms: C_1  and  C_2
REMARK    2  A    between atoms: C_2  and  C_3
REMARK    3  A    between atoms: C_3  and  C_4
REMARK    4  A    between atoms: C_4  and  C_5
REMARK    5  A    between atoms: C_5  and  C_6
REMARK    6  A    between atoms: C_6  and  C_7
REMARK    7  A    between atoms: C_7  and  C_8
REMARK    8  A    between atoms: C_8  and  C_9
REMARK    9  A    between atoms: C_12  and  C_13
REMARK   10  A    between atoms: C_13  and  C_14
REMARK   11  A    between atoms: C_14  and  N_15
REMARK   12  A    between atoms: C_18  and  N_19
REMARK                            x       y       z     vdW  Elec       q    Type
REMARK                         _______ _______ _______ _____ _____    ______ ____
ROOT
ATOM      1  C   UNL     1       7.000   7.175  17.384  0.00  0.00    +0.000 A 
ATOM      2  C   UNL     1       5.635   7.285  17.091  0.00  0.00    +0.000 A 
ATOM      3  C   UNL     1       4.859   6.147  16.885  0.00  0.00    +0.000 A 
ATOM      4  C   UNL     1       5.441   4.876  16.934  0.00  0.00    +0.000 A 
ATOM      5  C   UNL     1       6.803   4.763  17.237  0.00  0.00    +0.000 A 
ATOM      6  C   UNL     1       7.576   5.904  17.462  0.00  0.00    +0.000 A 
ENDROOT
BRANCH   1   7
ATOM      7  C   UNL     1       7.840   8.408  17.583  0.00  0.00    +0.000 C 
BRANCH   7   8
ATOM      8  C   UNL     1       8.576   8.401  18.925  0.00  0.00    +0.000 C 
BRANCH   8   9
ATOM      9  C   UNL     1       9.203   9.761  19.208  0.00  0.00    +0.000 C 
BRANCH   9  10
ATOM     10  C   UNL     1       9.037  10.693  18.011  0.00  0.00    +0.000 C 
BRANCH  10  11
ATOM     11  C   UNL     1      10.278  11.560  17.823  0.00  0.00    +0.000 C 
BRANCH  11  12
ATOM     12  C   UNL     1      10.158  12.863  18.607  0.00  0.00    +0.000 C 
BRANCH  12  14
ATOM     13  C   UNL     1      10.144  12.877  21.121  0.00  0.00    +0.000 C 
ATOM     14  C   UNL     1      11.010  12.819  19.873  0.00  0.00    +0.000 C 
ENDBRANCH  12  14
ENDBRANCH  11  12
ENDBRANCH  10  11
ENDBRANCH   9  10
ENDBRANCH   8   9
ENDBRANCH   7   8
ENDBRANCH   1   7
BRANCH   4  15
ATOM     15  C   UNL     1       4.609   3.647  16.661  0.00  0.00    +0.000 C 
BRANCH  15  16
ATOM     16  C   UNL     1       3.118   3.876  16.974  0.00  0.00    +0.000 C 
BRANCH  16  17
ATOM     17  N   UNL     1       2.800   3.836  18.416  0.00  0.00    +0.000 NA
ATOM     18  C   UNL     1       3.499   2.741  19.103  0.00  0.00    +0.000 C 
ATOM     19  C   UNL     1       3.188   2.739  20.598  0.00  0.00    +0.000 C 
ATOM     20  C   UNL     1       1.683   2.624  20.832  0.00  0.00    +0.000 C 
ATOM     21  C   UNL     1       0.952   3.733  20.077  0.00  0.00    +0.000 C 
ATOM     22  C   UNL     1       1.340   3.721  18.598  0.00  0.00    +0.000 C 
BRANCH  20  23
ATOM     23  N   UNL     1       1.371   2.685  22.261  0.00  0.00    +0.000 NA
ATOM     24  H   UNL     1       2.173   2.352  22.797  0.00  0.00    +0.000 HD
ATOM     25  H   UNL     1       0.610   2.040  22.471  0.00  0.00    +0.000 HD
ENDBRANCH  20  23
ENDBRANCH  16  17
ENDBRANCH  15  16
ENDBRANCH   4  15
TORSDOF 11
ENDMDL
MODEL 9
REMARK VINA RESULT:      -6.2      1.073      1.990
REMARK  Name = 
REMARK  12 active torsions:
REMARK  status: ('A' for Active; 'I' for Inactive)
REMARK    1  A    between atoms: C_1  and  C_2
REMARK    2  A    between atoms: C_2  and  C_3
REMARK    3  A    between atoms: C_3  and  C_4
REMARK    4  A    between atoms: C_4  and  C_5
REMARK    5  A    between atoms: C_5  and  C_6
REMARK    6  A    between atoms: C_6  and  C_7
REMARK    7  A    between atoms: C_7  and  C_8
REMARK    8  A    between atoms: C_8  and  C_9
REMARK    9  A    between atoms: C_12  and  C_13
REMARK   10  A    between atoms: C_13  and  C_14
REMARK   11  A    between atoms: C_14  and  N_15
REMARK   12  A    between atoms: C_18  and  N_19
REMARK                            x       y       z     vdW  Elec       q    Type
REMARK                         _______ _______ _______ _____ _____    ______ ____
ROOT
ATOM      1  C   UNL     1       2.471   7.363  19.083  0.00  0.00    +0.000 A 
ATOM      2  C   UNL     1       2.150   8.254  18.052  0.00  0.00    +0.000 A 
ATOM      3  C   UNL     1       1.310   9.339  18.288  0.00  0.00    +0.000 A 
ATOM      4  C   UNL     1       0.746   9.535  19.554  0.00  0.00    +0.000 A 
ATOM      5  C   UNL     1       1.075   8.651  20.588  0.00  0.00    +0.000 A 
ATOM      6  C   UNL     1       1.932   7.574  20.354  0.00  0.00    +0.000 A 
ENDROOT
BRANCH   1   7
ATOM      7  C   UNL     1       3.362   6.178  18.817  0.00  0.00    +0.000 C 
BRANCH   7   8
ATOM      8  C   UNL     1       2.802   5.261  17.727  0.00  0.00    +0.000 C 
BRANCH   8   9
ATOM      9  C   UNL     1       3.611   3.973  17.633  0.00  0.00    +0.000 C 
BRANCH   9  10
ATOM     10  C   UNL     1       4.099   3.537  19.012  0.00  0.00    +0.000 C 
BRANCH  10  11
ATOM     11  C   UNL     1       3.191   2.458  19.592  0.00  0.00    +0.000 C 
BRANCH  11  12
ATOM     12  C   UNL     1       2.933   2.699  21.076  0.00  0.00    +0.000 C 
BRANCH  12  14
ATOM     13  C   UNL     1       0.789   3.815  20.386  0.00  0.00    +0.000 C 
ATOM     14  C   UNL     1       2.013   3.900  21.282  0.00  0.00    +0.000 C 
ENDBRANCH  12  14
ENDBRANCH  11  12
ENDBRANCH  10  11
ENDBRANCH   9  10
ENDBRANCH   8   9
ENDBRANCH   7   8
ENDBRANCH   1   7
BRANCH   4  15
ATOM     15  C   UNL     1      -0.204  10.683  19.794  0.00  0.00    +0.000 C 
BRANCH  15  16
ATOM     16  C   UNL     1      -0.350  11.584  18.552  0.00  0.00    +0.000 C 
BRANCH  16  17
ATOM     17  N   UNL     1      -1.750  11.810  18.143  0.00  0.00    +0.000 NA
ATOM     18  C   UNL     1      -2.666  11.807  19.292  0.00  0.00    +0.000 C 
ATOM     19  C   UNL     1      -4.104  12.080  18.853  0.00  0.00    +0.000 C 
ATOM     20  C   UNL     1      -4.555  11.047  17.823  0.00  0.00    +0.000 C 
ATOM     21  C   UNL     1      -3.575  11.016  16.652  0.00  0.00    +0.000 C 
ATOM     22  C   UNL     1      -2.147  10.791  17.152  0.00  0.00    +0.000 C 
BRANCH  20  23
ATOM     23  N   UNL     1      -5.910  11.339  17.351  0.00  0.00    +0.000 NA
ATOM     24  H   UNL     1      -6.494  11.606  18.143  0.00  0.00    +0.000 HD
ATOM     25  H   UNL     1      -6.328  10.490  16.972  0.00  0.00    +0.000 HD
ENDBRANCH  20  23
ENDBRANCH  16  17
ENDBRANCH  15  16
ENDBRANCH   4  15
TORSDOF 11
ENDMDL
