MODEL 1
REMARK VINA RESULT:      -6.8      0.000      0.000
REMARK  Name = 
REMARK  7 active torsions:
REMARK  status: ('A' for Active; 'I' for Inactive)
REMARK    1  A    between atoms: C_1  and  C_2
REMARK    2  A    between atoms: C_2  and  N_3
REMARK    3  A    between atoms: N_3  and  C_4
REMARK    4  A    between atoms: N_3  and  C_18
REMARK    5  A    between atoms: C_8  and  C_9
REMARK    6  A    between atoms: C_18  and  C_19
REMARK    7  A    between atoms: C_18  and  C_20
REMARK                            x       y       z     vdW  Elec       q    Type
REMARK                         _______ _______ _______ _____ _____    ______ ____
ROOT
ATOM      1  C   UNL     1       3.172   5.938  19.255  0.00  0.00    +0.000 A 
ATOM      2  N   UNL     1       4.109   4.960  19.228  0.00  0.00    +0.000 NA
ATOM      3  C   UNL     1       5.109   4.835  18.329  0.00  0.00    +0.000 A 
ATOM      4  N   UNL     1       6.004   3.747  18.516  0.00  0.00    +0.000 N 
ATOM      5  C   UNL     1       5.198   5.791  17.289  0.00  0.00    +0.000 A 
ATOM      6  N   UNL     1       4.272   6.792  17.291  0.00  0.00    +0.000 NA
ATOM      7  C   UNL     1       3.281   6.925  18.220  0.00  0.00    +0.000 A 
ATOM      8  I   UNL     1       2.056   8.620  17.830  0.00  0.00    +0.000 I 
ATOM      9  H   UNL     1       5.856   3.117  19.317  0.00  0.00    +0.000 HD
ATOM     10  H   UNL     1       6.831   3.560  17.946  0.00  0.00    +0.000 HD
ENDROOT
BRANCH   5  11
ATOM     11  C   UNL     1       6.234   5.769  16.198  0.00  0.00    +0.000 C 
ATOM     12  O   UNL     1       7.243   6.432  16.327  0.00  0.00    +0.000 OA
ATOM     13  N   UNL     1       6.069   4.994  15.077  0.00  0.00    +0.000 N 
ATOM     14  C   UNL     1       6.984   4.856  13.963  0.00  0.00    +0.000 C 
ATOM     15  N   UNL     1       8.106   5.486  13.869  0.00  0.00    +0.000 NA
ATOM     16  N   UNL     1       6.640   3.977  12.902  0.00  0.00    +0.000 N 
ATOM     17  H   UNL     1       5.208   4.431  15.010  0.00  0.00    +0.000 HD
ATOM     18  H   UNL     1       8.501   6.152  14.538  0.00  0.00    +0.000 HD
ATOM     19  H   UNL     1       5.760   3.444  12.924  0.00  0.00    +0.000 HD
ATOM     20  H   UNL     1       7.274   3.863  12.099  0.00  0.00    +0.000 HD
ENDBRANCH   5  11
BRANCH   1  21
ATOM     21  N   UNL     1       2.201   5.913  20.348  0.00  0.00    +0.000 N 
BRANCH  21  22
ATOM     22  C   UNL     1       1.385   4.704  20.614  0.00  0.00    +0.000 C 
ATOM     23  C   UNL     1       1.047   3.854  19.363  0.00  0.00    +0.000 C 
ATOM     24  C   UNL     1       2.109   3.775  21.609  0.00  0.00    +0.000 C 
ENDBRANCH  21  22
BRANCH  21  26
ATOM     25  C   UNL     1       0.533   7.735  21.186  0.00  0.00    +0.000 C 
ATOM     26  C   UNL     1       1.936   7.107  21.194  0.00  0.00    +0.000 C 
ENDBRANCH  21  26
ENDBRANCH   1  21
TORSDOF 4
ENDMDL
MODEL 2
REMARK VINA RESULT:      -6.8      3.353      7.154
REMARK  Name = 
REMARK  7 active torsions:
REMARK  status: ('A' for Active; 'I' for Inactive)
REMARK    1  A    between atoms: C_1  and  C_2
REMARK    2  A    between atoms: C_2  and  N_3
REMARK    3  A    between atoms: N_3  and  C_4
REMARK    4  A    between atoms: N_3  and  C_18
REMARK    5  A    between atoms: C_8  and  C_9
REMARK    6  A    between atoms: C_18  and  C_19
REMARK    7  A    between atoms: C_18  and  C_20
REMARK                            x       y       z     vdW  Elec       q    Type
REMARK                         _______ _______ _______ _____ _____    ______ ____
ROOT
ATOM      1  C   UNL     1       2.951   5.394  18.535  0.00  0.00    +0.000 A 
ATOM      2  N   UNL     1       2.928   6.611  17.941  0.00  0.00    +0.000 NA
ATOM      3  C   UNL     1       2.432   7.750  18.469  0.00  0.00    +0.000 A 
ATOM      4  N   UNL     1       2.547   8.925  17.679  0.00  0.00    +0.000 N 
ATOM      5  C   UNL     1       1.853   7.692  19.761  0.00  0.00    +0.000 A 
ATOM      6  N   UNL     1       1.866   6.482  20.388  0.00  0.00    +0.000 NA
ATOM      7  C   UNL     1       2.394   5.342  19.855  0.00  0.00    +0.000 A 
ATOM      8  I   UNL     1       2.184   3.684  21.173  0.00  0.00    +0.000 I 
ATOM      9  H   UNL     1       3.001   8.858  16.757  0.00  0.00    +0.000 HD
ATOM     10  H   UNL     1       2.263   9.863  17.971  0.00  0.00    +0.000 HD
ENDROOT
BRANCH   5  11
ATOM     11  C   UNL     1       1.233   8.866  20.469  0.00  0.00    +0.000 C 
ATOM     12  O   UNL     1       1.120   9.921  19.878  0.00  0.00    +0.000 OA
ATOM     13  N   UNL     1       0.774   8.757  21.758  0.00  0.00    +0.000 N 
ATOM     14  C   UNL     1       0.141   9.787  22.555  0.00  0.00    +0.000 C 
ATOM     15  N   UNL     1      -0.061  10.994  22.145  0.00  0.00    +0.000 NA
ATOM     16  N   UNL     1      -0.291   9.466  23.869  0.00  0.00    +0.000 N 
ATOM     17  H   UNL     1       0.872   7.841  22.222  0.00  0.00    +0.000 HD
ATOM     18  H   UNL     1       0.188  11.389  21.234  0.00  0.00    +0.000 HD
ATOM     19  H   UNL     1      -0.162   8.517  24.249  0.00  0.00    +0.000 HD
ATOM     20  H   UNL     1      -0.743  10.181  24.454  0.00  0.00    +0.000 HD
ENDBRANCH   5  11
BRANCH   1  21
ATOM     21  N   UNL     1       3.581   4.296  17.802  0.00  0.00    +0.000 N 
BRANCH  21  22
ATOM     22  C   UNL     1       5.031   4.318  17.498  0.00  0.00    +0.000 C 
ATOM     23  C   UNL     1       5.423   5.107  16.222  0.00  0.00    +0.000 C 
ATOM     24  C   UNL     1       5.817   4.938  18.671  0.00  0.00    +0.000 C 
ENDBRANCH  21  22
BRANCH  21  26
ATOM     25  C   UNL     1       2.999   1.755  17.875  0.00  0.00    +0.000 C 
ATOM     26  C   UNL     1       2.795   3.152  17.269  0.00  0.00    +0.000 C 
ENDBRANCH  21  26
ENDBRANCH   1  21
TORSDOF 4
ENDMDL
MODEL 3
REMARK VINA RESULT:      -6.7      3.843      6.496
REMARK  Name = 
REMARK  7 active torsions:
REMARK  status: ('A' for Active; 'I' for Inactive)
REMARK    1  A    between atoms: C_1  and  C_2
REMARK    2  A    between atoms: C_2  and  N_3
REMARK    3  A    between atoms: N_3  and  C_4
REMARK    4  A    between atoms: N_3  and  C_18
REMARK    5  A    between atoms: C_8  and  C_9
REMARK    6  A    between atoms: C_18  and  C_19
REMARK    7  A    between atoms: C_18  and  C_20
REMARK                            x       y       z     vdW  Elec       q    Type
REMARK                         _______ _______ _______ _____ _____    ______ ____
ROOT
ATOM      1  C   UNL     1       1.181   9.697  19.501  0.00  0.00    +0.000 A 
ATOM      2  N   UNL     1       1.899   9.055  18.548  0.00  0.00    +0.000 NA
ATOM      3  C   UNL     1       2.387   7.799  18.625  0.00  0.00    +0.000 A 
ATOM      4  N   UNL     1       3.083   7.312  17.485  0.00  0.00    +0.000 N 
ATOM      5  C   UNL     1       2.162   7.064  19.814  0.00  0.00    +0.000 A 
ATOM      6  N   UNL     1       1.438   7.680  20.791  0.00  0.00    +0.000 NA
ATOM      7  C   UNL     1       0.925   8.941  20.693  0.00  0.00    +0.000 A 
ATOM      8  I   UNL     1      -0.122   9.507  22.457  0.00  0.00    +0.000 I 
ATOM      9  H   UNL     1       3.176   7.927  16.664  0.00  0.00    +0.000 HD
ATOM     10  H   UNL     1       3.460   6.368  17.383  0.00  0.00    +0.000 HD
ENDROOT
BRANCH   5  11
ATOM     11  C   UNL     1       2.667   5.669  20.061  0.00  0.00    +0.000 C 
ATOM     12  O   UNL     1       3.727   5.329  19.576  0.00  0.00    +0.000 OA
ATOM     13  N   UNL     1       1.964   4.786  20.843  0.00  0.00    +0.000 N 
ATOM     14  C   UNL     1       2.333   3.428  21.184  0.00  0.00    +0.000 C 
ATOM     15  N   UNL     1       3.402   2.843  20.761  0.00  0.00    +0.000 NA
ATOM     16  N   UNL     1       1.476   2.681  22.035  0.00  0.00    +0.000 N 
ATOM     17  H   UNL     1       1.076   5.116  21.252  0.00  0.00    +0.000 HD
ATOM     18  H   UNL     1       4.120   3.235  20.144  0.00  0.00    +0.000 HD
ATOM     19  H   UNL     1       0.611   3.096  22.408  0.00  0.00    +0.000 HD
ATOM     20  H   UNL     1       1.717   1.713  22.291  0.00  0.00    +0.000 HD
ENDBRANCH   5  11
BRANCH   1  21
ATOM     21  N   UNL     1       0.706  11.046  19.195  0.00  0.00    +0.000 N 
BRANCH  21  22
ATOM     22  C   UNL     1       1.566  12.228  19.438  0.00  0.00    +0.000 C 
ATOM     23  C   UNL     1       2.394  12.700  18.215  0.00  0.00    +0.000 C 
ATOM     24  C   UNL     1       0.713  13.429  19.896  0.00  0.00    +0.000 C 
ENDBRANCH  21  22
BRANCH  21  26
ATOM     25  C   UNL     1      -1.445  10.166  18.012  0.00  0.00    +0.000 C 
ATOM     26  C   UNL     1      -0.672  11.302  18.699  0.00  0.00    +0.000 C 
ENDBRANCH  21  26
ENDBRANCH   1  21
TORSDOF 4
ENDMDL
MODEL 4
REMARK VINA RESULT:      -6.7      3.866      6.391
REMARK  Name = 
REMARK  7 active torsions:
REMARK  status: ('A' for Active; 'I' for Inactive)
REMARK    1  A    between atoms: C_1  and  C_2
REMARK    2  A    between atoms: C_2  and  N_3
REMARK    3  A    between atoms: N_3  and  C_4
REMARK    4  A    between atoms: N_3  and  C_18
REMARK    5  A    between atoms: C_8  and  C_9
REMARK    6  A    between atoms: C_18  and  C_19
REMARK    7  A    between atoms: C_18  and  C_20
REMARK                            x       y       z     vdW  Elec       q    Type
REMARK                         _______ _______ _______ _____ _____    ______ ____
ROOT
ATOM      1  C   UNL     1       1.160   9.653  19.556  0.00  0.00    +0.000 A 
ATOM      2  N   UNL     1       1.874   9.011  18.601  0.00  0.00    +0.000 NA
ATOM      3  C   UNL     1       2.368   7.757  18.679  0.00  0.00    +0.000 A 
ATOM      4  N   UNL     1       3.059   7.269  17.537  0.00  0.00    +0.000 N 
ATOM      5  C   UNL     1       2.154   7.026  19.873  0.00  0.00    +0.000 A 
ATOM      6  N   UNL     1       1.433   7.642  20.852  0.00  0.00    +0.000 NA
ATOM      7  C   UNL     1       0.914   8.901  20.752  0.00  0.00    +0.000 A 
ATOM      8  I   UNL     1      -0.125   9.469  22.520  0.00  0.00    +0.000 I 
ATOM      9  H   UNL     1       3.145   7.881  16.713  0.00  0.00    +0.000 HD
ATOM     10  H   UNL     1       3.439   6.326  17.436  0.00  0.00    +0.000 HD
ENDROOT
BRANCH   5  11
ATOM     11  C   UNL     1       2.666   5.633  20.122  0.00  0.00    +0.000 C 
ATOM     12  O   UNL     1       3.743   5.309  19.665  0.00  0.00    +0.000 OA
ATOM     13  N   UNL     1       1.949   4.736  20.874  0.00  0.00    +0.000 N 
ATOM     14  C   UNL     1       2.322   3.379  21.214  0.00  0.00    +0.000 C 
ATOM     15  N   UNL     1       3.410   2.809  20.817  0.00  0.00    +0.000 NA
ATOM     16  N   UNL     1       1.449   2.615  22.033  0.00  0.00    +0.000 N 
ATOM     17  H   UNL     1       1.047   5.053  21.261  0.00  0.00    +0.000 HD
ATOM     18  H   UNL     1       4.141   3.214  20.226  0.00  0.00    +0.000 HD
ATOM     19  H   UNL     1       0.568   3.018  22.384  0.00  0.00    +0.000 HD
ATOM     20  H   UNL     1       1.692   1.648  22.287  0.00  0.00    +0.000 HD
ENDBRANCH   5  11
BRANCH   1  21
ATOM     21  N   UNL     1       0.677  10.999  19.248  0.00  0.00    +0.000 N 
BRANCH  21  22
ATOM     22  C   UNL     1      -0.749  11.239  18.922  0.00  0.00    +0.000 C 
ATOM     23  C   UNL     1      -1.054  12.621  18.290  0.00  0.00    +0.000 C 
ATOM     24  C   UNL     1      -1.262  10.170  17.937  0.00  0.00    +0.000 C 
ENDBRANCH  21  22
BRANCH  21  26
ATOM     25  C   UNL     1       1.927  12.938  20.465  0.00  0.00    +0.000 C 
ATOM     26  C   UNL     1       1.593  12.168  19.178  0.00  0.00    +0.000 C 
ENDBRANCH  21  26
ENDBRANCH   1  21
TORSDOF 4
ENDMDL
MODEL 5
REMARK VINA RESULT:      -6.5      7.511      8.882
REMARK  Name = 
REMARK  7 active torsions:
REMARK  status: ('A' for Active; 'I' for Inactive)
REMARK    1  A    between atoms: C_1  and  C_2
REMARK    2  A    between atoms: C_2  and  N_3
REMARK    3  A    between atoms: N_3  and  C_4
REMARK    4  A    between atoms: N_3  and  C_18
REMARK    5  A    between atoms: C_8  and  C_9
REMARK    6  A    between atoms: C_18  and  C_19
REMARK    7  A    between atoms: C_18  and  C_20
REMARK                            x       y       z     vdW  Elec       q    Type
REMARK                         _______ _______ _______ _____ _____    ______ ____
ROOT
ATOM      1  C   UNL     1      -0.580  11.123  19.598  0.00  0.00    +0.000 A 
ATOM      2  N   UNL     1      -1.810  11.684  19.527  0.00  0.00    +0.000 NA
ATOM      3  C   UNL     1      -2.699  11.538  18.521  0.00  0.00    +0.000 A 
ATOM      4  N   UNL     1      -3.952  12.191  18.674  0.00  0.00    +0.000 N 
ATOM      5  C   UNL     1      -2.326  10.746  17.408  0.00  0.00    +0.000 A 
ATOM      6  N   UNL     1      -1.095  10.162  17.451  0.00  0.00    +0.000 NA
ATOM      7  C   UNL     1      -0.215  10.294  18.486  0.00  0.00    +0.000 A 
ATOM      8  I   UNL     1       1.591   9.227  18.127  0.00  0.00    +0.000 I 
ATOM      9  H   UNL     1      -4.125  12.732  19.534  0.00  0.00    +0.000 HD
ATOM     10  H   UNL     1      -4.734  12.127  18.020  0.00  0.00    +0.000 HD
ENDROOT
BRANCH   5  11
ATOM     11  C   UNL     1      -3.193  10.514  16.200  0.00  0.00    +0.000 C 
ATOM     12  O   UNL     1      -4.393  10.668  16.295  0.00  0.00    +0.000 OA
ATOM     13  N   UNL     1      -2.647  10.155  14.992  0.00  0.00    +0.000 N 
ATOM     14  C   UNL     1      -3.348   9.921  13.747  0.00  0.00    +0.000 C 
ATOM     15  N   UNL     1      -4.629  10.000  13.614  0.00  0.00    +0.000 NA
ATOM     16  N   UNL     1      -2.594   9.583  12.592  0.00  0.00    +0.000 N 
ATOM     17  H   UNL     1      -1.622  10.050  14.945  0.00  0.00    +0.000 HD
ATOM     18  H   UNL     1      -5.314  10.230  14.340  0.00  0.00    +0.000 HD
ATOM     19  H   UNL     1      -1.568   9.509  12.635  0.00  0.00    +0.000 HD
ATOM     20  H   UNL     1      -3.070   9.411  11.696  0.00  0.00    +0.000 HD
ENDBRANCH   5  11
BRANCH   1  21
ATOM     21  N   UNL     1       0.209  11.374  20.804  0.00  0.00    +0.000 N 
BRANCH  21  22
ATOM     22  C   UNL     1       0.035  10.534  22.014  0.00  0.00    +0.000 C 
ATOM     23  C   UNL     1      -1.108  10.977  22.962  0.00  0.00    +0.000 C 
ATOM     24  C   UNL     1      -0.250   9.072  21.616  0.00  0.00    +0.000 C 
ENDBRANCH  21  22
BRANCH  21  26
ATOM     25  C   UNL     1       1.937  12.950  19.651  0.00  0.00    +0.000 C 
ATOM     26  C   UNL     1       1.159  12.513  20.902  0.00  0.00    +0.000 C 
ENDBRANCH  21  26
ENDBRANCH   1  21
TORSDOF 4
ENDMDL
MODEL 6
REMARK VINA RESULT:      -6.5      3.350      7.038
REMARK  Name = 
REMARK  7 active torsions:
REMARK  status: ('A' for Active; 'I' for Inactive)
REMARK    1  A    between atoms: C_1  and  C_2
REMARK    2  A    between atoms: C_2  and  N_3
REMARK    3  A    between atoms: N_3  and  C_4
REMARK    4  A    between atoms: N_3  and  C_18
REMARK    5  A    between atoms: C_8  and  C_9
REMARK    6  A    between atoms: C_18  and  C_19
REMARK    7  A    between atoms: C_18  and  C_20
REMARK                            x       y       z     vdW  Elec       q    Type
REMARK                         _______ _______ _______ _____ _____    ______ ____
ROOT
ATOM      1  C   UNL     1       3.303   5.344  18.736  0.00  0.00    +0.000 A 
ATOM      2  N   UNL     1       3.286   6.545  18.110  0.00  0.00    +0.000 NA
ATOM      3  C   UNL     1       2.655   7.660  18.536  0.00  0.00    +0.000 A 
ATOM      4  N   UNL     1       2.804   8.825  17.736  0.00  0.00    +0.000 N 
ATOM      5  C   UNL     1       1.911   7.590  19.739  0.00  0.00    +0.000 A 
ATOM      6  N   UNL     1       1.912   6.396  20.396  0.00  0.00    +0.000 NA
ATOM      7  C   UNL     1       2.576   5.282  19.971  0.00  0.00    +0.000 A 
ATOM      8  I   UNL     1       2.291   3.640  21.294  0.00  0.00    +0.000 I 
ATOM      9  H   UNL     1       3.382   8.769  16.885  0.00  0.00    +0.000 HD
ATOM     10  H   UNL     1       2.427   9.748  17.961  0.00  0.00    +0.000 HD
ENDROOT
BRANCH   5  11
ATOM     11  C   UNL     1       1.132   8.736  20.325  0.00  0.00    +0.000 C 
ATOM     12  O   UNL     1       0.864   9.690  19.623  0.00  0.00    +0.000 OA
ATOM     13  N   UNL     1       0.700   8.709  21.628  0.00  0.00    +0.000 N 
ATOM     14  C   UNL     1      -0.072   9.721  22.319  0.00  0.00    +0.000 C 
ATOM     15  N   UNL     1      -0.449  10.832  21.782  0.00  0.00    +0.000 NA
ATOM     16  N   UNL     1      -0.447   9.491  23.669  0.00  0.00    +0.000 N 
ATOM     17  H   UNL     1       0.931   7.874  22.189  0.00  0.00    +0.000 HD
ATOM     18  H   UNL     1      -0.264  11.153  20.827  0.00  0.00    +0.000 HD
ATOM     19  H   UNL     1      -0.179   8.620  24.149  0.00  0.00    +0.000 HD
ATOM     20  H   UNL     1      -0.995  10.196  24.181  0.00  0.00    +0.000 HD
ENDBRANCH   5  11
BRANCH   1  21
ATOM     21  N   UNL     1       4.091   4.274  18.124  0.00  0.00    +0.000 N 
BRANCH  21  22
ATOM     22  C   UNL     1       3.429   3.143  17.431  0.00  0.00    +0.000 C 
ATOM     23  C   UNL     1       3.595   1.764  18.119  0.00  0.00    +0.000 C 
ATOM     24  C   UNL     1       1.914   3.403  17.304  0.00  0.00    +0.000 C 
ENDBRANCH  21  22
BRANCH  21  26
ATOM     25  C   UNL     1       6.419   4.444  16.961  0.00  0.00    +0.000 C 
ATOM     26  C   UNL     1       5.573   4.230  18.226  0.00  0.00    +0.000 C 
ENDBRANCH  21  26
ENDBRANCH   1  21
TORSDOF 4
ENDMDL
MODEL 7
REMARK VINA RESULT:      -6.5      3.618      7.140
REMARK  Name = 
REMARK  7 active torsions:
REMARK  status: ('A' for Active; 'I' for Inactive)
REMARK    1  A    between atoms: C_1  and  C_2
REMARK    2  A    between atoms: C_2  and  N_3
REMARK    3  A    between atoms: N_3  and  C_4
REMARK    4  A    between atoms: N_3  and  C_18
REMARK    5  A    between atoms: C_8  and  C_9
REMARK    6  A    between atoms: C_18  and  C_19
REMARK    7  A    between atoms: C_18  and  C_20
REMARK                            x       y       z     vdW  Elec       q    Type
REMARK                         _______ _______ _______ _____ _____    ______ ____
ROOT
ATOM      1  C   UNL     1       2.760   5.523  18.687  0.00  0.00    +0.000 A 
ATOM      2  N   UNL     1       2.717   6.782  18.189  0.00  0.00    +0.000 NA
ATOM      3  C   UNL     1       2.252   7.878  18.826  0.00  0.00    +0.000 A 
ATOM      4  N   UNL     1       2.338   9.110  18.123  0.00  0.00    +0.000 N 
ATOM      5  C   UNL     1       1.732   7.723  20.134  0.00  0.00    +0.000 A 
ATOM      6  N   UNL     1       1.766   6.468  20.666  0.00  0.00    +0.000 NA
ATOM      7  C   UNL     1       2.264   5.371  20.024  0.00  0.00    +0.000 A 
ATOM      8  I   UNL     1       2.104   3.618  21.220  0.00  0.00    +0.000 I 
ATOM      9  H   UNL     1       2.749   9.113  17.179  0.00  0.00    +0.000 HD
ATOM     10  H   UNL     1       2.073  10.023  18.499  0.00  0.00    +0.000 HD
ENDROOT
BRANCH   5  11
ATOM     11  C   UNL     1       1.152   8.841  20.958  0.00  0.00    +0.000 C 
ATOM     12  O   UNL     1       1.548   9.005  22.093  0.00  0.00    +0.000 OA
ATOM     13  N   UNL     1       0.205   9.688  20.439  0.00  0.00    +0.000 N 
ATOM     14  C   UNL     1      -0.423  10.813  21.100  0.00  0.00    +0.000 C 
ATOM     15  N   UNL     1      -0.179  11.162  22.318  0.00  0.00    +0.000 NA
ATOM     16  N   UNL     1      -1.367  11.590  20.377  0.00  0.00    +0.000 N 
ATOM     17  H   UNL     1      -0.094   9.529  19.464  0.00  0.00    +0.000 HD
ATOM     18  H   UNL     1       0.467  10.714  22.973  0.00  0.00    +0.000 HD
ATOM     19  H   UNL     1      -1.599  11.363  19.400  0.00  0.00    +0.000 HD
ATOM     20  H   UNL     1      -1.827  12.394  20.826  0.00  0.00    +0.000 HD
ENDBRANCH   5  11
BRANCH   1  21
ATOM     21  N   UNL     1       3.349   4.483  17.844  0.00  0.00    +0.000 N 
BRANCH  21  22
ATOM     22  C   UNL     1       4.798   4.485  17.535  0.00  0.00    +0.000 C 
ATOM     23  C   UNL     1       5.211   5.364  16.327  0.00  0.00    +0.000 C 
ATOM     24  C   UNL     1       5.607   4.982  18.751  0.00  0.00    +0.000 C 
ENDBRANCH  21  22
BRANCH  21  26
ATOM     25  C   UNL     1       2.623   1.981  17.719  0.00  0.00    +0.000 C 
ATOM     26  C   UNL     1       2.522   3.425  17.205  0.00  0.00    +0.000 C 
ENDBRANCH  21  26
ENDBRANCH   1  21
TORSDOF 4
ENDMDL
MODEL 8
REMARK VINA RESULT:      -6.5      1.716      1.886
REMARK  Name = 
REMARK  7 active torsions:
REMARK  status: ('A' for Active; 'I' for Inactive)
REMARK    1  A    between atoms: C_1  and  C_2
REMARK    2  A    between atoms: C_2  and  N_3
REMARK    3  A    between atoms: N_3  and  C_4
REMARK    4  A    between atoms: N_3  and  C_18
REMARK    5  A    between atoms: C_8  and  C_9
REMARK    6  A    between atoms: C_18  and  C_19
REMARK    7  A    between atoms: C_18  and  C_20
REMARK                            x       y       z     vdW  Elec       q    Type
REMARK                         _______ _______ _______ _____ _____    ______ ____
ROOT
ATOM      1  C   UNL     1       3.813   4.746  19.406  0.00  0.00    +0.000 A 
ATOM      2  N   UNL     1       5.078   5.191  19.600  0.00  0.00    +0.000 NA
ATOM      3  C   UNL     1       5.994   5.439  18.639  0.00  0.00    +0.000 A 
ATOM      4  N   UNL     1       7.253   5.938  19.070  0.00  0.00    +0.000 N 
ATOM      5  C   UNL     1       5.633   5.198  17.291  0.00  0.00    +0.000 A 
ATOM      6  N   UNL     1       4.364   4.755  17.062  0.00  0.00    +0.000 NA
ATOM      7  C   UNL     1       3.437   4.534  18.039  0.00  0.00    +0.000 A 
ATOM      8  I   UNL     1       1.596   3.832  17.234  0.00  0.00    +0.000 I 
ATOM      9  H   UNL     1       7.406   6.091  20.077  0.00  0.00    +0.000 HD
ATOM     10  H   UNL     1       8.019   6.217  18.453  0.00  0.00    +0.000 HD
ENDROOT
BRANCH   5  11
ATOM     11  C   UNL     1       6.551   5.397  16.116  0.00  0.00    +0.000 C 
ATOM     12  O   UNL     1       7.505   6.139  16.230  0.00  0.00    +0.000 OA
ATOM     13  N   UNL     1       6.340   4.738  14.930  0.00  0.00    +0.000 N 
ATOM     14  C   UNL     1       7.145   4.813  13.729  0.00  0.00    +0.000 C 
ATOM     15  N   UNL     1       8.193   5.557  13.608  0.00  0.00    +0.000 NA
ATOM     16  N   UNL     1       6.773   4.027  12.606  0.00  0.00    +0.000 N 
ATOM     17  H   UNL     1       5.529   4.103  14.876  0.00  0.00    +0.000 HD
ATOM     18  H   UNL     1       8.594   6.181  14.313  0.00  0.00    +0.000 HD
ATOM     19  H   UNL     1       5.949   3.410  12.645  0.00  0.00    +0.000 HD
ATOM     20  H   UNL     1       7.330   4.064  11.741  0.00  0.00    +0.000 HD
ENDBRANCH   5  11
BRANCH   1  21
ATOM     21  N   UNL     1       2.965   4.587  20.587  0.00  0.00    +0.000 N 
BRANCH  21  22
ATOM     22  C   UNL     1       2.932   3.306  21.332  0.00  0.00    +0.000 C 
ATOM     23  C   UNL     1       1.517   2.717  21.564  0.00  0.00    +0.000 C 
ATOM     24  C   UNL     1       3.752   2.231  20.590  0.00  0.00    +0.000 C 
ENDBRANCH  21  22
BRANCH  21  26
ATOM     25  C   UNL     1       1.976   6.978  20.260  0.00  0.00    +0.000 C 
ATOM     26  C   UNL     1       2.052   5.664  21.052  0.00  0.00    +0.000 C 
ENDBRANCH  21  26
ENDBRANCH   1  21
TORSDOF 4
ENDMDL
MODEL 9
REMARK VINA RESULT:      -6.3      3.694      5.803
REMARK  Name = 
REMARK  7 active torsions:
REMARK  status: ('A' for Active; 'I' for Inactive)
REMARK    1  A    between atoms: C_1  and  C_2
REMARK    2  A    between atoms: C_2  and  N_3
REMARK    3  A    between atoms: N_3  and  C_4
REMARK    4  A    between atoms: N_3  and  C_18
REMARK    5  A    between atoms: C_8  and  C_9
REMARK    6  A    between atoms: C_18  and  C_19
REMARK    7  A    between atoms: C_18  and  C_20
REMARK                            x       y       z     vdW  Elec       q    Type
REMARK                         _______ _______ _______ _____ _____    ______ ____
ROOT
ATOM      1  C   UNL     1       1.204   9.858  19.463  0.00  0.00    +0.000 A 
ATOM      2  N   UNL     1       1.899   9.287  18.451  0.00  0.00    +0.000 NA
ATOM      3  C   UNL     1       2.396   8.031  18.431  0.00  0.00    +0.000 A 
ATOM      4  N   UNL     1       3.064   7.626  17.244  0.00  0.00    +0.000 N 
ATOM      5  C   UNL     1       2.207   7.218  19.575  0.00  0.00    +0.000 A 
ATOM      6  N   UNL     1       1.505   7.763  20.609  0.00  0.00    +0.000 NA
ATOM      7  C   UNL     1       0.984   9.024  20.608  0.00  0.00    +0.000 A 
ATOM      8  I   UNL     1      -0.020   9.464  22.433  0.00  0.00    +0.000 I 
ATOM      9  H   UNL     1       3.132   8.294  16.463  0.00  0.00    +0.000 HD
ATOM     10  H   UNL     1       3.443   6.693  17.070  0.00  0.00    +0.000 HD
ENDROOT
BRANCH   5  11
ATOM     11  C   UNL     1       2.725   5.813  19.715  0.00  0.00    +0.000 C 
ATOM     12  O   UNL     1       1.997   4.957  20.174  0.00  0.00    +0.000 OA
ATOM     13  N   UNL     1       3.995   5.480  19.312  0.00  0.00    +0.000 N 
ATOM     14  C   UNL     1       4.619   4.175  19.365  0.00  0.00    +0.000 C 
ATOM     15  N   UNL     1       4.046   3.120  19.838  0.00  0.00    +0.000 NA
ATOM     16  N   UNL     1       5.942   4.030  18.870  0.00  0.00    +0.000 N 
ATOM     17  H   UNL     1       4.578   6.230  18.911  0.00  0.00    +0.000 HD
ATOM     18  H   UNL     1       3.104   3.051  20.233  0.00  0.00    +0.000 HD
ATOM     19  H   UNL     1       6.448   4.835  18.475  0.00  0.00    +0.000 HD
ATOM     20  H   UNL     1       6.407   3.112  18.897  0.00  0.00    +0.000 HD
ENDBRANCH   5  11
BRANCH   1  21
ATOM     21  N   UNL     1       0.714  11.221  19.260  0.00  0.00    +0.000 N 
BRANCH  21  22
ATOM     22  C   UNL     1      -0.635  11.468  18.698  0.00  0.00    +0.000 C 
ATOM     23  C   UNL     1      -1.352  10.213  18.137  0.00  0.00    +0.000 C 
ATOM     24  C   UNL     1      -1.562  12.075  19.771  0.00  0.00    +0.000 C 
ENDBRANCH  21  22
BRANCH  21  26
ATOM     25  C   UNL     1       2.342  13.061  18.384  0.00  0.00    +0.000 C 
ATOM     26  C   UNL     1       1.559  12.413  19.537  0.00  0.00    +0.000 C 
ENDBRANCH  21  26
ENDBRANCH   1  21
TORSDOF 4
ENDMDL
