MODEL 1
REMARK VINA RESULT:      -6.4      0.000      0.000
REMARK  Name = 
REMARK  10 active torsions:
REMARK  status: ('A' for Active; 'I' for Inactive)
REMARK    1  A    between atoms: C_1  and  O_2
REMARK    2  A    between atoms: O_2  and  C_3
REMARK    3  A    between atoms: C_6  and  N_7
REMARK    4  A    between atoms: N_7  and  C_8
REMARK    5  A    between atoms: C_8  and  N_10
REMARK    6  A    between atoms: C_12  and  C_13
REMARK    7  A    between atoms: C_14  and  O_15
REMARK    8  A    between atoms: C_19  and  O_20
REMARK    9  A    between atoms: O_20  and  C_21
REMARK   10  A    between atoms: C_23  and  C_24
REMARK                            x       y       z     vdW  Elec       q    Type
REMARK                         _______ _______ _______ _____ _____    ______ ____
ROOT
ATOM      1  N   UNL     1       6.601  13.662  22.825  0.00  0.00    +0.000 N 
ATOM      2  N   UNL     1       6.302  13.519  24.165  0.00  0.00    +0.000 NA
ATOM      3  C   UNL     1       6.840  12.419  24.587  0.00  0.00    +0.000 C 
ATOM      4  C   UNL     1       7.716  11.720  23.571  0.00  0.00    +0.000 C 
ATOM      5  C   UNL     1       7.667  12.726  22.411  0.00  0.00    +0.000 C 
ENDROOT
BRANCH   5   6
ATOM      6  C   UNL     1       8.952  13.544  22.188  0.00  0.00    +0.000 A 
ATOM      7  C   UNL     1       9.059  14.801  22.826  0.00  0.00    +0.000 A 
ATOM      8  C   UNL     1      10.037  15.719  22.463  0.00  0.00    +0.000 A 
ATOM      9  C   UNL     1      10.900  15.425  21.419  0.00  0.00    +0.000 A 
ATOM     10  C   UNL     1      10.838  14.193  20.764  0.00  0.00    +0.000 A 
ATOM     11  C   UNL     1      11.673  13.957  19.666  0.00  0.00    +0.000 A 
ATOM     12  C   UNL     1      11.668  12.731  19.007  0.00  0.00    +0.000 A 
ATOM     13  C   UNL     1      10.857  11.707  19.475  0.00  0.00    +0.000 A 
ATOM     14  C   UNL     1       9.989  11.936  20.548  0.00  0.00    +0.000 A 
ATOM     15  C   UNL     1       9.906  13.198  21.186  0.00  0.00    +0.000 A 
ENDBRANCH   5   6
BRANCH   3  16
ATOM     16  C   UNL     1       6.602  11.884  25.951  0.00  0.00    +0.000 A 
ATOM     17  C   UNL     1       5.587  10.925  26.139  0.00  0.00    +0.000 A 
ATOM     18  C   UNL     1       5.260  10.442  27.409  0.00  0.00    +0.000 A 
ATOM     19  C   UNL     1       5.960  10.880  28.524  0.00  0.00    +0.000 A 
ATOM     20  C   UNL     1       6.979  11.814  28.359  0.00  0.00    +0.000 A 
ATOM     21  C   UNL     1       7.312  12.329  27.089  0.00  0.00    +0.000 A 
BRANCH  17  22
ATOM     22  O   UNL     1       4.846  10.384  25.121  0.00  0.00    +0.000 OA
ATOM     23  H   UNL     1       5.362  10.423  24.299  0.00  0.00    +0.000 HD
ENDBRANCH  17  22
BRANCH  21  24
ATOM     24  O   UNL     1       8.199  13.369  27.195  0.00  0.00    +0.000 OA
ATOM     25  C   UNL     1       7.722  14.632  27.636  0.00  0.00    +0.000 C 
ENDBRANCH  21  24
ENDBRANCH   3  16
BRANCH   1  26
ATOM     26  C   UNL     1       6.019  14.706  22.087  0.00  0.00    +0.000 C 
ATOM     27  S   UNL     1       5.202  15.958  22.878  0.00  0.00    +0.000 S 
BRANCH  26  28
ATOM     28  N   UNL     1       6.181  14.571  20.702  0.00  0.00    +0.000 N 
ATOM     29  H   UNL     1       5.531  13.950  20.253  0.00  0.00    +0.000 HD
BRANCH  28  33
ATOM     30  C   UNL     1       9.005  16.148  17.927  0.00  0.00    +0.000 A 
ATOM     31  C   UNL     1       8.503  16.959  18.939  0.00  0.00    +0.000 A 
ATOM     32  C   UNL     1       7.577  16.464  19.864  0.00  0.00    +0.000 A 
ATOM     33  C   UNL     1       7.145  15.141  19.818  0.00  0.00    +0.000 A 
ATOM     34  C   UNL     1       7.632  14.335  18.776  0.00  0.00    +0.000 A 
ATOM     35  C   UNL     1       8.553  14.834  17.836  0.00  0.00    +0.000 A 
BRANCH  30  37
ATOM     36  C   UNL     1      11.024  16.021  16.699  0.00  0.00    +0.000 C 
ATOM     37  O   UNL     1       9.876  16.767  17.079  0.00  0.00    +0.000 OA
ENDBRANCH  30  37
ENDBRANCH  28  33
ENDBRANCH  26  28
ENDBRANCH   1  26
TORSDOF 8
ENDMDL
MODEL 2
REMARK VINA RESULT:      -6.3      8.604     11.676
REMARK  Name = 
REMARK  10 active torsions:
REMARK  status: ('A' for Active; 'I' for Inactive)
REMARK    1  A    between atoms: C_1  and  O_2
REMARK    2  A    between atoms: O_2  and  C_3
REMARK    3  A    between atoms: C_6  and  N_7
REMARK    4  A    between atoms: N_7  and  C_8
REMARK    5  A    between atoms: C_8  and  N_10
REMARK    6  A    between atoms: C_12  and  C_13
REMARK    7  A    between atoms: C_14  and  O_15
REMARK    8  A    between atoms: C_19  and  O_20
REMARK    9  A    between atoms: O_20  and  C_21
REMARK   10  A    between atoms: C_23  and  C_24
REMARK                            x       y       z     vdW  Elec       q    Type
REMARK                         _______ _______ _______ _____ _____    ______ ____
ROOT
ATOM      1  N   UNL     1      -0.481  11.932  20.092  0.00  0.00    +0.000 N 
ATOM      2  N   UNL     1       0.553  12.846  20.094  0.00  0.00    +0.000 NA
ATOM      3  C   UNL     1       0.480  13.546  19.007  0.00  0.00    +0.000 C 
ATOM      4  C   UNL     1      -0.743  13.264  18.161  0.00  0.00    +0.000 C 
ATOM      5  C   UNL     1      -1.483  12.258  19.056  0.00  0.00    +0.000 C 
ENDROOT
BRANCH   5   6
ATOM      6  C   UNL     1      -2.737  12.800  19.766  0.00  0.00    +0.000 A 
ATOM      7  C   UNL     1      -2.555  13.683  20.855  0.00  0.00    +0.000 A 
ATOM      8  C   UNL     1      -3.596  13.992  21.722  0.00  0.00    +0.000 A 
ATOM      9  C   UNL     1      -4.831  13.386  21.553  0.00  0.00    +0.000 A 
ATOM     10  C   UNL     1      -5.062  12.514  20.487  0.00  0.00    +0.000 A 
ATOM     11  C   UNL     1      -6.297  11.863  20.388  0.00  0.00    +0.000 A 
ATOM     12  C   UNL     1      -6.579  11.012  19.323  0.00  0.00    +0.000 A 
ATOM     13  C   UNL     1      -5.641  10.843  18.316  0.00  0.00    +0.000 A 
ATOM     14  C   UNL     1      -4.388  11.458  18.415  0.00  0.00    +0.000 A 
ATOM     15  C   UNL     1      -4.035  12.260  19.529  0.00  0.00    +0.000 A 
ENDBRANCH   5   6
BRANCH   3  16
ATOM     16  C   UNL     1       1.520  14.531  18.617  0.00  0.00    +0.000 A 
ATOM     17  C   UNL     1       2.759  14.059  18.137  0.00  0.00    +0.000 A 
ATOM     18  C   UNL     1       3.806  14.931  17.830  0.00  0.00    +0.000 A 
ATOM     19  C   UNL     1       3.635  16.302  17.963  0.00  0.00    +0.000 A 
ATOM     20  C   UNL     1       2.414  16.790  18.418  0.00  0.00    +0.000 A 
ATOM     21  C   UNL     1       1.350  15.927  18.753  0.00  0.00    +0.000 A 
BRANCH  17  22
ATOM     22  O   UNL     1       3.046  12.736  17.926  0.00  0.00    +0.000 OA
ATOM     23  H   UNL     1       3.471  12.374  18.721  0.00  0.00    +0.000 HD
ENDBRANCH  17  22
BRANCH  21  24
ATOM     24  O   UNL     1       0.329  16.612  19.359  0.00  0.00    +0.000 OA
ATOM     25  C   UNL     1      -0.660  17.225  18.545  0.00  0.00    +0.000 C 
ENDBRANCH  21  24
ENDBRANCH   3  16
BRANCH   1  26
ATOM     26  C   UNL     1      -0.550  10.954  21.098  0.00  0.00    +0.000 C 
ATOM     27  S   UNL     1      -0.846  11.398  22.702  0.00  0.00    +0.000 S 
BRANCH  26  28
ATOM     28  N   UNL     1      -0.340   9.651  20.628  0.00  0.00    +0.000 N 
ATOM     29  H   UNL     1      -1.015   8.971  20.932  0.00  0.00    +0.000 HD
BRANCH  28  33
ATOM     30  C   UNL     1       2.744   7.873  18.285  0.00  0.00    +0.000 A 
ATOM     31  C   UNL     1       2.031   8.955  17.782  0.00  0.00    +0.000 A 
ATOM     32  C   UNL     1       1.016   9.558  18.533  0.00  0.00    +0.000 A 
ATOM     33  C   UNL     1       0.701   9.112  19.814  0.00  0.00    +0.000 A 
ATOM     34  C   UNL     1       1.404   8.000  20.305  0.00  0.00    +0.000 A 
ATOM     35  C   UNL     1       2.417   7.383  19.546  0.00  0.00    +0.000 A 
BRANCH  30  37
ATOM     36  C   UNL     1       4.277   6.131  17.817  0.00  0.00    +0.000 C 
ATOM     37  O   UNL     1       3.684   7.365  17.437  0.00  0.00    +0.000 OA
ENDBRANCH  30  37
ENDBRANCH  28  33
ENDBRANCH  26  28
ENDBRANCH   1  26
TORSDOF 8
ENDMDL
MODEL 3
REMARK VINA RESULT:      -6.2      6.992     10.578
REMARK  Name = 
REMARK  10 active torsions:
REMARK  status: ('A' for Active; 'I' for Inactive)
REMARK    1  A    between atoms: C_1  and  O_2
REMARK    2  A    between atoms: O_2  and  C_3
REMARK    3  A    between atoms: C_6  and  N_7
REMARK    4  A    between atoms: N_7  and  C_8
REMARK    5  A    between atoms: C_8  and  N_10
REMARK    6  A    between atoms: C_12  and  C_13
REMARK    7  A    between atoms: C_14  and  O_15
REMARK    8  A    between atoms: C_19  and  O_20
REMARK    9  A    between atoms: O_20  and  C_21
REMARK   10  A    between atoms: C_23  and  C_24
REMARK                            x       y       z     vdW  Elec       q    Type
REMARK                         _______ _______ _______ _____ _____    ______ ____
ROOT
ATOM      1  N   UNL     1       0.533  12.669  19.310  0.00  0.00    +0.000 N 
ATOM      2  N   UNL     1       1.906  12.806  19.342  0.00  0.00    +0.000 NA
ATOM      3  C   UNL     1       2.189  13.950  19.879  0.00  0.00    +0.000 C 
ATOM      4  C   UNL     1       0.992  14.703  20.416  0.00  0.00    +0.000 C 
ATOM      5  C   UNL     1      -0.127  13.681  20.162  0.00  0.00    +0.000 C 
ENDROOT
BRANCH   5   6
ATOM      6  C   UNL     1      -0.667  12.964  21.413  0.00  0.00    +0.000 A 
ATOM      7  C   UNL     1      -0.043  11.761  21.811  0.00  0.00    +0.000 A 
ATOM      8  C   UNL     1      -0.630  10.909  22.740  0.00  0.00    +0.000 A 
ATOM      9  C   UNL     1      -1.880  11.215  23.255  0.00  0.00    +0.000 A 
ATOM     10  C   UNL     1      -2.533  12.398  22.898  0.00  0.00    +0.000 A 
ATOM     11  C   UNL     1      -3.825  12.640  23.378  0.00  0.00    +0.000 A 
ATOM     12  C   UNL     1      -4.497  13.820  23.074  0.00  0.00    +0.000 A 
ATOM     13  C   UNL     1      -3.858  14.796  22.323  0.00  0.00    +0.000 A 
ATOM     14  C   UNL     1      -2.581  14.557  21.805  0.00  0.00    +0.000 A 
ATOM     15  C   UNL     1      -1.903  13.331  22.021  0.00  0.00    +0.000 A 
ENDBRANCH   5   6
BRANCH   3  16
ATOM     16  C   UNL     1       3.573  14.483  19.944  0.00  0.00    +0.000 A 
ATOM     17  C   UNL     1       4.237  14.503  21.187  0.00  0.00    +0.000 A 
ATOM     18  C   UNL     1       5.508  15.064  21.331  0.00  0.00    +0.000 A 
ATOM     19  C   UNL     1       6.165  15.595  20.230  0.00  0.00    +0.000 A 
ATOM     20  C   UNL     1       5.535  15.569  18.989  0.00  0.00    +0.000 A 
ATOM     21  C   UNL     1       4.244  15.025  18.826  0.00  0.00    +0.000 A 
BRANCH  17  22
ATOM     22  O   UNL     1       3.716  13.981  22.343  0.00  0.00    +0.000 OA
ATOM     23  H   UNL     1       2.815  13.664  22.168  0.00  0.00    +0.000 HD
ENDBRANCH  17  22
BRANCH  21  24
ATOM     24  O   UNL     1       3.753  15.288  17.573  0.00  0.00    +0.000 OA
ATOM     25  C   UNL     1       3.180  16.562  17.317  0.00  0.00    +0.000 C 
ENDBRANCH  21  24
ENDBRANCH   3  16
BRANCH   1  26
ATOM     26  C   UNL     1      -0.045  11.572  18.649  0.00  0.00    +0.000 C 
ATOM     27  S   UNL     1      -1.727  11.420  18.557  0.00  0.00    +0.000 S 
BRANCH  26  28
ATOM     28  N   UNL     1       0.895  10.675  18.126  0.00  0.00    +0.000 N 
ATOM     29  H   UNL     1       1.294  10.940  17.242  0.00  0.00    +0.000 HD
BRANCH  28  33
ATOM     30  C   UNL     1       2.421   6.931  19.472  0.00  0.00    +0.000 A 
ATOM     31  C   UNL     1       1.702   7.739  20.346  0.00  0.00    +0.000 A 
ATOM     32  C   UNL     1       1.188   8.971  19.927  0.00  0.00    +0.000 A 
ATOM     33  C   UNL     1       1.358   9.419  18.620  0.00  0.00    +0.000 A 
ATOM     34  C   UNL     1       2.112   8.614  17.750  0.00  0.00    +0.000 A 
ATOM     35  C   UNL     1       2.641   7.379  18.173  0.00  0.00    +0.000 A 
BRANCH  30  37
ATOM     36  C   UNL     1       1.947   4.991  20.742  0.00  0.00    +0.000 C 
ATOM     37  O   UNL     1       2.889   5.772  20.020  0.00  0.00    +0.000 OA
ENDBRANCH  30  37
ENDBRANCH  28  33
ENDBRANCH  26  28
ENDBRANCH   1  26
TORSDOF 8
ENDMDL
MODEL 4
REMARK VINA RESULT:      -6.1      8.148     11.322
REMARK  Name = 
REMARK  10 active torsions:
REMARK  status: ('A' for Active; 'I' for Inactive)
REMARK    1  A    between atoms: C_1  and  O_2
REMARK    2  A    between atoms: O_2  and  C_3
REMARK    3  A    between atoms: C_6  and  N_7
REMARK    4  A    between atoms: N_7  and  C_8
REMARK    5  A    between atoms: C_8  and  N_10
REMARK    6  A    between atoms: C_12  and  C_13
REMARK    7  A    between atoms: C_14  and  O_15
REMARK    8  A    between atoms: C_19  and  O_20
REMARK    9  A    between atoms: O_20  and  C_21
REMARK   10  A    between atoms: C_23  and  C_24
REMARK                            x       y       z     vdW  Elec       q    Type
REMARK                         _______ _______ _______ _____ _____    ______ ____
ROOT
ATOM      1  N   UNL     1       0.581  12.690  19.118  0.00  0.00    +0.000 N 
ATOM      2  N   UNL     1       1.957  12.800  19.110  0.00  0.00    +0.000 NA
ATOM      3  C   UNL     1       2.278  13.935  19.645  0.00  0.00    +0.000 C 
ATOM      4  C   UNL     1       1.112  14.707  20.223  0.00  0.00    +0.000 C 
ATOM      5  C   UNL     1      -0.033  13.709  19.996  0.00  0.00    +0.000 C 
ENDROOT
BRANCH   5   6
ATOM      6  C   UNL     1      -0.550  12.994  21.258  0.00  0.00    +0.000 A 
ATOM      7  C   UNL     1       0.117  11.820  21.677  0.00  0.00    +0.000 A 
ATOM      8  C   UNL     1      -0.441  10.964  22.618  0.00  0.00    +0.000 A 
ATOM      9  C   UNL     1      -1.703  11.232  23.127  0.00  0.00    +0.000 A 
ATOM     10  C   UNL     1      -2.397  12.384  22.749  0.00  0.00    +0.000 A 
ATOM     11  C   UNL     1      -3.698  12.587  23.223  0.00  0.00    +0.000 A 
ATOM     12  C   UNL     1      -4.411  13.737  22.898  0.00  0.00    +0.000 A 
ATOM     13  C   UNL     1      -3.807  14.723  22.132  0.00  0.00    +0.000 A 
ATOM     14  C   UNL     1      -2.521  14.522  21.620  0.00  0.00    +0.000 A 
ATOM     15  C   UNL     1      -1.799  13.326  21.858  0.00  0.00    +0.000 A 
ENDBRANCH   5   6
BRANCH   3  16
ATOM     16  C   UNL     1       3.673  14.441  19.673  0.00  0.00    +0.000 A 
ATOM     17  C   UNL     1       4.306  14.760  18.456  0.00  0.00    +0.000 A 
ATOM     18  C   UNL     1       5.643  15.164  18.408  0.00  0.00    +0.000 A 
ATOM     19  C   UNL     1       6.377  15.290  19.579  0.00  0.00    +0.000 A 
ATOM     20  C   UNL     1       5.766  14.996  20.794  0.00  0.00    +0.000 A 
ATOM     21  C   UNL     1       4.424  14.568  20.863  0.00  0.00    +0.000 A 
BRANCH  17  22
ATOM     22  O   UNL     1       3.687  14.714  17.234  0.00  0.00    +0.000 OA
ATOM     23  H   UNL     1       4.041  15.423  16.672  0.00  0.00    +0.000 HD
ENDBRANCH  17  22
BRANCH  21  24
ATOM     24  O   UNL     1       4.103  14.151  22.130  0.00  0.00    +0.000 OA
ATOM     25  C   UNL     1       4.579  14.902  23.238  0.00  0.00    +0.000 C 
ENDBRANCH  21  24
ENDBRANCH   3  16
BRANCH   1  26
ATOM     26  C   UNL     1      -0.038  11.610  18.467  0.00  0.00    +0.000 C 
ATOM     27  S   UNL     1       0.544  10.037  18.684  0.00  0.00    +0.000 S 
BRANCH  26  28
ATOM     28  N   UNL     1      -1.116  11.987  17.657  0.00  0.00    +0.000 N 
ATOM     29  H   UNL     1      -0.874  12.532  16.847  0.00  0.00    +0.000 HD
BRANCH  28  33
ATOM     30  C   UNL     1      -5.285  11.165  17.976  0.00  0.00    +0.000 A 
ATOM     31  C   UNL     1      -4.613  11.750  19.043  0.00  0.00    +0.000 A 
ATOM     32  C   UNL     1      -3.245  12.032  18.962  0.00  0.00    +0.000 A 
ATOM     33  C   UNL     1      -2.517  11.759  17.807  0.00  0.00    +0.000 A 
ATOM     34  C   UNL     1      -3.195  11.140  16.743  0.00  0.00    +0.000 A 
ATOM     35  C   UNL     1      -4.568  10.844  16.827  0.00  0.00    +0.000 A 
BRANCH  30  37
ATOM     36  C   UNL     1      -6.909   9.934  19.181  0.00  0.00    +0.000 C 
ATOM     37  O   UNL     1      -6.608  10.918  18.201  0.00  0.00    +0.000 OA
ENDBRANCH  30  37
ENDBRANCH  28  33
ENDBRANCH  26  28
ENDBRANCH   1  26
TORSDOF 8
ENDMDL
MODEL 5
REMARK VINA RESULT:      -6.1      7.645     10.466
REMARK  Name = 
REMARK  10 active torsions:
REMARK  status: ('A' for Active; 'I' for Inactive)
REMARK    1  A    between atoms: C_1  and  O_2
REMARK    2  A    between atoms: O_2  and  C_3
REMARK    3  A    between atoms: C_6  and  N_7
REMARK    4  A    between atoms: N_7  and  C_8
REMARK    5  A    between atoms: C_8  and  N_10
REMARK    6  A    between atoms: C_12  and  C_13
REMARK    7  A    between atoms: C_14  and  O_15
REMARK    8  A    between atoms: C_19  and  O_20
REMARK    9  A    between atoms: O_20  and  C_21
REMARK   10  A    between atoms: C_23  and  C_24
REMARK                            x       y       z     vdW  Elec       q    Type
REMARK                         _______ _______ _______ _____ _____    ______ ____
ROOT
ATOM      1  N   UNL     1       1.024  11.645  19.857  0.00  0.00    +0.000 N 
ATOM      2  N   UNL     1       1.800  12.393  20.720  0.00  0.00    +0.000 NA
ATOM      3  C   UNL     1       2.043  13.537  20.163  0.00  0.00    +0.000 C 
ATOM      4  C   UNL     1       1.321  13.761  18.852  0.00  0.00    +0.000 C 
ATOM      5  C   UNL     1       0.472  12.483  18.771  0.00  0.00    +0.000 C 
ENDROOT
BRANCH   5   6
ATOM      6  C   UNL     1      -1.033  12.668  19.037  0.00  0.00    +0.000 A 
ATOM      7  C   UNL     1      -1.421  13.371  20.200  0.00  0.00    +0.000 A 
ATOM      8  C   UNL     1      -2.730  13.341  20.665  0.00  0.00    +0.000 A 
ATOM      9  C   UNL     1      -3.673  12.566  20.009  0.00  0.00    +0.000 A 
ATOM     10  C   UNL     1      -3.339  11.860  18.850  0.00  0.00    +0.000 A 
ATOM     11  C   UNL     1      -4.295  11.029  18.255  0.00  0.00    +0.000 A 
ATOM     12  C   UNL     1      -4.014  10.335  17.082  0.00  0.00    +0.000 A 
ATOM     13  C   UNL     1      -2.784  10.506  16.463  0.00  0.00    +0.000 A 
ATOM     14  C   UNL     1      -1.804  11.305  17.062  0.00  0.00    +0.000 A 
ATOM     15  C   UNL     1      -2.025  11.956  18.302  0.00  0.00    +0.000 A 
ENDBRANCH   5   6
BRANCH   3  16
ATOM     16  C   UNL     1       2.966  14.536  20.755  0.00  0.00    +0.000 A 
ATOM     17  C   UNL     1       2.585  15.198  21.940  0.00  0.00    +0.000 A 
ATOM     18  C   UNL     1       3.373  16.205  22.503  0.00  0.00    +0.000 A 
ATOM     19  C   UNL     1       4.579  16.558  21.916  0.00  0.00    +0.000 A 
ATOM     20  C   UNL     1       4.983  15.905  20.756  0.00  0.00    +0.000 A 
ATOM     21  C   UNL     1       4.195  14.900  20.160  0.00  0.00    +0.000 A 
BRANCH  17  22
ATOM     22  O   UNL     1       1.439  14.920  22.638  0.00  0.00    +0.000 OA
ATOM     23  H   UNL     1       0.823  14.442  22.058  0.00  0.00    +0.000 HD
ENDBRANCH  17  22
BRANCH  21  24
ATOM     24  O   UNL     1       4.692  14.545  18.932  0.00  0.00    +0.000 OA
ATOM     25  C   UNL     1       4.463  15.407  17.827  0.00  0.00    +0.000 C 
ENDBRANCH  21  24
ENDBRANCH   3  16
BRANCH   1  26
ATOM     26  C   UNL     1       0.733  10.305  20.161  0.00  0.00    +0.000 C 
ATOM     27  S   UNL     1       0.235   9.873  21.718  0.00  0.00    +0.000 S 
BRANCH  26  28
ATOM     28  N   UNL     1       0.915   9.433  19.081  0.00  0.00    +0.000 N 
ATOM     29  H   UNL     1       0.249   9.532  18.333  0.00  0.00    +0.000 HD
BRANCH  28  33
ATOM     30  C   UNL     1       3.659   6.213  18.575  0.00  0.00    +0.000 A 
ATOM     31  C   UNL     1       3.554   7.192  17.593  0.00  0.00    +0.000 A 
ATOM     32  C   UNL     1       2.662   8.261  17.737  0.00  0.00    +0.000 A 
ATOM     33  C   UNL     1       1.869   8.393  18.874  0.00  0.00    +0.000 A 
ATOM     34  C   UNL     1       1.957   7.385  19.848  0.00  0.00    +0.000 A 
ATOM     35  C   UNL     1       2.844   6.302  19.699  0.00  0.00    +0.000 A 
BRANCH  30  37
ATOM     36  C   UNL     1       4.291   4.461  17.114  0.00  0.00    +0.000 C 
ATOM     37  O   UNL     1       4.545   5.214  18.292  0.00  0.00    +0.000 OA
ENDBRANCH  30  37
ENDBRANCH  28  33
ENDBRANCH  26  28
ENDBRANCH   1  26
TORSDOF 8
ENDMDL
MODEL 6
REMARK VINA RESULT:      -6.0      9.222     11.670
REMARK  Name = 
REMARK  10 active torsions:
REMARK  status: ('A' for Active; 'I' for Inactive)
REMARK    1  A    between atoms: C_1  and  O_2
REMARK    2  A    between atoms: O_2  and  C_3
REMARK    3  A    between atoms: C_6  and  N_7
REMARK    4  A    between atoms: N_7  and  C_8
REMARK    5  A    between atoms: C_8  and  N_10
REMARK    6  A    between atoms: C_12  and  C_13
REMARK    7  A    between atoms: C_14  and  O_15
REMARK    8  A    between atoms: C_19  and  O_20
REMARK    9  A    between atoms: O_20  and  C_21
REMARK   10  A    between atoms: C_23  and  C_24
REMARK                            x       y       z     vdW  Elec       q    Type
REMARK                         _______ _______ _______ _____ _____    ______ ____
ROOT
ATOM      1  N   UNL     1      -0.254  12.358  20.181  0.00  0.00    +0.000 N 
ATOM      2  N   UNL     1      -0.525  12.522  21.525  0.00  0.00    +0.000 NA
ATOM      3  C   UNL     1      -1.497  13.370  21.644  0.00  0.00    +0.000 C 
ATOM      4  C   UNL     1      -2.114  13.803  20.333  0.00  0.00    +0.000 C 
ATOM      5  C   UNL     1      -1.332  12.924  19.344  0.00  0.00    +0.000 C 
ENDROOT
BRANCH   5   6
ATOM      6  C   UNL     1      -2.120  11.752  18.733  0.00  0.00    +0.000 A 
ATOM      7  C   UNL     1      -1.423  10.843  17.905  0.00  0.00    +0.000 A 
ATOM      8  C   UNL     1      -2.094   9.936  17.094  0.00  0.00    +0.000 A 
ATOM      9  C   UNL     1      -3.480   9.950  17.051  0.00  0.00    +0.000 A 
ATOM     10  C   UNL     1      -4.213  10.824  17.857  0.00  0.00    +0.000 A 
ATOM     11  C   UNL     1      -5.606  10.864  17.735  0.00  0.00    +0.000 A 
ATOM     12  C   UNL     1      -6.376  11.696  18.543  0.00  0.00    +0.000 A 
ATOM     13  C   UNL     1      -5.759  12.463  19.520  0.00  0.00    +0.000 A 
ATOM     14  C   UNL     1      -4.364  12.463  19.633  0.00  0.00    +0.000 A 
ATOM     15  C   UNL     1      -3.544  11.695  18.769  0.00  0.00    +0.000 A 
ENDBRANCH   5   6
BRANCH   3  16
ATOM     16  C   UNL     1      -1.954  13.884  22.959  0.00  0.00    +0.000 A 
ATOM     17  C   UNL     1      -1.096  14.724  23.698  0.00  0.00    +0.000 A 
ATOM     18  C   UNL     1      -1.433  15.176  24.976  0.00  0.00    +0.000 A 
ATOM     19  C   UNL     1      -2.652  14.827  25.541  0.00  0.00    +0.000 A 
ATOM     20  C   UNL     1      -3.522  14.013  24.821  0.00  0.00    +0.000 A 
ATOM     21  C   UNL     1      -3.193  13.530  23.538  0.00  0.00    +0.000 A 
BRANCH  17  22
ATOM     22  O   UNL     1       0.117  15.171  23.243  0.00  0.00    +0.000 OA
ATOM     23  H   UNL     1       0.015  15.486  22.329  0.00  0.00    +0.000 HD
ENDBRANCH  17  22
BRANCH  21  24
ATOM     24  O   UNL     1      -4.104  12.597  23.113  0.00  0.00    +0.000 OA
ATOM     25  C   UNL     1      -5.488  12.892  23.228  0.00  0.00    +0.000 C 
ENDBRANCH  21  24
ENDBRANCH   3  16
BRANCH   1  26
ATOM     26  C   UNL     1       0.854  11.592  19.780  0.00  0.00    +0.000 C 
ATOM     27  S   UNL     1       2.040  12.266  18.781  0.00  0.00    +0.000 S 
BRANCH  26  28
ATOM     28  N   UNL     1       0.836  10.282  20.273  0.00  0.00    +0.000 N 
ATOM     29  H   UNL     1       0.352  10.158  21.145  0.00  0.00    +0.000 HD
BRANCH  28  33
ATOM     30  C   UNL     1       2.504   6.615  18.883  0.00  0.00    +0.000 A 
ATOM     31  C   UNL     1       2.338   7.677  18.001  0.00  0.00    +0.000 A 
ATOM     32  C   UNL     1       1.795   8.892  18.434  0.00  0.00    +0.000 A 
ATOM     33  C   UNL     1       1.425   9.087  19.761  0.00  0.00    +0.000 A 
ATOM     34  C   UNL     1       1.566   8.001  20.641  0.00  0.00    +0.000 A 
ATOM     35  C   UNL     1       2.100   6.773  20.205  0.00  0.00    +0.000 A 
BRANCH  30  37
ATOM     36  C   UNL     1       4.033   5.665  17.346  0.00  0.00    +0.000 C 
ATOM     37  O   UNL     1       3.016   5.482  18.321  0.00  0.00    +0.000 OA
ENDBRANCH  30  37
ENDBRANCH  28  33
ENDBRANCH  26  28
ENDBRANCH   1  26
TORSDOF 8
ENDMDL
MODEL 7
REMARK VINA RESULT:      -6.0      7.596     10.577
REMARK  Name = 
REMARK  10 active torsions:
REMARK  status: ('A' for Active; 'I' for Inactive)
REMARK    1  A    between atoms: C_1  and  O_2
REMARK    2  A    between atoms: O_2  and  C_3
REMARK    3  A    between atoms: C_6  and  N_7
REMARK    4  A    between atoms: N_7  and  C_8
REMARK    5  A    between atoms: C_8  and  N_10
REMARK    6  A    between atoms: C_12  and  C_13
REMARK    7  A    between atoms: C_14  and  O_15
REMARK    8  A    between atoms: C_19  and  O_20
REMARK    9  A    between atoms: O_20  and  C_21
REMARK   10  A    between atoms: C_23  and  C_24
REMARK                            x       y       z     vdW  Elec       q    Type
REMARK                         _______ _______ _______ _____ _____    ______ ____
ROOT
ATOM      1  N   UNL     1       1.066  11.692  19.452  0.00  0.00    +0.000 N 
ATOM      2  N   UNL     1       1.945  12.351  20.288  0.00  0.00    +0.000 NA
ATOM      3  C   UNL     1       2.167  13.529  19.798  0.00  0.00    +0.000 C 
ATOM      4  C   UNL     1       1.328  13.872  18.586  0.00  0.00    +0.000 C 
ATOM      5  C   UNL     1       0.437  12.625  18.493  0.00  0.00    +0.000 C 
ENDROOT
BRANCH   5   6
ATOM      6  C   UNL     1      -1.029  12.823  18.920  0.00  0.00    +0.000 A 
ATOM      7  C   UNL     1      -1.286  13.602  20.071  0.00  0.00    +0.000 A 
ATOM      8  C   UNL     1      -2.532  13.600  20.687  0.00  0.00    +0.000 A 
ATOM      9  C   UNL     1      -3.537  12.780  20.198  0.00  0.00    +0.000 A 
ATOM     10  C   UNL     1      -3.333  11.999  19.058  0.00  0.00    +0.000 A 
ATOM     11  C   UNL     1      -4.342  11.127  18.635  0.00  0.00    +0.000 A 
ATOM     12  C   UNL     1      -4.193  10.356  17.486  0.00  0.00    +0.000 A 
ATOM     13  C   UNL     1      -3.045  10.489  16.718  0.00  0.00    +0.000 A 
ATOM     14  C   UNL     1      -2.010  11.328  17.144  0.00  0.00    +0.000 A 
ATOM     15  C   UNL     1      -2.092  12.061  18.355  0.00  0.00    +0.000 A 
ENDBRANCH   5   6
BRANCH   3  16
ATOM     16  C   UNL     1       3.174  14.457  20.370  0.00  0.00    +0.000 A 
ATOM     17  C   UNL     1       2.934  15.027  21.637  0.00  0.00    +0.000 A 
ATOM     18  C   UNL     1       3.803  15.968  22.195  0.00  0.00    +0.000 A 
ATOM     19  C   UNL     1       4.953  16.344  21.516  0.00  0.00    +0.000 A 
ATOM     20  C   UNL     1       5.219  15.780  20.272  0.00  0.00    +0.000 A 
ATOM     21  C   UNL     1       4.346  14.844  19.682  0.00  0.00    +0.000 A 
BRANCH  17  22
ATOM     22  O   UNL     1       1.857  14.715  22.425  0.00  0.00    +0.000 OA
ATOM     23  H   UNL     1       1.742  13.751  22.437  0.00  0.00    +0.000 HD
ENDBRANCH  17  22
BRANCH  21  24
ATOM     24  O   UNL     1       4.706  14.581  18.385  0.00  0.00    +0.000 OA
ATOM     25  C   UNL     1       6.061  14.767  18.001  0.00  0.00    +0.000 C 
ENDBRANCH  21  24
ENDBRANCH   3  16
BRANCH   1  26
ATOM     26  C   UNL     1       0.764  10.339  19.681  0.00  0.00    +0.000 C 
ATOM     27  S   UNL     1      -0.072   9.876  21.076  0.00  0.00    +0.000 S 
BRANCH  26  28
ATOM     28  N   UNL     1       1.232   9.483  18.677  0.00  0.00    +0.000 N 
ATOM     29  H   UNL     1       0.974   9.740  17.739  0.00  0.00    +0.000 HD
BRANCH  28  33
ATOM     30  C   UNL     1       3.623   5.958  18.808  0.00  0.00    +0.000 A 
ATOM     31  C   UNL     1       2.778   6.260  19.870  0.00  0.00    +0.000 A 
ATOM     32  C   UNL     1       1.981   7.410  19.849  0.00  0.00    +0.000 A 
ATOM     33  C   UNL     1       1.989   8.276  18.760  0.00  0.00    +0.000 A 
ATOM     34  C   UNL     1       2.867   7.982  17.703  0.00  0.00    +0.000 A 
ATOM     35  C   UNL     1       3.679   6.833  17.727  0.00  0.00    +0.000 A 
BRANCH  30  37
ATOM     36  C   UNL     1       3.712   3.730  19.604  0.00  0.00    +0.000 C 
ATOM     37  O   UNL     1       4.363   4.824  18.973  0.00  0.00    +0.000 OA
ENDBRANCH  30  37
ENDBRANCH  28  33
ENDBRANCH  26  28
ENDBRANCH   1  26
TORSDOF 8
ENDMDL
MODEL 8
REMARK VINA RESULT:      -6.0      8.033     11.020
REMARK  Name = 
REMARK  10 active torsions:
REMARK  status: ('A' for Active; 'I' for Inactive)
REMARK    1  A    between atoms: C_1  and  O_2
REMARK    2  A    between atoms: O_2  and  C_3
REMARK    3  A    between atoms: C_6  and  N_7
REMARK    4  A    between atoms: N_7  and  C_8
REMARK    5  A    between atoms: C_8  and  N_10
REMARK    6  A    between atoms: C_12  and  C_13
REMARK    7  A    between atoms: C_14  and  O_15
REMARK    8  A    between atoms: C_19  and  O_20
REMARK    9  A    between atoms: O_20  and  C_21
REMARK   10  A    between atoms: C_23  and  C_24
REMARK                            x       y       z     vdW  Elec       q    Type
REMARK                         _______ _______ _______ _____ _____    ______ ____
ROOT
ATOM      1  N   UNL     1       1.062  10.384  20.341  0.00  0.00    +0.000 N 
ATOM      2  N   UNL     1       1.362  11.552  21.014  0.00  0.00    +0.000 NA
ATOM      3  C   UNL     1       1.618  12.471  20.138  0.00  0.00    +0.000 C 
ATOM      4  C   UNL     1       1.387  12.052  18.703  0.00  0.00    +0.000 C 
ATOM      5  C   UNL     1       0.819  10.639  18.906  0.00  0.00    +0.000 C 
ENDROOT
BRANCH   5   6
ATOM      6  C   UNL     1      -0.692  10.489  18.650  0.00  0.00    +0.000 A 
ATOM      7  C   UNL     1      -1.104   9.702  17.551  0.00  0.00    +0.000 A 
ATOM      8  C   UNL     1      -2.410   9.741  17.078  0.00  0.00    +0.000 A 
ATOM      9  C   UNL     1      -3.324  10.605  17.660  0.00  0.00    +0.000 A 
ATOM     10  C   UNL     1      -2.966  11.397  18.754  0.00  0.00    +0.000 A 
ATOM     11  C   UNL     1      -3.890  12.312  19.270  0.00  0.00    +0.000 A 
ATOM     12  C   UNL     1      -3.585  13.095  20.380  0.00  0.00    +0.000 A 
ATOM     13  C   UNL     1      -2.363  12.932  21.017  0.00  0.00    +0.000 A 
ATOM     14  C   UNL     1      -1.414  12.047  20.495  0.00  0.00    +0.000 A 
ATOM     15  C   UNL     1      -1.657  11.299  19.316  0.00  0.00    +0.000 A 
ENDBRANCH   5   6
BRANCH   3  16
ATOM     16  C   UNL     1       2.114  13.819  20.515  0.00  0.00    +0.000 A 
ATOM     17  C   UNL     1       1.530  14.476  21.616  0.00  0.00    +0.000 A 
ATOM     18  C   UNL     1       1.895  15.777  21.972  0.00  0.00    +0.000 A 
ATOM     19  C   UNL     1       2.877  16.447  21.257  0.00  0.00    +0.000 A 
ATOM     20  C   UNL     1       3.480  15.809  20.176  0.00  0.00    +0.000 A 
ATOM     21  C   UNL     1       3.112  14.505  19.788  0.00  0.00    +0.000 A 
BRANCH  17  22
ATOM     22  O   UNL     1       0.577  13.916  22.427  0.00  0.00    +0.000 OA
ATOM     23  H   UNL     1       1.001  13.264  23.009  0.00  0.00    +0.000 HD
ENDBRANCH  17  22
BRANCH  21  24
ATOM     24  O   UNL     1       3.690  14.164  18.591  0.00  0.00    +0.000 OA
ATOM     25  C   UNL     1       4.538  15.105  17.950  0.00  0.00    +0.000 C 
ENDBRANCH  21  24
ENDBRANCH   3  16
BRANCH   1  26
ATOM     26  C   UNL     1       0.880   9.191  21.060  0.00  0.00    +0.000 C 
ATOM     27  S   UNL     1      -0.499   8.972  22.015  0.00  0.00    +0.000 S 
BRANCH  26  28
ATOM     28  N   UNL     1       1.929   8.276  20.904  0.00  0.00    +0.000 N 
ATOM     29  H   UNL     1       2.741   8.455  21.469  0.00  0.00    +0.000 HD
BRANCH  28  33
ATOM     30  C   UNL     1       2.185   4.808  18.441  0.00  0.00    +0.000 A 
ATOM     31  C   UNL     1       2.478   6.058  17.907  0.00  0.00    +0.000 A 
ATOM     32  C   UNL     1       2.404   7.211  18.696  0.00  0.00    +0.000 A 
ATOM     33  C   UNL     1       2.058   7.146  20.043  0.00  0.00    +0.000 A 
ATOM     34  C   UNL     1       1.732   5.885  20.569  0.00  0.00    +0.000 A 
ATOM     35  C   UNL     1       1.793   4.724  19.774  0.00  0.00    +0.000 A 
BRANCH  30  37
ATOM     36  C   UNL     1       3.344   2.866  17.742  0.00  0.00    +0.000 C 
ATOM     37  O   UNL     1       2.268   3.775  17.553  0.00  0.00    +0.000 OA
ENDBRANCH  30  37
ENDBRANCH  28  33
ENDBRANCH  26  28
ENDBRANCH   1  26
TORSDOF 8
ENDMDL
MODEL 9
REMARK VINA RESULT:      -5.9      7.885     10.474
REMARK  Name = 
REMARK  10 active torsions:
REMARK  status: ('A' for Active; 'I' for Inactive)
REMARK    1  A    between atoms: C_1  and  O_2
REMARK    2  A    between atoms: O_2  and  C_3
REMARK    3  A    between atoms: C_6  and  N_7
REMARK    4  A    between atoms: N_7  and  C_8
REMARK    5  A    between atoms: C_8  and  N_10
REMARK    6  A    between atoms: C_12  and  C_13
REMARK    7  A    between atoms: C_14  and  O_15
REMARK    8  A    between atoms: C_19  and  O_20
REMARK    9  A    between atoms: O_20  and  C_21
REMARK   10  A    between atoms: C_23  and  C_24
REMARK                            x       y       z     vdW  Elec       q    Type
REMARK                         _______ _______ _______ _____ _____    ______ ____
ROOT
ATOM      1  N   UNL     1       0.383  11.889  20.697  0.00  0.00    +0.000 N 
ATOM      2  N   UNL     1       0.906  12.761  21.631  0.00  0.00    +0.000 NA
ATOM      3  C   UNL     1       1.201  13.870  21.032  0.00  0.00    +0.000 C 
ATOM      4  C   UNL     1       0.776  13.932  19.582  0.00  0.00    +0.000 C 
ATOM      5  C   UNL     1       0.039  12.591  19.443  0.00  0.00    +0.000 C 
ENDROOT
BRANCH   5   6
ATOM      6  C   UNL     1      -1.496  12.683  19.359  0.00  0.00    +0.000 A 
ATOM      7  C   UNL     1      -2.177  13.375  20.386  0.00  0.00    +0.000 A 
ATOM      8  C   UNL     1      -3.553  13.267  20.546  0.00  0.00    +0.000 A 
ATOM      9  C   UNL     1      -4.276  12.424  19.716  0.00  0.00    +0.000 A 
ATOM     10  C   UNL     1      -3.648  11.726  18.682  0.00  0.00    +0.000 A 
ATOM     11  C   UNL     1      -4.393  10.828  17.910  0.00  0.00    +0.000 A 
ATOM     12  C   UNL     1      -3.814  10.138  16.849  0.00  0.00    +0.000 A 
ATOM     13  C   UNL     1      -2.489  10.380  16.517  0.00  0.00    +0.000 A 
ATOM     14  C   UNL     1      -1.719  11.247  17.299  0.00  0.00    +0.000 A 
ATOM     15  C   UNL     1      -2.252  11.899  18.439  0.00  0.00    +0.000 A 
ENDBRANCH   5   6
BRANCH   3  16
ATOM     16  C   UNL     1       1.913  14.981  21.712  0.00  0.00    +0.000 A 
ATOM     17  C   UNL     1       3.259  14.800  22.087  0.00  0.00    +0.000 A 
ATOM     18  C   UNL     1       3.961  15.776  22.799  0.00  0.00    +0.000 A 
ATOM     19  C   UNL     1       3.346  16.974  23.131  0.00  0.00    +0.000 A 
ATOM     20  C   UNL     1       2.022  17.182  22.755  0.00  0.00    +0.000 A 
ATOM     21  C   UNL     1       1.290  16.203  22.052  0.00  0.00    +0.000 A 
BRANCH  17  22
ATOM     22  O   UNL     1       3.993  13.680  21.791  0.00  0.00    +0.000 OA
ATOM     23  H   UNL     1       3.390  12.974  21.504  0.00  0.00    +0.000 HD
ENDBRANCH  17  22
BRANCH  21  24
ATOM     24  O   UNL     1      -0.035  16.544  21.967  0.00  0.00    +0.000 OA
ATOM     25  C   UNL     1      -0.482  17.270  20.831  0.00  0.00    +0.000 C 
ENDBRANCH  21  24
ENDBRANCH   3  16
BRANCH   1  26
ATOM     26  C   UNL     1       0.107  10.560  21.059  0.00  0.00    +0.000 C 
ATOM     27  S   UNL     1      -0.140  10.151  22.681  0.00  0.00    +0.000 S 
BRANCH  26  28
ATOM     28  N   UNL     1       0.083   9.677  19.972  0.00  0.00    +0.000 N 
ATOM     29  H   UNL     1      -0.789   9.636  19.473  0.00  0.00    +0.000 HD
BRANCH  28  33
ATOM     30  C   UNL     1       3.129   7.170  18.361  0.00  0.00    +0.000 A 
ATOM     31  C   UNL     1       2.630   6.920  19.635  0.00  0.00    +0.000 A 
ATOM     32  C   UNL     1       1.628   7.727  20.184  0.00  0.00    +0.000 A 
ATOM     33  C   UNL     1       1.082   8.790  19.470  0.00  0.00    +0.000 A 
ATOM     34  C   UNL     1       1.611   9.057  18.197  0.00  0.00    +0.000 A 
ATOM     35  C   UNL     1       2.628   8.254  17.646  0.00  0.00    +0.000 A 
BRANCH  30  37
ATOM     36  C   UNL     1       4.804   6.672  16.765  0.00  0.00    +0.000 C 
ATOM     37  O   UNL     1       4.123   6.325  17.962  0.00  0.00    +0.000 OA
ENDBRANCH  30  37
ENDBRANCH  28  33
ENDBRANCH  26  28
ENDBRANCH   1  26
TORSDOF 8
ENDMDL
