MODEL 1
REMARK VINA RESULT:      -8.1      0.000      0.000
REMARK  Name = 
REMARK  5 active torsions:
REMARK  status: ('A' for Active; 'I' for Inactive)
REMARK    1  A    between atoms: C_1  and  C_2
REMARK    2  A    between atoms: C_6  and  C_7
REMARK    3  A    between atoms: N_9  and  C_10
REMARK    4  A    between atoms: N_12  and  C_13
REMARK    5  A    between atoms: C_13  and  C_14
REMARK                            x       y       z     vdW  Elec       q    Type
REMARK                         _______ _______ _______ _____ _____    ______ ____
ROOT
ATOM      1  C   UNL     1       4.760   4.521  17.475  0.00  0.00    +0.000 C 
ATOM      2  C   UNL     1       5.597   3.560  16.601  0.00  0.00    +0.000 C 
ATOM      3  N   UNL     1       6.314   4.236  15.492  0.00  0.00    +0.000 NA
ATOM      4  C   UNL     1       7.163   5.328  16.023  0.00  0.00    +0.000 C 
ATOM      5  C   UNL     1       6.399   6.353  16.898  0.00  0.00    +0.000 C 
ATOM      6  C   UNL     1       7.318   7.412  17.536  0.00  0.00    +0.000 C 
ATOM      7  C   UNL     1       8.271   6.814  18.565  0.00  0.00    +0.000 C 
ATOM      8  C   UNL     1       7.581   5.844  19.510  0.00  0.00    +0.000 C 
ATOM      9  O   UNL     1       6.660   5.004  18.843  0.00  0.00    +0.000 OA
ATOM     10  C   UNL     1       5.681   5.627  18.035  0.00  0.00    +0.000 C 
ENDROOT
BRANCH   1  13
ATOM     11  C   UNL     1       3.244   4.519  19.488  0.00  0.00    +0.000 C 
ATOM     12  O   UNL     1       3.317   5.724  19.713  0.00  0.00    +0.000 OA
ATOM     13  N   UNL     1       3.966   3.863  18.516  0.00  0.00    +0.000 N 
ATOM     14  H   UNL     1       3.980   2.865  18.522  0.00  0.00    +0.000 HD
BRANCH  11  20
ATOM     15  C   UNL     1       0.708   2.368  18.727  0.00  0.00    +0.000 C 
ATOM     16  C   UNL     1       1.348   2.825  19.974  0.00  0.00    +0.000 A 
ATOM     17  O   UNL     1       0.856   2.256  21.111  0.00  0.00    +0.000 OA
ATOM     18  N   UNL     1       1.488   2.795  22.214  0.00  0.00    +0.000 NA
ATOM     19  C   UNL     1       2.376   3.656  21.720  0.00  0.00    +0.000 A 
ATOM     20  C   UNL     1       2.360   3.705  20.301  0.00  0.00    +0.000 A 
ENDBRANCH  11  20
ENDBRANCH   1  13
BRANCH   3  21
ATOM     21  C   UNL     1       5.440   4.713  14.411  0.00  0.00    +0.000 C 
BRANCH  21  22
ATOM     22  C   UNL     1       5.502   3.877  13.180  0.00  0.00    +0.000 A 
ATOM     23  C   UNL     1       4.551   3.405  12.300  0.00  0.00    +0.000 A 
ATOM     24  C   UNL     1       5.241   2.603  11.359  0.00  0.00    +0.000 A 
ATOM     25  C   UNL     1       6.569   2.658  11.709  0.00  0.00    +0.000 A 
ATOM     26  O   UNL     1       6.741   3.437  12.807  0.00  0.00    +0.000 OA
ENDBRANCH  21  22
ENDBRANCH   3  21
TORSDOF 4
ENDMDL
MODEL 2
REMARK VINA RESULT:      -7.9      3.846      5.449
REMARK  Name = 
REMARK  5 active torsions:
REMARK  status: ('A' for Active; 'I' for Inactive)
REMARK    1  A    between atoms: C_1  and  C_2
REMARK    2  A    between atoms: C_6  and  C_7
REMARK    3  A    between atoms: N_9  and  C_10
REMARK    4  A    between atoms: N_12  and  C_13
REMARK    5  A    between atoms: C_13  and  C_14
REMARK                            x       y       z     vdW  Elec       q    Type
REMARK                         _______ _______ _______ _____ _____    ______ ____
ROOT
ATOM      1  C   UNL     1       2.912   6.383  19.486  0.00  0.00    +0.000 C 
ATOM      2  C   UNL     1       2.666   6.168  17.976  0.00  0.00    +0.000 C 
ATOM      3  N   UNL     1       3.538   5.130  17.373  0.00  0.00    +0.000 NA
ATOM      4  C   UNL     1       3.396   3.852  18.110  0.00  0.00    +0.000 C 
ATOM      5  C   UNL     1       3.644   3.972  19.634  0.00  0.00    +0.000 C 
ATOM      6  C   UNL     1       3.377   2.661  20.398  0.00  0.00    +0.000 C 
ATOM      7  C   UNL     1       1.904   2.265  20.380  0.00  0.00    +0.000 C 
ATOM      8  C   UNL     1       0.979   3.434  20.676  0.00  0.00    +0.000 C 
ATOM      9  O   UNL     1       1.388   4.623  20.030  0.00  0.00    +0.000 OA
ATOM     10  C   UNL     1       2.725   5.040  20.225  0.00  0.00    +0.000 C 
ENDROOT
BRANCH   1  13
ATOM     11  C   UNL     1       1.749   8.618  19.424  0.00  0.00    +0.000 C 
ATOM     12  O   UNL     1       2.162   8.954  18.317  0.00  0.00    +0.000 OA
ATOM     13  N   UNL     1       2.131   7.471  20.082  0.00  0.00    +0.000 N 
ATOM     14  H   UNL     1       1.887   7.367  21.045  0.00  0.00    +0.000 HD
BRANCH  11  20
ATOM     15  C   UNL     1      -0.999  10.359  18.396  0.00  0.00    +0.000 C 
ATOM     16  C   UNL     1      -0.309  10.167  19.685  0.00  0.00    +0.000 A 
ATOM     17  O   UNL     1      -0.893  10.794  20.744  0.00  0.00    +0.000 OA
ATOM     18  N   UNL     1      -0.136  10.590  21.882  0.00  0.00    +0.000 NA
ATOM     19  C   UNL     1       0.873   9.813  21.494  0.00  0.00    +0.000 A 
ATOM     20  C   UNL     1       0.810   9.482  20.115  0.00  0.00    +0.000 A 
ENDBRANCH  11  20
ENDBRANCH   1  13
BRANCH   3  21
ATOM     21  C   UNL     1       4.948   5.524  17.250  0.00  0.00    +0.000 C 
BRANCH  21  22
ATOM     22  C   UNL     1       5.590   5.059  15.988  0.00  0.00    +0.000 A 
ATOM     23  C   UNL     1       5.273   4.090  15.059  0.00  0.00    +0.000 A 
ATOM     24  C   UNL     1       6.322   4.090  14.109  0.00  0.00    +0.000 A 
ATOM     25  C   UNL     1       7.197   5.074  14.504  0.00  0.00    +0.000 A 
ATOM     26  O   UNL     1       6.757   5.677  15.638  0.00  0.00    +0.000 OA
ENDBRANCH  21  22
ENDBRANCH   3  21
TORSDOF 4
ENDMDL
MODEL 3
REMARK VINA RESULT:      -7.8      1.372      1.804
REMARK  Name = 
REMARK  5 active torsions:
REMARK  status: ('A' for Active; 'I' for Inactive)
REMARK    1  A    between atoms: C_1  and  C_2
REMARK    2  A    between atoms: C_6  and  C_7
REMARK    3  A    between atoms: N_9  and  C_10
REMARK    4  A    between atoms: N_12  and  C_13
REMARK    5  A    between atoms: C_13  and  C_14
REMARK                            x       y       z     vdW  Elec       q    Type
REMARK                         _______ _______ _______ _____ _____    ______ ____
ROOT
ATOM      1  C   UNL     1       4.674   4.873  16.610  0.00  0.00    +0.000 C 
ATOM      2  C   UNL     1       5.507   3.706  16.034  0.00  0.00    +0.000 C 
ATOM      3  N   UNL     1       6.686   4.147  15.249  0.00  0.00    +0.000 NA
ATOM      4  C   UNL     1       7.540   5.040  16.066  0.00  0.00    +0.000 C 
ATOM      5  C   UNL     1       6.788   6.252  16.670  0.00  0.00    +0.000 C 
ATOM      6  C   UNL     1       7.663   7.102  17.612  0.00  0.00    +0.000 C 
ATOM      7  C   UNL     1       8.057   6.351  18.879  0.00  0.00    +0.000 C 
ATOM      8  C   UNL     1       6.889   5.610  19.508  0.00  0.00    +0.000 C 
ATOM      9  O   UNL     1       6.072   4.972  18.547  0.00  0.00    +0.000 OA
ATOM     10  C   UNL     1       5.588   5.764  17.480  0.00  0.00    +0.000 C 
ENDROOT
BRANCH   1  13
ATOM     11  C   UNL     1       3.322   3.323  18.066  0.00  0.00    +0.000 C 
ATOM     12  O   UNL     1       4.152   2.420  18.109  0.00  0.00    +0.000 OA
ATOM     13  N   UNL     1       3.451   4.464  17.307  0.00  0.00    +0.000 N 
ATOM     14  H   UNL     1       2.655   5.056  17.192  0.00  0.00    +0.000 HD
BRANCH  11  20
ATOM     15  C   UNL     1       2.115   4.978  20.794  0.00  0.00    +0.000 C 
ATOM     16  C   UNL     1       1.621   3.886  19.935  0.00  0.00    +0.000 A 
ATOM     17  O   UNL     1       0.383   3.419  20.260  0.00  0.00    +0.000 OA
ATOM     18  N   UNL     1       0.047   2.368  19.428  0.00  0.00    +0.000 NA
ATOM     19  C   UNL     1       1.078   2.243  18.594  0.00  0.00    +0.000 A 
ATOM     20  C   UNL     1       2.102   3.194  18.841  0.00  0.00    +0.000 A 
ENDBRANCH  11  20
ENDBRANCH   1  13
BRANCH   3  21
ATOM     21  C   UNL     1       6.354   4.760  13.955  0.00  0.00    +0.000 C 
BRANCH  21  22
ATOM     22  C   UNL     1       5.961   3.772  12.910  0.00  0.00    +0.000 A 
ATOM     23  C   UNL     1       6.655   2.827  12.184  0.00  0.00    +0.000 A 
ATOM     24  C   UNL     1       5.721   2.244  11.294  0.00  0.00    +0.000 A 
ATOM     25  C   UNL     1       4.515   2.851  11.551  0.00  0.00    +0.000 A 
ATOM     26  O   UNL     1       4.646   3.773  12.538  0.00  0.00    +0.000 OA
ENDBRANCH  21  22
ENDBRANCH   3  21
TORSDOF 4
ENDMDL
MODEL 4
REMARK VINA RESULT:      -7.7      3.768      5.464
REMARK  Name = 
REMARK  5 active torsions:
REMARK  status: ('A' for Active; 'I' for Inactive)
REMARK    1  A    between atoms: C_1  and  C_2
REMARK    2  A    between atoms: C_6  and  C_7
REMARK    3  A    between atoms: N_9  and  C_10
REMARK    4  A    between atoms: N_12  and  C_13
REMARK    5  A    between atoms: C_13  and  C_14
REMARK                            x       y       z     vdW  Elec       q    Type
REMARK                         _______ _______ _______ _____ _____    ______ ____
ROOT
ATOM      1  C   UNL     1       2.909   6.271  19.319  0.00  0.00    +0.000 C 
ATOM      2  C   UNL     1       2.694   5.933  17.826  0.00  0.00    +0.000 C 
ATOM      3  N   UNL     1       3.603   4.876  17.319  0.00  0.00    +0.000 NA
ATOM      4  C   UNL     1       3.484   3.656  18.151  0.00  0.00    +0.000 C 
ATOM      5  C   UNL     1       3.704   3.900  19.665  0.00  0.00    +0.000 C 
ATOM      6  C   UNL     1       3.459   2.646  20.525  0.00  0.00    +0.000 C 
ATOM      7  C   UNL     1       1.998   2.208  20.517  0.00  0.00    +0.000 C 
ATOM      8  C   UNL     1       1.037   3.370  20.707  0.00  0.00    +0.000 C 
ATOM      9  O   UNL     1       1.425   4.516  19.976  0.00  0.00    +0.000 OA
ATOM     10  C   UNL     1       2.746   4.985  20.157  0.00  0.00    +0.000 C 
ENDROOT
BRANCH   1  13
ATOM     11  C   UNL     1       1.861   8.556  19.139  0.00  0.00    +0.000 C 
ATOM     12  O   UNL     1       2.455   8.897  18.120  0.00  0.00    +0.000 OA
ATOM     13  N   UNL     1       2.089   7.380  19.817  0.00  0.00    +0.000 N 
ATOM     14  H   UNL     1       1.694   7.266  20.727  0.00  0.00    +0.000 HD
BRANCH  11  20
ATOM     15  C   UNL     1       0.923   9.274  22.339  0.00  0.00    +0.000 C 
ATOM     16  C   UNL     1       0.506   9.737  21.002  0.00  0.00    +0.000 A 
ATOM     17  O   UNL     1      -0.460  10.698  21.006  0.00  0.00    +0.000 OA
ATOM     18  N   UNL     1      -0.808  11.014  19.707  0.00  0.00    +0.000 NA
ATOM     19  C   UNL     1      -0.018  10.262  18.943  0.00  0.00    +0.000 A 
ATOM     20  C   UNL     1       0.862   9.446  19.700  0.00  0.00    +0.000 A 
ENDBRANCH  11  20
ENDBRANCH   1  13
BRANCH   3  21
ATOM     21  C   UNL     1       5.005   5.299  17.187  0.00  0.00    +0.000 C 
BRANCH  21  22
ATOM     22  C   UNL     1       5.628   4.900  15.894  0.00  0.00    +0.000 A 
ATOM     23  C   UNL     1       5.379   3.889  14.988  0.00  0.00    +0.000 A 
ATOM     24  C   UNL     1       6.369   4.003  13.982  0.00  0.00    +0.000 A 
ATOM     25  C   UNL     1       7.140   5.089  14.323  0.00  0.00    +0.000 A 
ATOM     26  O   UNL     1       6.693   5.648  15.477  0.00  0.00    +0.000 OA
ENDBRANCH  21  22
ENDBRANCH   3  21
TORSDOF 4
ENDMDL
MODEL 5
REMARK VINA RESULT:      -7.7      3.961      5.652
REMARK  Name = 
REMARK  5 active torsions:
REMARK  status: ('A' for Active; 'I' for Inactive)
REMARK    1  A    between atoms: C_1  and  C_2
REMARK    2  A    between atoms: C_6  and  C_7
REMARK    3  A    between atoms: N_9  and  C_10
REMARK    4  A    between atoms: N_12  and  C_13
REMARK    5  A    between atoms: C_13  and  C_14
REMARK                            x       y       z     vdW  Elec       q    Type
REMARK                         _______ _______ _______ _____ _____    ______ ____
ROOT
ATOM      1  C   UNL     1       2.715   6.675  19.914  0.00  0.00    +0.000 C 
ATOM      2  C   UNL     1       2.355   6.747  18.413  0.00  0.00    +0.000 C 
ATOM      3  N   UNL     1       3.212   5.896  17.553  0.00  0.00    +0.000 NA
ATOM      4  C   UNL     1       3.180   4.493  18.029  0.00  0.00    +0.000 C 
ATOM      5  C   UNL     1       3.548   4.324  19.523  0.00  0.00    +0.000 C 
ATOM      6  C   UNL     1       3.394   2.877  20.029  0.00  0.00    +0.000 C 
ATOM      7  C   UNL     1       1.941   2.414  20.039  0.00  0.00    +0.000 C 
ATOM      8  C   UNL     1       1.000   3.451  20.629  0.00  0.00    +0.000 C 
ATOM      9  O   UNL     1       1.309   4.764  20.205  0.00  0.00    +0.000 OA
ATOM     10  C   UNL     1       2.641   5.205  20.381  0.00  0.00    +0.000 C 
ENDROOT
BRANCH   1  13
ATOM     11  C   UNL     1       1.462   8.811  20.382  0.00  0.00    +0.000 C 
ATOM     12  O   UNL     1       1.764   9.377  19.335  0.00  0.00    +0.000 OA
ATOM     13  N   UNL     1       1.945   7.582  20.770  0.00  0.00    +0.000 N 
ATOM     14  H   UNL     1       1.790   7.281  21.710  0.00  0.00    +0.000 HD
BRANCH  11  20
ATOM     15  C   UNL     1      -1.034  11.094  19.940  0.00  0.00    +0.000 C 
ATOM     16  C   UNL     1      -0.466  10.382  21.100  0.00  0.00    +0.000 A 
ATOM     17  O   UNL     1      -1.072  10.653  22.290  0.00  0.00    +0.000 OA
ATOM     18  N   UNL     1      -0.427   9.978  23.308  0.00  0.00    +0.000 NA
ATOM     19  C   UNL     1       0.537   9.283  22.706  0.00  0.00    +0.000 A 
ATOM     20  C   UNL     1       0.552   9.471  21.299  0.00  0.00    +0.000 A 
ENDBRANCH  11  20
ENDBRANCH   1  13
BRANCH   3  21
ATOM     21  C   UNL     1       4.592   6.381  17.409  0.00  0.00    +0.000 C 
BRANCH  21  22
ATOM     22  C   UNL     1       5.407   5.586  16.448  0.00  0.00    +0.000 A 
ATOM     23  C   UNL     1       5.310   5.339  15.094  0.00  0.00    +0.000 A 
ATOM     24  C   UNL     1       6.361   4.445  14.776  0.00  0.00    +0.000 A 
ATOM     25  C   UNL     1       7.045   4.224  15.947  0.00  0.00    +0.000 A 
ATOM     26  O   UNL     1       6.481   4.920  16.967  0.00  0.00    +0.000 OA
ENDBRANCH  21  22
ENDBRANCH   3  21
TORSDOF 4
ENDMDL
MODEL 6
REMARK VINA RESULT:      -7.7      3.149      5.792
REMARK  Name = 
REMARK  5 active torsions:
REMARK  status: ('A' for Active; 'I' for Inactive)
REMARK    1  A    between atoms: C_1  and  C_2
REMARK    2  A    between atoms: C_6  and  C_7
REMARK    3  A    between atoms: N_9  and  C_10
REMARK    4  A    between atoms: N_12  and  C_13
REMARK    5  A    between atoms: C_13  and  C_14
REMARK                            x       y       z     vdW  Elec       q    Type
REMARK                         _______ _______ _______ _____ _____    ______ ____
ROOT
ATOM      1  C   UNL     1       3.557   5.773  18.553  0.00  0.00    +0.000 C 
ATOM      2  C   UNL     1       4.302   5.052  19.698  0.00  0.00    +0.000 C 
ATOM      3  N   UNL     1       4.950   3.785  19.280  0.00  0.00    +0.000 NA
ATOM      4  C   UNL     1       5.863   4.028  18.139  0.00  0.00    +0.000 C 
ATOM      5  C   UNL     1       5.192   4.734  16.935  0.00  0.00    +0.000 C 
ATOM      6  C   UNL     1       6.182   5.085  15.807  0.00  0.00    +0.000 C 
ATOM      7  C   UNL     1       7.195   6.144  16.229  0.00  0.00    +0.000 C 
ATOM      8  C   UNL     1       6.554   7.307  16.967  0.00  0.00    +0.000 C 
ATOM      9  O   UNL     1       5.565   6.885  17.885  0.00  0.00    +0.000 OA
ATOM     10  C   UNL     1       4.544   6.039  17.396  0.00  0.00    +0.000 C 
ENDROOT
BRANCH   1  13
ATOM     11  C   UNL     1       1.991   7.057  20.053  0.00  0.00    +0.000 C 
ATOM     12  O   UNL     1       1.613   6.091  20.711  0.00  0.00    +0.000 OA
ATOM     13  N   UNL     1       2.827   6.977  18.963  0.00  0.00    +0.000 N 
ATOM     14  H   UNL     1       2.938   7.783  18.383  0.00  0.00    +0.000 HD
BRANCH  11  20
ATOM     15  C   UNL     1       0.911   9.723  18.219  0.00  0.00    +0.000 C 
ATOM     16  C   UNL     1       1.071   9.444  19.659  0.00  0.00    +0.000 A 
ATOM     17  O   UNL     1       0.680  10.456  20.483  0.00  0.00    +0.000 OA
ATOM     18  N   UNL     1       0.924  10.108  21.798  0.00  0.00    +0.000 NA
ATOM     19  C   UNL     1       1.426   8.875  21.743  0.00  0.00    +0.000 A 
ATOM     20  C   UNL     1       1.521   8.381  20.415  0.00  0.00    +0.000 A 
ENDBRANCH  11  20
ENDBRANCH   1  13
BRANCH   3  21
ATOM     21  C   UNL     1       4.009   2.693  18.991  0.00  0.00    +0.000 C 
BRANCH  21  22
ATOM     22  C   UNL     1       2.803   2.698  19.865  0.00  0.00    +0.000 A 
ATOM     23  C   UNL     1       1.451   2.830  19.623  0.00  0.00    +0.000 A 
ATOM     24  C   UNL     1       0.816   2.816  20.888  0.00  0.00    +0.000 A 
ATOM     25  C   UNL     1       1.816   2.650  21.818  0.00  0.00    +0.000 A 
ATOM     26  O   UNL     1       3.025   2.566  21.207  0.00  0.00    +0.000 OA
ENDBRANCH  21  22
ENDBRANCH   3  21
TORSDOF 4
ENDMDL
MODEL 7
REMARK VINA RESULT:      -7.4      3.169      5.981
REMARK  Name = 
REMARK  5 active torsions:
REMARK  status: ('A' for Active; 'I' for Inactive)
REMARK    1  A    between atoms: C_1  and  C_2
REMARK    2  A    between atoms: C_6  and  C_7
REMARK    3  A    between atoms: N_9  and  C_10
REMARK    4  A    between atoms: N_12  and  C_13
REMARK    5  A    between atoms: C_13  and  C_14
REMARK                            x       y       z     vdW  Elec       q    Type
REMARK                         _______ _______ _______ _____ _____    ______ ____
ROOT
ATOM      1  C   UNL     1       3.591   5.730  18.329  0.00  0.00    +0.000 C 
ATOM      2  C   UNL     1       4.318   5.206  19.588  0.00  0.00    +0.000 C 
ATOM      3  N   UNL     1       5.007   3.909  19.381  0.00  0.00    +0.000 NA
ATOM      4  C   UNL     1       5.948   4.006  18.240  0.00  0.00    +0.000 C 
ATOM      5  C   UNL     1       5.298   4.506  16.927  0.00  0.00    +0.000 C 
ATOM      6  C   UNL     1       6.312   4.713  15.786  0.00  0.00    +0.000 C 
ATOM      7  C   UNL     1       7.288   5.850  16.073  0.00  0.00    +0.000 C 
ATOM      8  C   UNL     1       6.599   7.092  16.613  0.00  0.00    +0.000 C 
ATOM      9  O   UNL     1       5.593   6.784  17.557  0.00  0.00    +0.000 OA
ATOM     10  C   UNL     1       4.607   5.847  17.172  0.00  0.00    +0.000 C 
ENDROOT
BRANCH   1  13
ATOM     11  C   UNL     1       2.051   7.230  19.644  0.00  0.00    +0.000 C 
ATOM     12  O   UNL     1       1.768   6.407  20.510  0.00  0.00    +0.000 OA
ATOM     13  N   UNL     1       2.823   6.960  18.536  0.00  0.00    +0.000 N 
ATOM     14  H   UNL     1       2.853   7.633  17.798  0.00  0.00    +0.000 HD
BRANCH  11  20
ATOM     15  C   UNL     1       0.937   9.069  22.292  0.00  0.00    +0.000 C 
ATOM     16  C   UNL     1       1.100   9.315  20.847  0.00  0.00    +0.000 A 
ATOM     17  O   UNL     1       0.763  10.571  20.440  0.00  0.00    +0.000 OA
ATOM     18  N   UNL     1       0.903  10.671  19.069  0.00  0.00    +0.000 NA
ATOM     19  C   UNL     1       1.357   9.481  18.679  0.00  0.00    +0.000 A 
ATOM     20  C   UNL     1       1.532   8.579  19.762  0.00  0.00    +0.000 A 
ENDBRANCH  11  20
ENDBRANCH   1  13
BRANCH   3  21
ATOM     21  C   UNL     1       4.100   2.762  19.232  0.00  0.00    +0.000 C 
BRANCH  21  22
ATOM     22  C   UNL     1       2.895   2.836  20.106  0.00  0.00    +0.000 A 
ATOM     23  C   UNL     1       2.691   2.680  21.461  0.00  0.00    +0.000 A 
ATOM     24  C   UNL     1       1.297   2.809  21.671  0.00  0.00    +0.000 A 
ATOM     25  C   UNL     1       0.744   3.061  20.438  0.00  0.00    +0.000 A 
ATOM     26  O   UNL     1       1.707   3.090  19.481  0.00  0.00    +0.000 OA
ENDBRANCH  21  22
ENDBRANCH   3  21
TORSDOF 4
ENDMDL
MODEL 8
REMARK VINA RESULT:      -7.4      3.263      5.845
REMARK  Name = 
REMARK  5 active torsions:
REMARK  status: ('A' for Active; 'I' for Inactive)
REMARK    1  A    between atoms: C_1  and  C_2
REMARK    2  A    between atoms: C_6  and  C_7
REMARK    3  A    between atoms: N_9  and  C_10
REMARK    4  A    between atoms: N_12  and  C_13
REMARK    5  A    between atoms: C_13  and  C_14
REMARK                            x       y       z     vdW  Elec       q    Type
REMARK                         _______ _______ _______ _____ _____    ______ ____
ROOT
ATOM      1  C   UNL     1       3.557   5.603  19.546  0.00  0.00    +0.000 C 
ATOM      2  C   UNL     1       3.929   5.834  18.064  0.00  0.00    +0.000 C 
ATOM      3  N   UNL     1       4.748   4.744  17.479  0.00  0.00    +0.000 NA
ATOM      4  C   UNL     1       4.060   3.442  17.645  0.00  0.00    +0.000 C 
ATOM      5  C   UNL     1       3.667   3.119  19.107  0.00  0.00    +0.000 C 
ATOM      6  C   UNL     1       2.850   1.819  19.245  0.00  0.00    +0.000 C 
ATOM      7  C   UNL     1       1.474   1.925  18.595  0.00  0.00    +0.000 C 
ATOM      8  C   UNL     1       0.762   3.223  18.938  0.00  0.00    +0.000 C 
ATOM      9  O   UNL     1       1.631   4.338  18.912  0.00  0.00    +0.000 OA
ATOM     10  C   UNL     1       2.816   4.254  19.676  0.00  0.00    +0.000 C 
ENDROOT
BRANCH   1  13
ATOM     11  C   UNL     1       2.147   7.690  19.490  0.00  0.00    +0.000 C 
ATOM     12  O   UNL     1       2.205   7.860  18.275  0.00  0.00    +0.000 OA
ATOM     13  N   UNL     1       2.832   6.711  20.173  0.00  0.00    +0.000 N 
ATOM     14  H   UNL     1       2.867   6.758  21.170  0.00  0.00    +0.000 HD
BRANCH  11  20
ATOM     15  C   UNL     1      -0.024  10.193  18.676  0.00  0.00    +0.000 C 
ATOM     16  C   UNL     1       0.436   9.581  19.937  0.00  0.00    +0.000 A 
ATOM     17  O   UNL     1      -0.140  10.090  21.062  0.00  0.00    +0.000 OA
ATOM     18  N   UNL     1       0.402   9.484  22.179  0.00  0.00    +0.000 NA
ATOM     19  C   UNL     1       1.272   8.594  21.703  0.00  0.00    +0.000 A 
ATOM     20  C   UNL     1       1.324   8.582  20.284  0.00  0.00    +0.000 A 
ENDBRANCH  11  20
ENDBRANCH   1  13
BRANCH   3  21
ATOM     21  C   UNL     1       6.128   4.690  17.982  0.00  0.00    +0.000 C 
BRANCH  21  22
ATOM     22  C   UNL     1       6.834   6.001  17.928  0.00  0.00    +0.000 A 
ATOM     23  C   UNL     1       6.808   7.061  17.047  0.00  0.00    +0.000 A 
ATOM     24  C   UNL     1       7.764   7.994  17.516  0.00  0.00    +0.000 A 
ATOM     25  C   UNL     1       8.293   7.456  18.666  0.00  0.00    +0.000 A 
ATOM     26  O   UNL     1       7.728   6.250  18.931  0.00  0.00    +0.000 OA
ENDBRANCH  21  22
ENDBRANCH   3  21
TORSDOF 4
ENDMDL
MODEL 9
REMARK VINA RESULT:      -7.3      3.726      5.560
REMARK  Name = 
REMARK  5 active torsions:
REMARK  status: ('A' for Active; 'I' for Inactive)
REMARK    1  A    between atoms: C_1  and  C_2
REMARK    2  A    between atoms: C_6  and  C_7
REMARK    3  A    between atoms: N_9  and  C_10
REMARK    4  A    between atoms: N_12  and  C_13
REMARK    5  A    between atoms: C_13  and  C_14
REMARK                            x       y       z     vdW  Elec       q    Type
REMARK                         _______ _______ _______ _____ _____    ______ ____
ROOT
ATOM      1  C   UNL     1       3.138   6.249  19.426  0.00  0.00    +0.000 C 
ATOM      2  C   UNL     1       2.983   5.969  17.915  0.00  0.00    +0.000 C 
ATOM      3  N   UNL     1       3.805   4.832  17.433  0.00  0.00    +0.000 NA
ATOM      4  C   UNL     1       3.504   3.614  18.221  0.00  0.00    +0.000 C 
ATOM      5  C   UNL     1       3.654   3.799  19.751  0.00  0.00    +0.000 C 
ATOM      6  C   UNL     1       3.224   2.560  20.559  0.00  0.00    +0.000 C 
ATOM      7  C   UNL     1       1.729   2.283  20.451  0.00  0.00    +0.000 C 
ATOM      8  C   UNL     1       0.887   3.537  20.617  0.00  0.00    +0.000 C 
ATOM      9  O   UNL     1       1.438   4.651  19.944  0.00  0.00    +0.000 OA
ATOM     10  C   UNL     1       2.788   4.970  20.216  0.00  0.00    +0.000 C 
ENDROOT
BRANCH   1  13
ATOM     11  C   UNL     1       1.975   8.462  19.109  0.00  0.00    +0.000 C 
ATOM     12  O   UNL     1       2.291   8.613  17.932  0.00  0.00    +0.000 OA
ATOM     13  N   UNL     1       2.412   7.428  19.906  0.00  0.00    +0.000 N 
ATOM     14  H   UNL     1       2.251   7.482  20.890  0.00  0.00    +0.000 HD
BRANCH  11  20
ATOM     15  C   UNL     1       1.597  11.830  18.720  0.00  0.00    +0.000 C 
ATOM     16  C   UNL     1       0.948  10.797  19.548  0.00  0.00    +0.000 A 
ATOM     17  O   UNL     1      -0.065  11.252  20.338  0.00  0.00    +0.000 OA
ATOM     18  N   UNL     1      -0.561  10.215  21.105  0.00  0.00    +0.000 NA
ATOM     19  C   UNL     1       0.141   9.145  20.737  0.00  0.00    +0.000 A 
ATOM     20  C   UNL     1       1.099   9.437  19.731  0.00  0.00    +0.000 A 
ENDBRANCH  11  20
ENDBRANCH   1  13
BRANCH   3  21
ATOM     21  C   UNL     1       5.248   5.104  17.396  0.00  0.00    +0.000 C 
BRANCH  21  22
ATOM     22  C   UNL     1       5.866   4.871  16.060  0.00  0.00    +0.000 A 
ATOM     23  C   UNL     1       7.061   5.248  15.485  0.00  0.00    +0.000 A 
ATOM     24  C   UNL     1       7.033   4.765  14.154  0.00  0.00    +0.000 A 
ATOM     25  C   UNL     1       5.837   4.102  14.012  0.00  0.00    +0.000 A 
ATOM     26  O   UNL     1       5.125   4.151  15.166  0.00  0.00    +0.000 OA
ENDBRANCH  21  22
ENDBRANCH   3  21
TORSDOF 4
ENDMDL
