MODEL 1
REMARK VINA RESULT:      -7.3      0.000      0.000
REMARK  Name = 
REMARK  7 active torsions:
REMARK  status: ('A' for Active; 'I' for Inactive)
REMARK    1  A    between atoms: C_1  and  C_2
REMARK    2  A    between atoms: C_5  and  C_6
REMARK    3  A    between atoms: C_7  and  C_8
REMARK    4  A    between atoms: C_18  and  C_19
REMARK    5  A    between atoms: C_18  and  C_20
REMARK    6  A    between atoms: C_23  and  C_24
REMARK    7  A    between atoms: C_23  and  C_25
REMARK                            x       y       z     vdW  Elec       q    Type
REMARK                         _______ _______ _______ _____ _____    ______ ____
ROOT
ATOM      1  C   UNL     1       2.672   6.172  19.571  0.00  0.00    +0.000 A 
ATOM      2  C   UNL     1       1.947   6.933  20.508  0.00  0.00    +0.000 A 
ATOM      3  C   UNL     1       1.519   8.270  20.267  0.00  0.00    +0.000 A 
ATOM      4  C   UNL     1       1.816   8.862  19.032  0.00  0.00    +0.000 A 
ATOM      5  C   UNL     1       2.566   8.112  18.134  0.00  0.00    +0.000 A 
ATOM      6  C   UNL     1       2.960   6.810  18.378  0.00  0.00    +0.000 A 
ATOM      7  O   UNL     1       3.630   6.298  17.306  0.00  0.00    +0.000 OA
ATOM      8  C   UNL     1       3.780   7.459  16.474  0.00  0.00    +0.000 C 
ATOM      9  O   UNL     1       2.973   8.563  16.907  0.00  0.00    +0.000 OA
ATOM     10  N   UNL     1       1.512  10.188  18.732  0.00  0.00    +0.000 N 
ATOM     11  C   UNL     1       0.395  10.812  19.442  0.00  0.00    +0.000 C 
ATOM     12  C   UNL     1      -0.942  10.309  18.880  0.00  0.00    +0.000 C 
ATOM     13  C   UNL     1       0.485  12.328  19.203  0.00  0.00    +0.000 C 
ATOM     14  C   UNL     1       0.515  10.511  20.949  0.00  0.00    +0.000 C 
ATOM     15  O   UNL     1       0.327  11.386  21.804  0.00  0.00    +0.000 OA
ATOM     16  C   UNL     1       0.760   9.043  21.350  0.00  0.00    +0.000 C 
ATOM     17  C   UNL     1       1.563   9.026  22.671  0.00  0.00    +0.000 C 
ATOM     18  C   UNL     1      -0.619   8.409  21.625  0.00  0.00    +0.000 C 
ATOM     19  H   UNL     1       1.540  10.367  17.728  0.00  0.00    +0.000 HD
ENDROOT
BRANCH   1  26
ATOM     20  C   UNL     1       0.952   3.469  20.597  0.00  0.00    +0.000 C 
ATOM     21  C   UNL     1       2.397   3.658  20.325  0.00  0.00    +0.000 A 
ATOM     22  N   UNL     1       3.206   2.601  20.470  0.00  0.00    +0.000 NA
ATOM     23  O   UNL     1       4.459   3.031  20.110  0.00  0.00    +0.000 OA
ATOM     24  C   UNL     1       4.415   4.341  19.753  0.00  0.00    +0.000 A 
ATOM     25  C   UNL     1       5.720   4.899  19.340  0.00  0.00    +0.000 C 
ATOM     26  C   UNL     1       3.117   4.813  19.879  0.00  0.00    +0.000 A 
ENDBRANCH   1  26
TORSDOF 1
ENDMDL
MODEL 2
REMARK VINA RESULT:      -7.3      3.252      5.691
REMARK  Name = 
REMARK  7 active torsions:
REMARK  status: ('A' for Active; 'I' for Inactive)
REMARK    1  A    between atoms: C_1  and  C_2
REMARK    2  A    between atoms: C_5  and  C_6
REMARK    3  A    between atoms: C_7  and  C_8
REMARK    4  A    between atoms: C_18  and  C_19
REMARK    5  A    between atoms: C_18  and  C_20
REMARK    6  A    between atoms: C_23  and  C_24
REMARK    7  A    between atoms: C_23  and  C_25
REMARK                            x       y       z     vdW  Elec       q    Type
REMARK                         _______ _______ _______ _____ _____    ______ ____
ROOT
ATOM      1  C   UNL     1       0.585  10.691  19.577  0.00  0.00    +0.000 A 
ATOM      2  C   UNL     1       1.336  11.841  19.889  0.00  0.00    +0.000 A 
ATOM      3  C   UNL     1       0.931  13.160  19.535  0.00  0.00    +0.000 A 
ATOM      4  C   UNL     1      -0.282  13.335  18.855  0.00  0.00    +0.000 A 
ATOM      5  C   UNL     1      -0.991  12.187  18.520  0.00  0.00    +0.000 A 
ATOM      6  C   UNL     1      -0.592  10.916  18.885  0.00  0.00    +0.000 A 
ATOM      7  O   UNL     1      -1.502   9.986  18.478  0.00  0.00    +0.000 OA
ATOM      8  C   UNL     1      -2.385  10.777  17.667  0.00  0.00    +0.000 C 
ATOM      9  O   UNL     1      -2.168  12.187  17.821  0.00  0.00    +0.000 OA
ATOM     10  N   UNL     1      -0.725  14.573  18.396  0.00  0.00    +0.000 N 
ATOM     11  C   UNL     1      -0.249  15.770  19.089  0.00  0.00    +0.000 C 
ATOM     12  C   UNL     1      -0.976  15.934  20.430  0.00  0.00    +0.000 C 
ATOM     13  C   UNL     1      -0.583  16.981  18.202  0.00  0.00    +0.000 C 
ATOM     14  C   UNL     1       1.276  15.673  19.290  0.00  0.00    +0.000 C 
ATOM     15  O   UNL     1       2.023  16.637  19.079  0.00  0.00    +0.000 OA
ATOM     16  C   UNL     1       1.819  14.358  19.883  0.00  0.00    +0.000 C 
ATOM     17  C   UNL     1       3.248  14.131  19.339  0.00  0.00    +0.000 C 
ATOM     18  C   UNL     1       1.919  14.553  21.410  0.00  0.00    +0.000 C 
ATOM     19  H   UNL     1      -1.722  14.565  18.181  0.00  0.00    +0.000 HD
ENDROOT
BRANCH   1  26
ATOM     20  C   UNL     1       2.418   8.464  17.844  0.00  0.00    +0.000 C 
ATOM     21  C   UNL     1       1.832   8.395  19.204  0.00  0.00    +0.000 A 
ATOM     22  N   UNL     1       2.058   7.292  19.929  0.00  0.00    +0.000 NA
ATOM     23  O   UNL     1       1.459   7.508  21.145  0.00  0.00    +0.000 OA
ATOM     24  C   UNL     1       0.869   8.732  21.159  0.00  0.00    +0.000 A 
ATOM     25  C   UNL     1       0.199   9.065  22.435  0.00  0.00    +0.000 C 
ATOM     26  C   UNL     1       1.060   9.355  19.935  0.00  0.00    +0.000 A 
ENDBRANCH   1  26
TORSDOF 1
ENDMDL
MODEL 3
REMARK VINA RESULT:      -7.2      0.460      1.643
REMARK  Name = 
REMARK  7 active torsions:
REMARK  status: ('A' for Active; 'I' for Inactive)
REMARK    1  A    between atoms: C_1  and  C_2
REMARK    2  A    between atoms: C_5  and  C_6
REMARK    3  A    between atoms: C_7  and  C_8
REMARK    4  A    between atoms: C_18  and  C_19
REMARK    5  A    between atoms: C_18  and  C_20
REMARK    6  A    between atoms: C_23  and  C_24
REMARK    7  A    between atoms: C_23  and  C_25
REMARK                            x       y       z     vdW  Elec       q    Type
REMARK                         _______ _______ _______ _____ _____    ______ ____
ROOT
ATOM      1  C   UNL     1       2.848   6.048  19.451  0.00  0.00    +0.000 A 
ATOM      2  C   UNL     1       2.106   6.807  20.376  0.00  0.00    +0.000 A 
ATOM      3  C   UNL     1       1.670   8.139  20.125  0.00  0.00    +0.000 A 
ATOM      4  C   UNL     1       1.978   8.729  18.891  0.00  0.00    +0.000 A 
ATOM      5  C   UNL     1       2.745   7.982  18.005  0.00  0.00    +0.000 A 
ATOM      6  C   UNL     1       3.146   6.684  18.259  0.00  0.00    +0.000 A 
ATOM      7  O   UNL     1       3.833   6.172  17.198  0.00  0.00    +0.000 OA
ATOM      8  C   UNL     1       3.985   7.331  16.363  0.00  0.00    +0.000 C 
ATOM      9  O   UNL     1       3.163   8.430  16.782  0.00  0.00    +0.000 OA
ATOM     10  N   UNL     1       1.668  10.052  18.582  0.00  0.00    +0.000 N 
ATOM     11  C   UNL     1       0.538  10.670  19.276  0.00  0.00    +0.000 C 
ATOM     12  C   UNL     1      -0.788  10.155  18.700  0.00  0.00    +0.000 C 
ATOM     13  C   UNL     1       0.619  12.186  19.032  0.00  0.00    +0.000 C 
ATOM     14  C   UNL     1       0.641  10.376  20.785  0.00  0.00    +0.000 C 
ATOM     15  O   UNL     1       0.436  11.252  21.635  0.00  0.00    +0.000 OA
ATOM     16  C   UNL     1       0.892   8.911  21.195  0.00  0.00    +0.000 C 
ATOM     17  C   UNL     1       1.679   8.906  22.526  0.00  0.00    +0.000 C 
ATOM     18  C   UNL     1      -0.485   8.267  21.456  0.00  0.00    +0.000 C 
ATOM     19  H   UNL     1       1.707  10.227  17.578  0.00  0.00    +0.000 HD
ENDROOT
BRANCH   1  26
ATOM     20  C   UNL     1       5.887   4.623  19.218  0.00  0.00    +0.000 C 
ATOM     21  C   UNL     1       4.586   4.073  19.667  0.00  0.00    +0.000 A 
ATOM     22  N   UNL     1       4.554   2.803  20.090  0.00  0.00    +0.000 NA
ATOM     23  O   UNL     1       3.262   2.570  20.492  0.00  0.00    +0.000 OA
ATOM     24  C   UNL     1       2.512   3.688  20.310  0.00  0.00    +0.000 A 
ATOM     25  C   UNL     1       1.099   3.540  20.722  0.00  0.00    +0.000 C 
ATOM     26  C   UNL     1       3.299   4.694  19.771  0.00  0.00    +0.000 A 
ENDBRANCH   1  26
TORSDOF 1
ENDMDL
MODEL 4
REMARK VINA RESULT:      -7.2      3.173      5.569
REMARK  Name = 
REMARK  7 active torsions:
REMARK  status: ('A' for Active; 'I' for Inactive)
REMARK    1  A    between atoms: C_1  and  C_2
REMARK    2  A    between atoms: C_5  and  C_6
REMARK    3  A    between atoms: C_7  and  C_8
REMARK    4  A    between atoms: C_18  and  C_19
REMARK    5  A    between atoms: C_18  and  C_20
REMARK    6  A    between atoms: C_23  and  C_24
REMARK    7  A    between atoms: C_23  and  C_25
REMARK                            x       y       z     vdW  Elec       q    Type
REMARK                         _______ _______ _______ _____ _____    ______ ____
ROOT
ATOM      1  C   UNL     1       0.564  10.719  19.593  0.00  0.00    +0.000 A 
ATOM      2  C   UNL     1       1.314  11.868  19.911  0.00  0.00    +0.000 A 
ATOM      3  C   UNL     1       0.916  13.186  19.548  0.00  0.00    +0.000 A 
ATOM      4  C   UNL     1      -0.288  13.362  18.853  0.00  0.00    +0.000 A 
ATOM      5  C   UNL     1      -0.996  12.215  18.513  0.00  0.00    +0.000 A 
ATOM      6  C   UNL     1      -0.604  10.944  18.887  0.00  0.00    +0.000 A 
ATOM      7  O   UNL     1      -1.511  10.015  18.473  0.00  0.00    +0.000 OA
ATOM      8  C   UNL     1      -2.382  10.805  17.648  0.00  0.00    +0.000 C 
ATOM      9  O   UNL     1      -2.164  12.215  17.801  0.00  0.00    +0.000 OA
ATOM     10  N   UNL     1      -0.723  14.600  18.385  0.00  0.00    +0.000 N 
ATOM     11  C   UNL     1      -0.252  15.799  19.079  0.00  0.00    +0.000 C 
ATOM     12  C   UNL     1      -0.995  15.968  20.411  0.00  0.00    +0.000 C 
ATOM     13  C   UNL     1      -0.573  17.007  18.185  0.00  0.00    +0.000 C 
ATOM     14  C   UNL     1       1.270  15.698  19.299  0.00  0.00    +0.000 C 
ATOM     15  O   UNL     1       2.022  16.660  19.094  0.00  0.00    +0.000 OA
ATOM     16  C   UNL     1       1.803  14.384  19.903  0.00  0.00    +0.000 C 
ATOM     17  C   UNL     1       3.238  14.153  19.376  0.00  0.00    +0.000 C 
ATOM     18  C   UNL     1       1.885  14.584  21.430  0.00  0.00    +0.000 C 
ATOM     19  H   UNL     1      -1.717  14.593  18.158  0.00  0.00    +0.000 HD
ENDROOT
BRANCH   1  26
ATOM     20  C   UNL     1       0.088   8.908  22.389  0.00  0.00    +0.000 C 
ATOM     21  C   UNL     1       0.845   8.606  21.150  0.00  0.00    +0.000 A 
ATOM     22  N   UNL     1       1.443   7.412  21.056  0.00  0.00    +0.000 NA
ATOM     23  O   UNL     1       2.017   7.373  19.809  0.00  0.00    +0.000 OA
ATOM     24  C   UNL     1       1.774   8.537  19.151  0.00  0.00    +0.000 A 
ATOM     25  C   UNL     1       2.348   8.591  17.789  0.00  0.00    +0.000 C 
ATOM     26  C   UNL     1       1.033   9.383  19.962  0.00  0.00    +0.000 A 
ENDBRANCH   1  26
TORSDOF 1
ENDMDL
MODEL 5
REMARK VINA RESULT:      -7.2      5.411      8.736
REMARK  Name = 
REMARK  7 active torsions:
REMARK  status: ('A' for Active; 'I' for Inactive)
REMARK    1  A    between atoms: C_1  and  C_2
REMARK    2  A    between atoms: C_5  and  C_6
REMARK    3  A    between atoms: C_7  and  C_8
REMARK    4  A    between atoms: C_18  and  C_19
REMARK    5  A    between atoms: C_18  and  C_20
REMARK    6  A    between atoms: C_23  and  C_24
REMARK    7  A    between atoms: C_23  and  C_25
REMARK                            x       y       z     vdW  Elec       q    Type
REMARK                         _______ _______ _______ _____ _____    ______ ____
ROOT
ATOM      1  C   UNL     1      -4.354  12.168  19.115  0.00  0.00    +0.000 A 
ATOM      2  C   UNL     1      -3.325  12.392  20.049  0.00  0.00    +0.000 A 
ATOM      3  C   UNL     1      -1.945  12.197  19.754  0.00  0.00    +0.000 A 
ATOM      4  C   UNL     1      -1.581  11.777  18.468  0.00  0.00    +0.000 A 
ATOM      5  C   UNL     1      -2.611  11.522  17.570  0.00  0.00    +0.000 A 
ATOM      6  C   UNL     1      -3.945  11.731  17.868  0.00  0.00    +0.000 A 
ATOM      7  O   UNL     1      -4.731  11.458  16.788  0.00  0.00    +0.000 OA
ATOM      8  C   UNL     1      -3.784  10.879  15.876  0.00  0.00    +0.000 C 
ATOM      9  O   UNL     1      -2.424  11.067  16.293  0.00  0.00    +0.000 OA
ATOM     10  N   UNL     1      -0.269  11.482  18.107  0.00  0.00    +0.000 N 
ATOM     11  C   UNL     1       0.809  12.135  18.850  0.00  0.00    +0.000 C 
ATOM     12  C   UNL     1       0.947  13.599  18.412  0.00  0.00    +0.000 C 
ATOM     13  C   UNL     1       2.116  11.400  18.512  0.00  0.00    +0.000 C 
ATOM     14  C   UNL     1       0.525  12.030  20.361  0.00  0.00    +0.000 C 
ATOM     15  O   UNL     1       1.412  11.732  21.171  0.00  0.00    +0.000 OA
ATOM     16  C   UNL     1      -0.885  12.433  20.836  0.00  0.00    +0.000 C 
ATOM     17  C   UNL     1      -1.228  11.609  22.098  0.00  0.00    +0.000 C 
ATOM     18  C   UNL     1      -0.824  13.919  21.241  0.00  0.00    +0.000 C 
ATOM     19  H   UNL     1      -0.147  11.465  17.094  0.00  0.00    +0.000 HD
ENDROOT
BRANCH   1  26
ATOM     20  C   UNL     1      -6.083  14.944  19.904  0.00  0.00    +0.000 C 
ATOM     21  C   UNL     1      -6.504  13.525  19.823  0.00  0.00    +0.000 A 
ATOM     22  N   UNL     1      -7.788  13.236  20.071  0.00  0.00    +0.000 NA
ATOM     23  O   UNL     1      -7.916  11.883  19.879  0.00  0.00    +0.000 OA
ATOM     24  C   UNL     1      -6.719  11.351  19.521  0.00  0.00    +0.000 A 
ATOM     25  C   UNL     1      -6.753   9.892  19.282  0.00  0.00    +0.000 C 
ATOM     26  C   UNL     1      -5.760  12.352  19.477  0.00  0.00    +0.000 A 
ENDBRANCH   1  26
TORSDOF 1
ENDMDL
MODEL 6
REMARK VINA RESULT:      -7.1      4.345      7.147
REMARK  Name = 
REMARK  7 active torsions:
REMARK  status: ('A' for Active; 'I' for Inactive)
REMARK    1  A    between atoms: C_1  and  C_2
REMARK    2  A    between atoms: C_5  and  C_6
REMARK    3  A    between atoms: C_7  and  C_8
REMARK    4  A    between atoms: C_18  and  C_19
REMARK    5  A    between atoms: C_18  and  C_20
REMARK    6  A    between atoms: C_23  and  C_24
REMARK    7  A    between atoms: C_23  and  C_25
REMARK                            x       y       z     vdW  Elec       q    Type
REMARK                         _______ _______ _______ _____ _____    ______ ____
ROOT
ATOM      1  C   UNL     1       0.071  11.692  20.491  0.00  0.00    +0.000 A 
ATOM      2  C   UNL     1      -1.094  12.478  20.397  0.00  0.00    +0.000 A 
ATOM      3  C   UNL     1      -2.098  12.512  21.407  0.00  0.00    +0.000 A 
ATOM      4  C   UNL     1      -1.919  11.741  22.564  0.00  0.00    +0.000 A 
ATOM      5  C   UNL     1      -0.783  10.942  22.624  0.00  0.00    +0.000 A 
ATOM      6  C   UNL     1       0.189  10.932  21.641  0.00  0.00    +0.000 A 
ATOM      7  O   UNL     1       1.217  10.106  21.984  0.00  0.00    +0.000 OA
ATOM      8  C   UNL     1       0.697   9.466  23.160  0.00  0.00    +0.000 C 
ATOM      9  O   UNL     1      -0.486  10.103  23.663  0.00  0.00    +0.000 OA
ATOM     10  N   UNL     1      -2.878  11.645  23.570  0.00  0.00    +0.000 N 
ATOM     11  C   UNL     1      -3.816  12.757  23.731  0.00  0.00    +0.000 C 
ATOM     12  C   UNL     1      -3.123  13.944  24.413  0.00  0.00    +0.000 C 
ATOM     13  C   UNL     1      -4.958  12.271  24.638  0.00  0.00    +0.000 C 
ATOM     14  C   UNL     1      -4.376  13.156  22.351  0.00  0.00    +0.000 C 
ATOM     15  O   UNL     1      -5.579  13.392  22.181  0.00  0.00    +0.000 OA
ATOM     16  C   UNL     1      -3.354  13.368  21.218  0.00  0.00    +0.000 C 
ATOM     17  C   UNL     1      -4.035  13.016  19.875  0.00  0.00    +0.000 C 
ATOM     18  C   UNL     1      -3.005  14.871  21.192  0.00  0.00    +0.000 C 
ATOM     19  H   UNL     1      -2.483  11.283  24.438  0.00  0.00    +0.000 HD
ENDROOT
BRANCH   1  26
ATOM     20  C   UNL     1       0.860   9.282  18.280  0.00  0.00    +0.000 C 
ATOM     21  C   UNL     1       1.408  10.647  18.470  0.00  0.00    +0.000 A 
ATOM     22  N   UNL     1       2.367  11.059  17.632  0.00  0.00    +0.000 NA
ATOM     23  O   UNL     1       2.652  12.353  17.991  0.00  0.00    +0.000 OA
ATOM     24  C   UNL     1       1.876  12.725  19.042  0.00  0.00    +0.000 A 
ATOM     25  C   UNL     1       2.103  14.112  19.501  0.00  0.00    +0.000 C 
ATOM     26  C   UNL     1       1.057  11.668  19.410  0.00  0.00    +0.000 A 
ENDBRANCH   1  26
TORSDOF 1
ENDMDL
MODEL 7
REMARK VINA RESULT:      -7.1      5.619      8.603
REMARK  Name = 
REMARK  7 active torsions:
REMARK  status: ('A' for Active; 'I' for Inactive)
REMARK    1  A    between atoms: C_1  and  C_2
REMARK    2  A    between atoms: C_5  and  C_6
REMARK    3  A    between atoms: C_7  and  C_8
REMARK    4  A    between atoms: C_18  and  C_19
REMARK    5  A    between atoms: C_18  and  C_20
REMARK    6  A    between atoms: C_23  and  C_24
REMARK    7  A    between atoms: C_23  and  C_25
REMARK                            x       y       z     vdW  Elec       q    Type
REMARK                         _______ _______ _______ _____ _____    ______ ____
ROOT
ATOM      1  C   UNL     1      -4.329  12.073  19.250  0.00  0.00    +0.000 A 
ATOM      2  C   UNL     1      -3.292  12.335  20.166  0.00  0.00    +0.000 A 
ATOM      3  C   UNL     1      -1.911  12.242  19.830  0.00  0.00    +0.000 A 
ATOM      4  C   UNL     1      -1.555  11.889  18.521  0.00  0.00    +0.000 A 
ATOM      5  C   UNL     1      -2.590  11.596  17.641  0.00  0.00    +0.000 A 
ATOM      6  C   UNL     1      -3.926  11.706  17.979  0.00  0.00    +0.000 A 
ATOM      7  O   UNL     1      -4.722  11.417  16.911  0.00  0.00    +0.000 OA
ATOM      8  C   UNL     1      -3.764  10.932  15.956  0.00  0.00    +0.000 C 
ATOM      9  O   UNL     1      -2.408  11.196  16.345  0.00  0.00    +0.000 OA
ATOM     10  N   UNL     1      -0.237  11.694  18.117  0.00  0.00    +0.000 N 
ATOM     11  C   UNL     1       0.816  12.392  18.855  0.00  0.00    +0.000 C 
ATOM     12  C   UNL     1       0.846  13.876  18.464  0.00  0.00    +0.000 C 
ATOM     13  C   UNL     1       2.159  11.757  18.460  0.00  0.00    +0.000 C 
ATOM     14  C   UNL     1       0.581  12.220  20.369  0.00  0.00    +0.000 C 
ATOM     15  O   UNL     1       1.507  11.955  21.145  0.00  0.00    +0.000 OA
ATOM     16  C   UNL     1      -0.839  12.512  20.892  0.00  0.00    +0.000 C 
ATOM     17  C   UNL     1      -1.093  11.626  22.134  0.00  0.00    +0.000 C 
ATOM     18  C   UNL     1      -0.865  13.985  21.347  0.00  0.00    +0.000 C 
ATOM     19  H   UNL     1      -0.142  11.718  17.102  0.00  0.00    +0.000 HD
ENDROOT
BRANCH   1  26
ATOM     20  C   UNL     1      -6.727   9.716  19.359  0.00  0.00    +0.000 C 
ATOM     21  C   UNL     1      -6.765  11.159  19.696  0.00  0.00    +0.000 A 
ATOM     22  N   UNL     1      -7.916  11.667  20.152  0.00  0.00    +0.000 NA
ATOM     23  O   UNL     1      -7.664  12.987  20.432  0.00  0.00    +0.000 OA
ATOM     24  C   UNL     1      -6.369  13.282  20.144  0.00  0.00    +0.000 A 
ATOM     25  C   UNL     1      -5.994  14.686  20.420  0.00  0.00    +0.000 C 
ATOM     26  C   UNL     1      -5.733  12.151  19.654  0.00  0.00    +0.000 A 
ENDBRANCH   1  26
TORSDOF 1
ENDMDL
MODEL 8
REMARK VINA RESULT:      -7.1      4.513      7.409
REMARK  Name = 
REMARK  7 active torsions:
REMARK  status: ('A' for Active; 'I' for Inactive)
REMARK    1  A    between atoms: C_1  and  C_2
REMARK    2  A    between atoms: C_5  and  C_6
REMARK    3  A    between atoms: C_7  and  C_8
REMARK    4  A    between atoms: C_18  and  C_19
REMARK    5  A    between atoms: C_18  and  C_20
REMARK    6  A    between atoms: C_23  and  C_24
REMARK    7  A    between atoms: C_23  and  C_25
REMARK                            x       y       z     vdW  Elec       q    Type
REMARK                         _______ _______ _______ _____ _____    ______ ____
ROOT
ATOM      1  C   UNL     1       0.011  11.938  20.603  0.00  0.00    +0.000 A 
ATOM      2  C   UNL     1      -1.149  12.735  20.544  0.00  0.00    +0.000 A 
ATOM      3  C   UNL     1      -2.171  12.704  21.535  0.00  0.00    +0.000 A 
ATOM      4  C   UNL     1      -2.017  11.852  22.637  0.00  0.00    +0.000 A 
ATOM      5  C   UNL     1      -0.887  11.043  22.660  0.00  0.00    +0.000 A 
ATOM      6  C   UNL     1       0.103  11.098  21.697  0.00  0.00    +0.000 A 
ATOM      7  O   UNL     1       1.121  10.242  22.000  0.00  0.00    +0.000 OA
ATOM      8  C   UNL     1       0.575   9.524  23.117  0.00  0.00    +0.000 C 
ATOM      9  O   UNL     1      -0.614  10.131  23.643  0.00  0.00    +0.000 OA
ATOM     10  N   UNL     1      -2.995  11.691  23.616  0.00  0.00    +0.000 N 
ATOM     11  C   UNL     1      -3.931  12.794  23.838  0.00  0.00    +0.000 C 
ATOM     12  C   UNL     1      -3.245  13.925  24.616  0.00  0.00    +0.000 C 
ATOM     13  C   UNL     1      -5.092  12.252  24.687  0.00  0.00    +0.000 C 
ATOM     14  C   UNL     1      -4.463  13.294  22.481  0.00  0.00    +0.000 C 
ATOM     15  O   UNL     1      -5.661  13.549  22.306  0.00  0.00    +0.000 OA
ATOM     16  C   UNL     1      -3.419  13.580  21.384  0.00  0.00    +0.000 C 
ATOM     17  C   UNL     1      -4.076  13.327  20.007  0.00  0.00    +0.000 C 
ATOM     18  C   UNL     1      -3.062  15.078  21.472  0.00  0.00    +0.000 C 
ATOM     19  H   UNL     1      -2.619  11.265  24.463  0.00  0.00    +0.000 HD
ENDROOT
BRANCH   1  26
ATOM     20  C   UNL     1       2.195  14.347  19.737  0.00  0.00    +0.000 C 
ATOM     21  C   UNL     1       1.944  13.005  19.157  0.00  0.00    +0.000 A 
ATOM     22  N   UNL     1       2.704  12.616  18.126  0.00  0.00    +0.000 NA
ATOM     23  O   UNL     1       2.306  11.338  17.823  0.00  0.00    +0.000 OA
ATOM     24  C   UNL     1       1.308  10.952  18.662  0.00  0.00    +0.000 A 
ATOM     25  C   UNL     1       0.813   9.580  18.421  0.00  0.00    +0.000 C 
ATOM     26  C   UNL     1       1.017  11.984  19.541  0.00  0.00    +0.000 A 
ENDBRANCH   1  26
TORSDOF 1
ENDMDL
MODEL 9
REMARK VINA RESULT:      -7.1      3.297      6.336
REMARK  Name = 
REMARK  7 active torsions:
REMARK  status: ('A' for Active; 'I' for Inactive)
REMARK    1  A    between atoms: C_1  and  C_2
REMARK    2  A    between atoms: C_5  and  C_6
REMARK    3  A    between atoms: C_7  and  C_8
REMARK    4  A    between atoms: C_18  and  C_19
REMARK    5  A    between atoms: C_18  and  C_20
REMARK    6  A    between atoms: C_23  and  C_24
REMARK    7  A    between atoms: C_23  and  C_25
REMARK                            x       y       z     vdW  Elec       q    Type
REMARK                         _______ _______ _______ _____ _____    ______ ____
ROOT
ATOM      1  C   UNL     1       5.049   5.224  17.238  0.00  0.00    +0.000 A 
ATOM      2  C   UNL     1       4.947   3.997  17.920  0.00  0.00    +0.000 A 
ATOM      3  C   UNL     1       3.918   3.709  18.862  0.00  0.00    +0.000 A 
ATOM      4  C   UNL     1       2.944   4.684  19.119  0.00  0.00    +0.000 A 
ATOM      5  C   UNL     1       3.082   5.904  18.466  0.00  0.00    +0.000 A 
ATOM      6  C   UNL     1       4.078   6.161  17.543  0.00  0.00    +0.000 A 
ATOM      7  O   UNL     1       3.940   7.411  17.017  0.00  0.00    +0.000 OA
ATOM      8  C   UNL     1       2.899   7.961  17.839  0.00  0.00    +0.000 C 
ATOM      9  O   UNL     1       2.241   6.969  18.640  0.00  0.00    +0.000 OA
ATOM     10  N   UNL     1       1.947   4.530  20.079  0.00  0.00    +0.000 N 
ATOM     11  C   UNL     1       1.538   3.169  20.428  0.00  0.00    +0.000 C 
ATOM     12  C   UNL     1       0.655   2.577  19.321  0.00  0.00    +0.000 C 
ATOM     13  C   UNL     1       0.709   3.252  21.720  0.00  0.00    +0.000 C 
ATOM     14  C   UNL     1       2.791   2.303  20.665  0.00  0.00    +0.000 C 
ATOM     15  O   UNL     1       2.871   1.523  21.622  0.00  0.00    +0.000 OA
ATOM     16  C   UNL     1       3.892   2.360  19.588  0.00  0.00    +0.000 C 
ATOM     17  C   UNL     1       5.255   2.103  20.271  0.00  0.00    +0.000 C 
ATOM     18  C   UNL     1       3.629   1.203  18.603  0.00  0.00    +0.000 C 
ATOM     19  H   UNL     1       1.182   5.190  19.942  0.00  0.00    +0.000 HD
ENDROOT
BRANCH   1  26
ATOM     20  C   UNL     1       5.620   4.058  14.133  0.00  0.00    +0.000 C 
ATOM     21  C   UNL     1       6.403   4.986  14.985  0.00  0.00    +0.000 A 
ATOM     22  N   UNL     1       7.528   5.503  14.477  0.00  0.00    +0.000 NA
ATOM     23  O   UNL     1       8.020   6.355  15.435  0.00  0.00    +0.000 OA
ATOM     24  C   UNL     1       7.202   6.352  16.520  0.00  0.00    +0.000 A 
ATOM     25  C   UNL     1       7.643   7.248  17.611  0.00  0.00    +0.000 C 
ATOM     26  C   UNL     1       6.144   5.482  16.303  0.00  0.00    +0.000 A 
ENDBRANCH   1  26
TORSDOF 1
ENDMDL
