MODEL 1
REMARK VINA RESULT:     -10.4      0.000      0.000
REMARK  Name = 
REMARK  4 active torsions:
REMARK  status: ('A' for Active; 'I' for Inactive)
REMARK    1  A    between atoms: C_4  and  C_5
REMARK    2  A    between atoms: C_6  and  C_7
REMARK    3  A    between atoms: C_24  and  O_25
REMARK    4  A    between atoms: C_27  and  O_28
REMARK                            x       y       z     vdW  Elec       q    Type
REMARK                         _______ _______ _______ _____ _____    ______ ____
ROOT
ATOM      1  C   UNL     1       3.426   5.098  18.468  0.00  0.00    +0.000 A 
ATOM      2  C   UNL     1       4.472   4.353  17.936  0.00  0.00    +0.000 A 
ATOM      3  N   UNL     1       4.549   3.216  18.719  0.00  0.00    +0.000 N 
ATOM      4  C   UNL     1       3.577   3.202  19.691  0.00  0.00    +0.000 A 
ATOM      5  C   UNL     1       3.290   2.248  20.674  0.00  0.00    +0.000 A 
ATOM      6  C   UNL     1       2.216   2.505  21.532  0.00  0.00    +0.000 A 
ATOM      7  C   UNL     1       1.465   3.672  21.414  0.00  0.00    +0.000 A 
ATOM      8  C   UNL     1       1.773   4.620  20.433  0.00  0.00    +0.000 A 
ATOM      9  C   UNL     1       2.849   4.381  19.554  0.00  0.00    +0.000 A 
ATOM     10  H   UNL     1       5.236   2.486  18.601  0.00  0.00    +0.000 HD
ENDROOT
BRANCH   1  14
ATOM     11  O   UNL     1       1.910   8.988  17.087  0.00  0.00    +0.000 OA
ATOM     12  C   UNL     1       1.876   8.586  18.228  0.00  0.00    +0.000 C 
ATOM     13  C   UNL     1       2.386   7.289  18.748  0.00  0.00    +0.000 C 
ATOM     14  C   UNL     1       2.975   6.361  17.985  0.00  0.00    +0.000 C 
ATOM     15  O   UNL     1       2.160   7.168  20.112  0.00  0.00    +0.000 OA
ATOM     16  C   UNL     1       1.544   8.336  20.488  0.00  0.00    +0.000 A 
ATOM     17  C   UNL     1       1.164   8.631  21.781  0.00  0.00    +0.000 A 
ATOM     18  C   UNL     1       0.551   9.864  21.990  0.00  0.00    +0.000 A 
ATOM     19  C   UNL     1       0.324  10.766  20.936  0.00  0.00    +0.000 A 
ATOM     20  C   UNL     1       0.721  10.442  19.636  0.00  0.00    +0.000 A 
ATOM     21  C   UNL     1       1.333   9.223  19.431  0.00  0.00    +0.000 A 
BRANCH  18  22
ATOM     22  O   UNL     1       0.145  10.244  23.238  0.00  0.00    +0.000 OA
ATOM     23  H   UNL     1       0.471  11.143  23.416  0.00  0.00    +0.000 HD
ENDBRANCH  18  22
BRANCH  20  24
ATOM     24  O   UNL     1       0.509  11.302  18.607  0.00  0.00    +0.000 OA
ATOM     25  H   UNL     1       0.993  11.000  17.821  0.00  0.00    +0.000 HD
ENDBRANCH  20  24
ENDBRANCH   1  14
BRANCH   2  26
ATOM     26  C   UNL     1       5.384   4.592  16.806  0.00  0.00    +0.000 A 
ATOM     27  C   UNL     1       5.104   4.068  15.533  0.00  0.00    +0.000 A 
ATOM     28  C   UNL     1       5.974   4.272  14.461  0.00  0.00    +0.000 A 
ATOM     29  C   UNL     1       7.125   5.022  14.650  0.00  0.00    +0.000 A 
ATOM     30  F   UNL     1       7.956   5.228  13.620  0.00  0.00    +0.000 F 
ATOM     31  C   UNL     1       7.425   5.562  15.894  0.00  0.00    +0.000 A 
ATOM     32  C   UNL     1       6.561   5.342  16.972  0.00  0.00    +0.000 A 
ENDBRANCH   2  26
TORSDOF 4
ENDMDL
MODEL 2
REMARK VINA RESULT:     -10.3      2.022      2.304
REMARK  Name = 
REMARK  4 active torsions:
REMARK  status: ('A' for Active; 'I' for Inactive)
REMARK    1  A    between atoms: C_4  and  C_5
REMARK    2  A    between atoms: C_6  and  C_7
REMARK    3  A    between atoms: C_24  and  O_25
REMARK    4  A    between atoms: C_27  and  O_28
REMARK                            x       y       z     vdW  Elec       q    Type
REMARK                         _______ _______ _______ _____ _____    ______ ____
ROOT
ATOM      1  C   UNL     1       3.356   5.442  18.218  0.00  0.00    +0.000 A 
ATOM      2  C   UNL     1       4.710   5.186  18.400  0.00  0.00    +0.000 A 
ATOM      3  N   UNL     1       4.791   3.842  18.714  0.00  0.00    +0.000 N 
ATOM      4  C   UNL     1       3.553   3.242  18.700  0.00  0.00    +0.000 A 
ATOM      5  C   UNL     1       3.186   1.913  18.942  0.00  0.00    +0.000 A 
ATOM      6  C   UNL     1       1.829   1.589  18.845  0.00  0.00    +0.000 A 
ATOM      7  C   UNL     1       0.880   2.556  18.526  0.00  0.00    +0.000 A 
ATOM      8  C   UNL     1       1.263   3.881  18.298  0.00  0.00    +0.000 A 
ATOM      9  C   UNL     1       2.626   4.232  18.386  0.00  0.00    +0.000 A 
ATOM     10  H   UNL     1       5.648   3.356  18.933  0.00  0.00    +0.000 HD
ENDROOT
BRANCH   1  14
ATOM     11  O   UNL     1       1.486   9.313  17.292  0.00  0.00    +0.000 OA
ATOM     12  C   UNL     1       1.567   8.818  18.394  0.00  0.00    +0.000 C 
ATOM     13  C   UNL     1       2.199   7.523  18.761  0.00  0.00    +0.000 C 
ATOM     14  C   UNL     1       2.786   6.706  17.880  0.00  0.00    +0.000 C 
ATOM     15  O   UNL     1       2.089   7.276  20.122  0.00  0.00    +0.000 OA
ATOM     16  C   UNL     1       1.429   8.362  20.642  0.00  0.00    +0.000 A 
ATOM     17  C   UNL     1       1.132   8.523  21.980  0.00  0.00    +0.000 A 
ATOM     18  C   UNL     1       0.458   9.687  22.338  0.00  0.00    +0.000 A 
ATOM     19  C   UNL     1       0.091  10.654  21.386  0.00  0.00    +0.000 A 
ATOM     20  C   UNL     1       0.406  10.465  20.037  0.00  0.00    +0.000 A 
ATOM     21  C   UNL     1       1.079   9.314  19.684  0.00  0.00    +0.000 A 
BRANCH  18  22
ATOM     22  O   UNL     1       0.127   9.934  23.640  0.00  0.00    +0.000 OA
ATOM     23  H   UNL     1      -0.842   9.988  23.716  0.00  0.00    +0.000 HD
ENDBRANCH  18  22
BRANCH  20  24
ATOM     24  O   UNL     1       0.059  11.390  19.104  0.00  0.00    +0.000 OA
ATOM     25  H   UNL     1       0.832  11.613  18.559  0.00  0.00    +0.000 HD
ENDBRANCH  20  24
ENDBRANCH   1  14
BRANCH   2  26
ATOM     26  C   UNL     1       5.900   6.046  18.319  0.00  0.00    +0.000 A 
ATOM     27  C   UNL     1       7.025   5.795  19.123  0.00  0.00    +0.000 A 
ATOM     28  C   UNL     1       8.151   6.618  19.067  0.00  0.00    +0.000 A 
ATOM     29  C   UNL     1       8.168   7.691  18.189  0.00  0.00    +0.000 A 
ATOM     30  F   UNL     1       9.251   8.476  18.127  0.00  0.00    +0.000 F 
ATOM     31  C   UNL     1       7.077   7.961  17.374  0.00  0.00    +0.000 A 
ATOM     32  C   UNL     1       5.943   7.145  17.443  0.00  0.00    +0.000 A 
ENDBRANCH   2  26
TORSDOF 4
ENDMDL
MODEL 3
REMARK VINA RESULT:      -9.5      3.581      7.219
REMARK  Name = 
REMARK  4 active torsions:
REMARK  status: ('A' for Active; 'I' for Inactive)
REMARK    1  A    between atoms: C_4  and  C_5
REMARK    2  A    between atoms: C_6  and  C_7
REMARK    3  A    between atoms: C_24  and  O_25
REMARK    4  A    between atoms: C_27  and  O_28
REMARK                            x       y       z     vdW  Elec       q    Type
REMARK                         _______ _______ _______ _____ _____    ______ ____
ROOT
ATOM      1  C   UNL     1       3.778   5.606  19.079  0.00  0.00    +0.000 A 
ATOM      2  C   UNL     1       2.635   6.328  19.404  0.00  0.00    +0.000 A 
ATOM      3  N   UNL     1       1.840   5.454  20.122  0.00  0.00    +0.000 N 
ATOM      4  C   UNL     1       2.451   4.232  20.289  0.00  0.00    +0.000 A 
ATOM      5  C   UNL     1       2.012   3.082  20.956  0.00  0.00    +0.000 A 
ATOM      6  C   UNL     1       2.867   1.976  20.968  0.00  0.00    +0.000 A 
ATOM      7  C   UNL     1       4.106   2.018  20.335  0.00  0.00    +0.000 A 
ATOM      8  C   UNL     1       4.524   3.172  19.665  0.00  0.00    +0.000 A 
ATOM      9  C   UNL     1       3.681   4.302  19.642  0.00  0.00    +0.000 A 
ATOM     10  H   UNL     1       0.921   5.675  20.476  0.00  0.00    +0.000 HD
ENDROOT
BRANCH   1  14
ATOM     11  O   UNL     1       7.233   6.973  16.728  0.00  0.00    +0.000 OA
ATOM     12  C   UNL     1       6.466   6.095  16.403  0.00  0.00    +0.000 C 
ATOM     13  C   UNL     1       5.278   5.606  17.153  0.00  0.00    +0.000 C 
ATOM     14  C   UNL     1       4.890   6.099  18.334  0.00  0.00    +0.000 C 
ATOM     15  O   UNL     1       4.643   4.576  16.475  0.00  0.00    +0.000 OA
ATOM     16  C   UNL     1       5.363   4.395  15.320  0.00  0.00    +0.000 A 
ATOM     17  C   UNL     1       5.049   3.470  14.346  0.00  0.00    +0.000 A 
ATOM     18  C   UNL     1       5.885   3.420  13.234  0.00  0.00    +0.000 A 
ATOM     19  C   UNL     1       6.999   4.267  13.106  0.00  0.00    +0.000 A 
ATOM     20  C   UNL     1       7.292   5.197  14.107  0.00  0.00    +0.000 A 
ATOM     21  C   UNL     1       6.460   5.250  15.206  0.00  0.00    +0.000 A 
BRANCH  18  22
ATOM     22  O   UNL     1       5.650   2.538  12.218  0.00  0.00    +0.000 OA
ATOM     23  H   UNL     1       4.905   1.963  12.464  0.00  0.00    +0.000 HD
ENDBRANCH  18  22
BRANCH  20  24
ATOM     24  O   UNL     1       8.365   6.024  13.999  0.00  0.00    +0.000 OA
ATOM     25  H   UNL     1       9.179   5.536  14.205  0.00  0.00    +0.000 HD
ENDBRANCH  20  24
ENDBRANCH   1  14
BRANCH   2  26
ATOM     26  C   UNL     1       2.221   7.709  19.115  0.00  0.00    +0.000 A 
ATOM     27  C   UNL     1       1.490   8.452  20.057  0.00  0.00    +0.000 A 
ATOM     28  C   UNL     1       1.075   9.757  19.783  0.00  0.00    +0.000 A 
ATOM     29  C   UNL     1       1.406  10.337  18.567  0.00  0.00    +0.000 A 
ATOM     30  F   UNL     1       1.018  11.591  18.306  0.00  0.00    +0.000 F 
ATOM     31  C   UNL     1       2.136   9.632  17.619  0.00  0.00    +0.000 A 
ATOM     32  C   UNL     1       2.537   8.319  17.888  0.00  0.00    +0.000 A 
ENDBRANCH   2  26
TORSDOF 4
ENDMDL
MODEL 4
REMARK VINA RESULT:      -9.1      1.843      2.032
REMARK  Name = 
REMARK  4 active torsions:
REMARK  status: ('A' for Active; 'I' for Inactive)
REMARK    1  A    between atoms: C_4  and  C_5
REMARK    2  A    between atoms: C_6  and  C_7
REMARK    3  A    between atoms: C_24  and  O_25
REMARK    4  A    between atoms: C_27  and  O_28
REMARK                            x       y       z     vdW  Elec       q    Type
REMARK                         _______ _______ _______ _____ _____    ______ ____
ROOT
ATOM      1  C   UNL     1       3.116   5.679  19.009  0.00  0.00    +0.000 A 
ATOM      2  C   UNL     1       4.477   5.399  19.025  0.00  0.00    +0.000 A 
ATOM      3  N   UNL     1       4.595   4.182  19.672  0.00  0.00    +0.000 N 
ATOM      4  C   UNL     1       3.366   3.675  20.027  0.00  0.00    +0.000 A 
ATOM      5  C   UNL     1       3.031   2.481  20.676  0.00  0.00    +0.000 A 
ATOM      6  C   UNL     1       1.675   2.224  20.898  0.00  0.00    +0.000 A 
ATOM      7  C   UNL     1       0.696   3.128  20.493  0.00  0.00    +0.000 A 
ATOM      8  C   UNL     1       1.050   4.321  19.855  0.00  0.00    +0.000 A 
ATOM      9  C   UNL     1       2.411   4.601  19.617  0.00  0.00    +0.000 A 
ATOM     10  H   UNL     1       5.471   3.721  19.868  0.00  0.00    +0.000 HD
ENDROOT
BRANCH   1  14
ATOM     11  O   UNL     1       1.136   9.251  17.379  0.00  0.00    +0.000 OA
ATOM     12  C   UNL     1       1.196   8.955  18.552  0.00  0.00    +0.000 C 
ATOM     13  C   UNL     1       1.863   7.769  19.154  0.00  0.00    +0.000 C 
ATOM     14  C   UNL     1       2.511   6.840  18.443  0.00  0.00    +0.000 C 
ATOM     15  O   UNL     1       1.714   7.753  20.533  0.00  0.00    +0.000 OA
ATOM     16  C   UNL     1       0.995   8.882  20.839  0.00  0.00    +0.000 A 
ATOM     17  C   UNL     1       0.645   9.256  22.121  0.00  0.00    +0.000 A 
ATOM     18  C   UNL     1      -0.085  10.434  22.254  0.00  0.00    +0.000 A 
ATOM     19  C   UNL     1      -0.454  11.208  21.140  0.00  0.00    +0.000 A 
ATOM     20  C   UNL     1      -0.084  10.806  19.853  0.00  0.00    +0.000 A 
ATOM     21  C   UNL     1       0.644   9.642  19.722  0.00  0.00    +0.000 A 
BRANCH  18  22
ATOM     22  O   UNL     1      -0.472  10.885  23.484  0.00  0.00    +0.000 OA
ATOM     23  H   UNL     1      -1.365  11.266  23.415  0.00  0.00    +0.000 HD
ENDBRANCH  18  22
BRANCH  20  24
ATOM     24  O   UNL     1      -0.432  11.542  18.766  0.00  0.00    +0.000 OA
ATOM     25  H   UNL     1      -0.416  12.487  18.989  0.00  0.00    +0.000 HD
ENDBRANCH  20  24
ENDBRANCH   1  14
BRANCH   2  26
ATOM     26  C   UNL     1       5.645   6.134  18.518  0.00  0.00    +0.000 A 
ATOM     27  C   UNL     1       6.913   5.957  19.097  0.00  0.00    +0.000 A 
ATOM     28  C   UNL     1       8.023   6.667  18.635  0.00  0.00    +0.000 A 
ATOM     29  C   UNL     1       7.877   7.547  17.574  0.00  0.00    +0.000 A 
ATOM     30  F   UNL     1       8.942   8.221  17.122  0.00  0.00    +0.000 F 
ATOM     31  C   UNL     1       6.639   7.737  16.973  0.00  0.00    +0.000 A 
ATOM     32  C   UNL     1       5.524   7.038  17.448  0.00  0.00    +0.000 A 
ENDBRANCH   2  26
TORSDOF 4
ENDMDL
MODEL 5
REMARK VINA RESULT:      -8.9      4.832      9.404
REMARK  Name = 
REMARK  4 active torsions:
REMARK  status: ('A' for Active; 'I' for Inactive)
REMARK    1  A    between atoms: C_4  and  C_5
REMARK    2  A    between atoms: C_6  and  C_7
REMARK    3  A    between atoms: C_24  and  O_25
REMARK    4  A    between atoms: C_27  and  O_28
REMARK                            x       y       z     vdW  Elec       q    Type
REMARK                         _______ _______ _______ _____ _____    ______ ____
ROOT
ATOM      1  C   UNL     1       0.007  12.268  19.824  0.00  0.00    +0.000 A 
ATOM      2  C   UNL     1      -1.106  12.690  19.106  0.00  0.00    +0.000 A 
ATOM      3  N   UNL     1      -0.774  13.938  18.612  0.00  0.00    +0.000 N 
ATOM      4  C   UNL     1       0.509  14.296  18.959  0.00  0.00    +0.000 A 
ATOM      5  C   UNL     1       1.240  15.451  18.659  0.00  0.00    +0.000 A 
ATOM      6  C   UNL     1       2.547  15.533  19.148  0.00  0.00    +0.000 A 
ATOM      7  C   UNL     1       3.096  14.506  19.911  0.00  0.00    +0.000 A 
ATOM      8  C   UNL     1       2.347  13.363  20.209  0.00  0.00    +0.000 A 
ATOM      9  C   UNL     1       1.028  13.255  19.724  0.00  0.00    +0.000 A 
ATOM     10  H   UNL     1      -1.393  14.521  18.069  0.00  0.00    +0.000 HD
ENDROOT
BRANCH   1  14
ATOM     11  O   UNL     1       0.383   8.369  21.823  0.00  0.00    +0.000 OA
ATOM     12  C   UNL     1       0.903   8.673  20.772  0.00  0.00    +0.000 C 
ATOM     13  C   UNL     1       0.819   9.978  20.064  0.00  0.00    +0.000 C 
ATOM     14  C   UNL     1       0.127  11.028  20.519  0.00  0.00    +0.000 C 
ATOM     15  O   UNL     1       1.537   9.954  18.876  0.00  0.00    +0.000 OA
ATOM     16  C   UNL     1       2.087   8.698  18.803  0.00  0.00    +0.000 A 
ATOM     17  C   UNL     1       2.900   8.265  17.776  0.00  0.00    +0.000 A 
ATOM     18  C   UNL     1       3.375   6.960  17.859  0.00  0.00    +0.000 A 
ATOM     19  C   UNL     1       3.044   6.117  18.934  0.00  0.00    +0.000 A 
ATOM     20  C   UNL     1       2.220   6.582  19.962  0.00  0.00    +0.000 A 
ATOM     21  C   UNL     1       1.754   7.878  19.882  0.00  0.00    +0.000 A 
BRANCH  18  22
ATOM     22  O   UNL     1       4.190   6.446  16.890  0.00  0.00    +0.000 OA
ATOM     23  H   UNL     1       4.125   7.002  16.094  0.00  0.00    +0.000 HD
ENDBRANCH  18  22
BRANCH  20  24
ATOM     24  O   UNL     1       1.891   5.782  21.009  0.00  0.00    +0.000 OA
ATOM     25  H   UNL     1       1.058   6.085  21.406  0.00  0.00    +0.000 HD
ENDBRANCH  20  24
ENDBRANCH   1  14
BRANCH   2  26
ATOM     26  C   UNL     1      -2.414  12.066  18.849  0.00  0.00    +0.000 A 
ATOM     27  C   UNL     1      -2.544  11.035  17.904  0.00  0.00    +0.000 A 
ATOM     28  C   UNL     1      -3.784  10.452  17.638  0.00  0.00    +0.000 A 
ATOM     29  C   UNL     1      -4.904  10.884  18.333  0.00  0.00    +0.000 A 
ATOM     30  F   UNL     1      -6.093  10.319  18.087  0.00  0.00    +0.000 F 
ATOM     31  C   UNL     1      -4.806  11.894  19.280  0.00  0.00    +0.000 A 
ATOM     32  C   UNL     1      -3.566  12.490  19.533  0.00  0.00    +0.000 A 
ENDBRANCH   2  26
TORSDOF 4
ENDMDL
MODEL 6
REMARK VINA RESULT:      -8.6      2.682      4.687
REMARK  Name = 
REMARK  4 active torsions:
REMARK  status: ('A' for Active; 'I' for Inactive)
REMARK    1  A    between atoms: C_4  and  C_5
REMARK    2  A    between atoms: C_6  and  C_7
REMARK    3  A    between atoms: C_24  and  O_25
REMARK    4  A    between atoms: C_27  and  O_28
REMARK                            x       y       z     vdW  Elec       q    Type
REMARK                         _______ _______ _______ _____ _____    ______ ____
ROOT
ATOM      1  C   UNL     1       4.097   6.688  18.028  0.00  0.00    +0.000 A 
ATOM      2  C   UNL     1       3.995   5.383  18.495  0.00  0.00    +0.000 A 
ATOM      3  N   UNL     1       5.296   4.930  18.612  0.00  0.00    +0.000 N 
ATOM      4  C   UNL     1       6.205   5.906  18.272  0.00  0.00    +0.000 A 
ATOM      5  C   UNL     1       7.604   5.878  18.263  0.00  0.00    +0.000 A 
ATOM      6  C   UNL     1       8.272   7.043  17.874  0.00  0.00    +0.000 A 
ATOM      7  C   UNL     1       7.567   8.186  17.504  0.00  0.00    +0.000 A 
ATOM      8  C   UNL     1       6.169   8.193  17.510  0.00  0.00    +0.000 A 
ATOM      9  C   UNL     1       5.474   7.031  17.901  0.00  0.00    +0.000 A 
ATOM     10  H   UNL     1       5.554   3.999  18.902  0.00  0.00    +0.000 HD
ENDROOT
BRANCH   1  14
ATOM     11  O   UNL     1       0.651   9.324  17.315  0.00  0.00    +0.000 OA
ATOM     12  C   UNL     1       1.082   9.011  18.402  0.00  0.00    +0.000 C 
ATOM     13  C   UNL     1       2.249   8.137  18.696  0.00  0.00    +0.000 C 
ATOM     14  C   UNL     1       3.004   7.562  17.753  0.00  0.00    +0.000 C 
ATOM     15  O   UNL     1       2.439   7.992  20.063  0.00  0.00    +0.000 OA
ATOM     16  C   UNL     1       1.456   8.746  20.654  0.00  0.00    +0.000 A 
ATOM     17  C   UNL     1       1.302   8.891  22.018  0.00  0.00    +0.000 A 
ATOM     18  C   UNL     1       0.251   9.696  22.449  0.00  0.00    +0.000 A 
ATOM     19  C   UNL     1      -0.617  10.330  21.544  0.00  0.00    +0.000 A 
ATOM     20  C   UNL     1      -0.437  10.167  20.168  0.00  0.00    +0.000 A 
ATOM     21  C   UNL     1       0.608   9.375  19.740  0.00  0.00    +0.000 A 
BRANCH  18  22
ATOM     22  O   UNL     1       0.025   9.900  23.781  0.00  0.00    +0.000 OA
ATOM     23  H   UNL     1       0.653  10.566  24.110  0.00  0.00    +0.000 HD
ENDBRANCH  18  22
BRANCH  20  24
ATOM     24  O   UNL     1      -1.266  10.773  19.279  0.00  0.00    +0.000 OA
ATOM     25  H   UNL     1      -1.771  10.103  18.789  0.00  0.00    +0.000 HD
ENDBRANCH  20  24
ENDBRANCH   1  14
BRANCH   2  26
ATOM     26  C   UNL     1       2.837   4.538  18.829  0.00  0.00    +0.000 A 
ATOM     27  C   UNL     1       2.203   4.649  20.078  0.00  0.00    +0.000 A 
ATOM     28  C   UNL     1       1.117   3.837  20.410  0.00  0.00    +0.000 A 
ATOM     29  C   UNL     1       0.643   2.919  19.485  0.00  0.00    +0.000 A 
ATOM     30  F   UNL     1      -0.405   2.147  19.797  0.00  0.00    +0.000 F 
ATOM     31  C   UNL     1       1.241   2.793  18.238  0.00  0.00    +0.000 A 
ATOM     32  C   UNL     1       2.340   3.595  17.912  0.00  0.00    +0.000 A 
ENDBRANCH   2  26
TORSDOF 4
ENDMDL
MODEL 7
REMARK VINA RESULT:      -8.6      8.370     10.850
REMARK  Name = 
REMARK  4 active torsions:
REMARK  status: ('A' for Active; 'I' for Inactive)
REMARK    1  A    between atoms: C_4  and  C_5
REMARK    2  A    between atoms: C_6  and  C_7
REMARK    3  A    between atoms: C_24  and  O_25
REMARK    4  A    between atoms: C_27  and  O_28
REMARK                            x       y       z     vdW  Elec       q    Type
REMARK                         _______ _______ _______ _____ _____    ______ ____
ROOT
ATOM      1  C   UNL     1      -2.557  11.872  19.286  0.00  0.00    +0.000 A 
ATOM      2  C   UNL     1      -3.730  12.521  19.654  0.00  0.00    +0.000 A 
ATOM      3  N   UNL     1      -4.597  12.345  18.592  0.00  0.00    +0.000 N 
ATOM      4  C   UNL     1      -4.030  11.586  17.594  0.00  0.00    +0.000 A 
ATOM      5  C   UNL     1      -4.554  11.162  16.368  0.00  0.00    +0.000 A 
ATOM      6  C   UNL     1      -3.734  10.379  15.549  0.00  0.00    +0.000 A 
ATOM      7  C   UNL     1      -2.441  10.042  15.940  0.00  0.00    +0.000 A 
ATOM      8  C   UNL     1      -1.929  10.483  17.164  0.00  0.00    +0.000 A 
ATOM      9  C   UNL     1      -2.739  11.270  18.008  0.00  0.00    +0.000 A 
ATOM     10  H   UNL     1      -5.529  12.729  18.545  0.00  0.00    +0.000 HD
ENDROOT
BRANCH   1  14
ATOM     11  O   UNL     1       1.185  11.678  21.588  0.00  0.00    +0.000 OA
ATOM     12  C   UNL     1       0.880  12.560  20.816  0.00  0.00    +0.000 C 
ATOM     13  C   UNL     1      -0.375  12.679  20.026  0.00  0.00    +0.000 C 
ATOM     14  C   UNL     1      -1.370  11.787  20.073  0.00  0.00    +0.000 C 
ATOM     15  O   UNL     1      -0.367  13.820  19.237  0.00  0.00    +0.000 OA
ATOM     16  C   UNL     1       0.829  14.441  19.499  0.00  0.00    +0.000 A 
ATOM     17  C   UNL     1       1.226  15.634  18.928  0.00  0.00    +0.000 A 
ATOM     18  C   UNL     1       2.471  16.127  19.306  0.00  0.00    +0.000 A 
ATOM     19  C   UNL     1       3.290  15.447  20.223  0.00  0.00    +0.000 A 
ATOM     20  C   UNL     1       2.863  14.242  20.787  0.00  0.00    +0.000 A 
ATOM     21  C   UNL     1       1.626  13.756  20.416  0.00  0.00    +0.000 A 
BRANCH  18  22
ATOM     22  O   UNL     1       2.945  17.302  18.796  0.00  0.00    +0.000 OA
ATOM     23  H   UNL     1       3.661  17.630  19.367  0.00  0.00    +0.000 HD
ENDBRANCH  18  22
BRANCH  20  24
ATOM     24  O   UNL     1       3.642  13.572  21.675  0.00  0.00    +0.000 OA
ATOM     25  H   UNL     1       3.136  12.845  22.074  0.00  0.00    +0.000 HD
ENDBRANCH  20  24
ENDBRANCH   1  14
BRANCH   2  26
ATOM     26  C   UNL     1      -4.109  13.271  20.861  0.00  0.00    +0.000 A 
ATOM     27  C   UNL     1      -3.531  14.521  21.142  0.00  0.00    +0.000 A 
ATOM     28  C   UNL     1      -3.870  15.230  22.295  0.00  0.00    +0.000 A 
ATOM     29  C   UNL     1      -4.808  14.703  23.170  0.00  0.00    +0.000 A 
ATOM     30  F   UNL     1      -5.142  15.387  24.271  0.00  0.00    +0.000 F 
ATOM     31  C   UNL     1      -5.405  13.475  22.915  0.00  0.00    +0.000 A 
ATOM     32  C   UNL     1      -5.053  12.757  21.768  0.00  0.00    +0.000 A 
ENDBRANCH   2  26
TORSDOF 4
ENDMDL
MODEL 8
REMARK VINA RESULT:      -8.6      4.938      8.587
REMARK  Name = 
REMARK  4 active torsions:
REMARK  status: ('A' for Active; 'I' for Inactive)
REMARK    1  A    between atoms: C_4  and  C_5
REMARK    2  A    between atoms: C_6  and  C_7
REMARK    3  A    between atoms: C_24  and  O_25
REMARK    4  A    between atoms: C_27  and  O_28
REMARK                            x       y       z     vdW  Elec       q    Type
REMARK                         _______ _______ _______ _____ _____    ______ ____
ROOT
ATOM      1  C   UNL     1       0.367  12.354  21.294  0.00  0.00    +0.000 A 
ATOM      2  C   UNL     1       0.091  11.023  21.006  0.00  0.00    +0.000 A 
ATOM      3  N   UNL     1      -1.029  10.709  21.753  0.00  0.00    +0.000 N 
ATOM      4  C   UNL     1      -1.484  11.795  22.466  0.00  0.00    +0.000 A 
ATOM      5  C   UNL     1      -2.582  11.920  23.325  0.00  0.00    +0.000 A 
ATOM      6  C   UNL     1      -2.806  13.171  23.909  0.00  0.00    +0.000 A 
ATOM      7  C   UNL     1      -1.963  14.248  23.648  0.00  0.00    +0.000 A 
ATOM      8  C   UNL     1      -0.865  14.102  22.794  0.00  0.00    +0.000 A 
ATOM      9  C   UNL     1      -0.620  12.851  22.191  0.00  0.00    +0.000 A 
ATOM     10  H   UNL     1      -1.460   9.797  21.783  0.00  0.00    +0.000 HD
ENDROOT
BRANCH   1  14
ATOM     11  O   UNL     1       3.593  14.737  19.489  0.00  0.00    +0.000 OA
ATOM     12  C   UNL     1       2.408  14.964  19.383  0.00  0.00    +0.000 C 
ATOM     13  C   UNL     1       1.282  14.200  19.983  0.00  0.00    +0.000 C 
ATOM     14  C   UNL     1       1.443  13.117  20.752  0.00  0.00    +0.000 C 
ATOM     15  O   UNL     1       0.057  14.749  19.633  0.00  0.00    +0.000 OA
ATOM     16  C   UNL     1       0.351  15.837  18.849  0.00  0.00    +0.000 A 
ATOM     17  C   UNL     1      -0.596  16.682  18.305  0.00  0.00    +0.000 A 
ATOM     18  C   UNL     1      -0.124  17.741  17.535  0.00  0.00    +0.000 A 
ATOM     19  C   UNL     1       1.249  17.944  17.316  0.00  0.00    +0.000 A 
ATOM     20  C   UNL     1       2.186  17.075  17.881  0.00  0.00    +0.000 A 
ATOM     21  C   UNL     1       1.719  16.028  18.648  0.00  0.00    +0.000 A 
BRANCH  18  22
ATOM     22  O   UNL     1      -0.987  18.630  16.961  0.00  0.00    +0.000 OA
ATOM     23  H   UNL     1      -0.901  18.575  15.993  0.00  0.00    +0.000 HD
ENDBRANCH  18  22
BRANCH  20  24
ATOM     24  O   UNL     1       3.517  17.257  17.679  0.00  0.00    +0.000 OA
ATOM     25  H   UNL     1       3.887  17.803  18.393  0.00  0.00    +0.000 HD
ENDBRANCH  20  24
ENDBRANCH   1  14
BRANCH   2  26
ATOM     26  C   UNL     1       0.753  10.040  20.133  0.00  0.00    +0.000 A 
ATOM     27  C   UNL     1       1.271   8.845  20.660  0.00  0.00    +0.000 A 
ATOM     28  C   UNL     1       1.918   7.917  19.842  0.00  0.00    +0.000 A 
ATOM     29  C   UNL     1       2.036   8.169  18.484  0.00  0.00    +0.000 A 
ATOM     30  F   UNL     1       2.647   7.276  17.696  0.00  0.00    +0.000 F 
ATOM     31  C   UNL     1       1.526   9.337  17.931  0.00  0.00    +0.000 A 
ATOM     32  C   UNL     1       0.892  10.274  18.754  0.00  0.00    +0.000 A 
ENDBRANCH   2  26
TORSDOF 4
ENDMDL
MODEL 9
REMARK VINA RESULT:      -8.3      7.775      9.982
REMARK  Name = 
REMARK  4 active torsions:
REMARK  status: ('A' for Active; 'I' for Inactive)
REMARK    1  A    between atoms: C_4  and  C_5
REMARK    2  A    between atoms: C_6  and  C_7
REMARK    3  A    between atoms: C_24  and  O_25
REMARK    4  A    between atoms: C_27  and  O_28
REMARK                            x       y       z     vdW  Elec       q    Type
REMARK                         _______ _______ _______ _____ _____    ______ ____
ROOT
ATOM      1  C   UNL     1      -2.549  12.556  20.460  0.00  0.00    +0.000 A 
ATOM      2  C   UNL     1      -3.461  12.084  19.523  0.00  0.00    +0.000 A 
ATOM      3  N   UNL     1      -4.708  12.344  20.060  0.00  0.00    +0.000 N 
ATOM      4  C   UNL     1      -4.615  12.989  21.272  0.00  0.00    +0.000 A 
ATOM      5  C   UNL     1      -5.616  13.445  22.137  0.00  0.00    +0.000 A 
ATOM      6  C   UNL     1      -5.213  14.085  23.313  0.00  0.00    +0.000 A 
ATOM      7  C   UNL     1      -3.864  14.255  23.613  0.00  0.00    +0.000 A 
ATOM      8  C   UNL     1      -2.877  13.785  22.742  0.00  0.00    +0.000 A 
ATOM      9  C   UNL     1      -3.258  13.139  21.548  0.00  0.00    +0.000 A 
ATOM     10  H   UNL     1      -5.583  12.089  19.626  0.00  0.00    +0.000 HD
ENDROOT
BRANCH   1  14
ATOM     11  O   UNL     1       1.818  12.482  19.949  0.00  0.00    +0.000 OA
ATOM     12  C   UNL     1       1.094  13.411  19.667  0.00  0.00    +0.000 C 
ATOM     13  C   UNL     1      -0.382  13.491  19.832  0.00  0.00    +0.000 C 
ATOM     14  C   UNL     1      -1.129  12.503  20.339  0.00  0.00    +0.000 C 
ATOM     15  O   UNL     1      -0.874  14.709  19.386  0.00  0.00    +0.000 OA
ATOM     16  C   UNL     1       0.223  15.415  18.958  0.00  0.00    +0.000 A 
ATOM     17  C   UNL     1       0.172  16.698  18.453  0.00  0.00    +0.000 A 
ATOM     18  C   UNL     1       1.380  17.269  18.066  0.00  0.00    +0.000 A 
ATOM     19  C   UNL     1       2.598  16.575  18.178  0.00  0.00    +0.000 A 
ATOM     20  C   UNL     1       2.620  15.277  18.695  0.00  0.00    +0.000 A 
ATOM     21  C   UNL     1       1.423  14.714  19.084  0.00  0.00    +0.000 A 
BRANCH  18  22
ATOM     22  O   UNL     1       1.428  18.537  17.559  0.00  0.00    +0.000 OA
ATOM     23  H   UNL     1       2.228  18.980  17.889  0.00  0.00    +0.000 HD
ENDBRANCH  18  22
BRANCH  20  24
ATOM     24  O   UNL     1       3.788  14.593  18.811  0.00  0.00    +0.000 OA
ATOM     25  H   UNL     1       3.715  13.936  19.523  0.00  0.00    +0.000 HD
ENDBRANCH  20  24
ENDBRANCH   1  14
BRANCH   2  26
ATOM     26  C   UNL     1      -3.290  11.427  18.218  0.00  0.00    +0.000 A 
ATOM     27  C   UNL     1      -2.223  10.541  17.994  0.00  0.00    +0.000 A 
ATOM     28  C   UNL     1      -2.041   9.930  16.752  0.00  0.00    +0.000 A 
ATOM     29  C   UNL     1      -2.941  10.185  15.728  0.00  0.00    +0.000 A 
ATOM     30  F   UNL     1      -2.774   9.591  14.539  0.00  0.00    +0.000 F 
ATOM     31  C   UNL     1      -4.012  11.047  15.921  0.00  0.00    +0.000 A 
ATOM     32  C   UNL     1      -4.183  11.672  17.160  0.00  0.00    +0.000 A 
ENDBRANCH   2  26
TORSDOF 4
ENDMDL
