MODEL 1
REMARK VINA RESULT:      -6.8      0.000      0.000
REMARK  Name = 
REMARK  4 active torsions:
REMARK  status: ('A' for Active; 'I' for Inactive)
REMARK    1  A    between atoms: C_1  and  O_2
REMARK    2  A    between atoms: O_2  and  C_3
REMARK    3  A    between atoms: C_6  and  C_7
REMARK    4  A    between atoms: C_9  and  C_10
REMARK                            x       y       z     vdW  Elec       q    Type
REMARK                         _______ _______ _______ _____ _____    ______ ____
ROOT
ATOM      1  C   UNL     1      -0.569   9.928  20.557  0.00  0.00    +0.000 C 
ATOM      2  C   UNL     1      -1.097  11.018  19.623  0.00  0.00    +0.000 C 
ATOM      3  C   UNL     1      -0.475  12.371  19.927  0.00  0.00    +0.000 C 
ATOM      4  N   UNL     1      -1.184  13.323  20.456  0.00  0.00    +0.000 NA
ATOM      5  C   UNL     1      -2.310  12.878  21.193  0.00  0.00    +0.000 A 
ATOM      6  C   UNL     1      -3.507  13.592  21.041  0.00  0.00    +0.000 A 
ATOM      7  C   UNL     1      -4.260  13.944  22.151  0.00  0.00    +0.000 A 
ATOM      8  C   UNL     1      -3.765  13.572  23.413  0.00  0.00    +0.000 A 
ATOM      9  C   UNL     1      -2.685  12.646  23.520  0.00  0.00    +0.000 A 
ATOM     10  C   UNL     1      -2.042  12.140  22.366  0.00  0.00    +0.000 A 
ATOM     11  S   UNL     1      -0.692  10.723  22.407  0.00  0.00    +0.000 S 
ENDROOT
BRANCH   3  12
ATOM     12  C   UNL     1       0.970  12.479  19.831  0.00  0.00    +0.000 A 
ATOM     13  C   UNL     1       1.738  12.719  18.687  0.00  0.00    +0.000 A 
ATOM     14  C   UNL     1       2.793  13.575  19.138  0.00  0.00    +0.000 A 
ATOM     15  C   UNL     1       3.626  14.521  18.522  0.00  0.00    +0.000 A 
ATOM     16  C   UNL     1       4.447  15.301  19.344  0.00  0.00    +0.000 A 
ATOM     17  C   UNL     1       4.465  15.129  20.733  0.00  0.00    +0.000 A 
ATOM     18  C   UNL     1       3.633  14.197  21.360  0.00  0.00    +0.000 A 
ATOM     19  C   UNL     1       2.766  13.477  20.528  0.00  0.00    +0.000 A 
ATOM     20  O   UNL     1       1.694  12.790  20.947  0.00  0.00    +0.000 OA
ENDBRANCH   3  12
BRANCH   1  24
ATOM     21  C   UNL     1       2.786   7.760  18.292  0.00  0.00    +0.000 A 
ATOM     22  C   UNL     1       1.975   8.739  17.765  0.00  0.00    +0.000 A 
ATOM     23  C   UNL     1       1.002   9.398  18.535  0.00  0.00    +0.000 A 
ATOM     24  C   UNL     1       0.709   9.153  19.910  0.00  0.00    +0.000 A 
ATOM     25  C   UNL     1       1.501   8.101  20.427  0.00  0.00    +0.000 A 
ATOM     26  C   UNL     1       2.537   7.425  19.634  0.00  0.00    +0.000 A 
BRANCH  21  28
ATOM     27  C   UNL     1       4.111   5.912  17.445  0.00  0.00    +0.000 C 
ATOM     28  O   UNL     1       3.684   7.267  17.404  0.00  0.00    +0.000 OA
ENDBRANCH  21  28
ENDBRANCH   1  24
TORSDOF 3
ENDMDL
MODEL 2
REMARK VINA RESULT:      -6.7      3.529      6.347
REMARK  Name = 
REMARK  4 active torsions:
REMARK  status: ('A' for Active; 'I' for Inactive)
REMARK    1  A    between atoms: C_1  and  O_2
REMARK    2  A    between atoms: O_2  and  C_3
REMARK    3  A    between atoms: C_6  and  C_7
REMARK    4  A    between atoms: C_9  and  C_10
REMARK                            x       y       z     vdW  Elec       q    Type
REMARK                         _______ _______ _______ _____ _____    ______ ____
ROOT
ATOM      1  C   UNL     1      -2.440  14.989  22.231  0.00  0.00    +0.000 C 
ATOM      2  C   UNL     1      -2.718  13.564  22.713  0.00  0.00    +0.000 C 
ATOM      3  C   UNL     1      -3.587  12.797  21.730  0.00  0.00    +0.000 C 
ATOM      4  N   UNL     1      -4.816  12.493  22.028  0.00  0.00    +0.000 NA
ATOM      5  C   UNL     1      -5.414  13.342  22.992  0.00  0.00    +0.000 A 
ATOM      6  C   UNL     1      -6.205  12.742  23.982  0.00  0.00    +0.000 A 
ATOM      7  C   UNL     1      -7.444  13.274  24.310  0.00  0.00    +0.000 A 
ATOM      8  C   UNL     1      -7.865  14.413  23.603  0.00  0.00    +0.000 A 
ATOM      9  C   UNL     1      -6.948  15.135  22.784  0.00  0.00    +0.000 A 
ATOM     10  C   UNL     1      -5.618  14.684  22.607  0.00  0.00    +0.000 A 
ATOM     11  S   UNL     1      -4.239  15.710  21.670  0.00  0.00    +0.000 S 
ENDROOT
BRANCH   3  12
ATOM     12  C   UNL     1      -3.082  12.631  20.379  0.00  0.00    +0.000 A 
ATOM     13  C   UNL     1      -1.869  12.060  19.981  0.00  0.00    +0.000 A 
ATOM     14  C   UNL     1      -2.188  11.340  18.785  0.00  0.00    +0.000 A 
ATOM     15  C   UNL     1      -1.630  10.238  18.119  0.00  0.00    +0.000 A 
ATOM     16  C   UNL     1      -2.339   9.703  17.038  0.00  0.00    +0.000 A 
ATOM     17  C   UNL     1      -3.550  10.259  16.610  0.00  0.00    +0.000 A 
ATOM     18  C   UNL     1      -4.122  11.349  17.271  0.00  0.00    +0.000 A 
ATOM     19  C   UNL     1      -3.435  11.827  18.395  0.00  0.00    +0.000 A 
ATOM     20  O   UNL     1      -3.959  12.629  19.331  0.00  0.00    +0.000 OA
ENDBRANCH   3  12
BRANCH   1  24
ATOM     21  C   UNL     1       1.204  15.197  19.445  0.00  0.00    +0.000 A 
ATOM     22  C   UNL     1      -0.043  15.708  19.162  0.00  0.00    +0.000 A 
ATOM     23  C   UNL     1      -1.099  15.654  20.088  0.00  0.00    +0.000 A 
ATOM     24  C   UNL     1      -1.048  15.076  21.391  0.00  0.00    +0.000 A 
ATOM     25  C   UNL     1       0.216  14.496  21.649  0.00  0.00    +0.000 A 
ATOM     26  C   UNL     1       1.333  14.570  20.696  0.00  0.00    +0.000 A 
BRANCH  21  28
ATOM     27  C   UNL     1       3.207  14.501  18.264  0.00  0.00    +0.000 C 
ATOM     28  O   UNL     1       2.099  15.374  18.442  0.00  0.00    +0.000 OA
ENDBRANCH  21  28
ENDBRANCH   1  24
TORSDOF 3
ENDMDL
MODEL 3
REMARK VINA RESULT:      -6.7      3.916      7.063
REMARK  Name = 
REMARK  4 active torsions:
REMARK  status: ('A' for Active; 'I' for Inactive)
REMARK    1  A    between atoms: C_1  and  O_2
REMARK    2  A    between atoms: O_2  and  C_3
REMARK    3  A    between atoms: C_6  and  C_7
REMARK    4  A    between atoms: C_9  and  C_10
REMARK                            x       y       z     vdW  Elec       q    Type
REMARK                         _______ _______ _______ _____ _____    ______ ____
ROOT
ATOM      1  C   UNL     1      -3.806  14.912  23.054  0.00  0.00    +0.000 C 
ATOM      2  C   UNL     1      -2.559  15.295  22.256  0.00  0.00    +0.000 C 
ATOM      3  C   UNL     1      -1.394  14.364  22.550  0.00  0.00    +0.000 C 
ATOM      4  N   UNL     1      -0.361  14.785  23.217  0.00  0.00    +0.000 NA
ATOM      5  C   UNL     1      -0.620  15.889  24.066  0.00  0.00    +0.000 A 
ATOM      6  C   UNL     1       0.338  16.913  24.108  0.00  0.00    +0.000 A 
ATOM      7  C   UNL     1       0.749  17.440  25.324  0.00  0.00    +0.000 A 
ATOM      8  C   UNL     1       0.182  16.897  26.489  0.00  0.00    +0.000 A 
ATOM      9  C   UNL     1      -0.954  16.039  26.406  0.00  0.00    +0.000 A 
ATOM     10  C   UNL     1      -1.489  15.656  25.153  0.00  0.00    +0.000 A 
ATOM     11  S   UNL     1      -3.155  14.648  24.945  0.00  0.00    +0.000 S 
ENDROOT
BRANCH   3  12
ATOM     12  C   UNL     1      -1.582  12.951  22.275  0.00  0.00    +0.000 A 
ATOM     13  C   UNL     1      -1.660  12.322  21.028  0.00  0.00    +0.000 A 
ATOM     14  C   UNL     1      -0.969  11.082  21.209  0.00  0.00    +0.000 A 
ATOM     15  C   UNL     1      -0.298  10.193  20.354  0.00  0.00    +0.000 A 
ATOM     16  C   UNL     1       0.417   9.142  20.938  0.00  0.00    +0.000 A 
ATOM     17  C   UNL     1       0.445   8.957  22.326  0.00  0.00    +0.000 A 
ATOM     18  C   UNL     1      -0.210   9.841  23.188  0.00  0.00    +0.000 A 
ATOM     19  C   UNL     1      -0.861  10.928  22.591  0.00  0.00    +0.000 A 
ATOM     20  O   UNL     1      -1.261  12.033  23.235  0.00  0.00    +0.000 OA
ENDBRANCH   3  12
BRANCH   1  24
ATOM     21  C   UNL     1      -6.596  12.479  20.336  0.00  0.00    +0.000 A 
ATOM     22  C   UNL     1      -5.692  13.424  19.906  0.00  0.00    +0.000 A 
ATOM     23  C   UNL     1      -4.831  14.092  20.793  0.00  0.00    +0.000 A 
ATOM     24  C   UNL     1      -4.777  13.915  22.207  0.00  0.00    +0.000 A 
ATOM     25  C   UNL     1      -5.752  12.991  22.650  0.00  0.00    +0.000 A 
ATOM     26  C   UNL     1      -6.639  12.270  21.725  0.00  0.00    +0.000 A 
BRANCH  21  28
ATOM     27  C   UNL     1      -6.832  11.891  17.994  0.00  0.00    +0.000 C 
ATOM     28  O   UNL     1      -7.313  11.922  19.330  0.00  0.00    +0.000 OA
ENDBRANCH  21  28
ENDBRANCH   1  24
TORSDOF 3
ENDMDL
MODEL 4
REMARK VINA RESULT:      -6.6      6.967     10.161
REMARK  Name = 
REMARK  4 active torsions:
REMARK  status: ('A' for Active; 'I' for Inactive)
REMARK    1  A    between atoms: C_1  and  O_2
REMARK    2  A    between atoms: O_2  and  C_3
REMARK    3  A    between atoms: C_6  and  C_7
REMARK    4  A    between atoms: C_9  and  C_10
REMARK                            x       y       z     vdW  Elec       q    Type
REMARK                         _______ _______ _______ _____ _____    ______ ____
ROOT
ATOM      1  C   UNL     1       9.606  12.846  21.858  0.00  0.00    +0.000 C 
ATOM      2  C   UNL     1      10.005  14.297  21.583  0.00  0.00    +0.000 C 
ATOM      3  C   UNL     1       9.118  14.934  20.525  0.00  0.00    +0.000 C 
ATOM      4  N   UNL     1       9.589  15.213  19.346  0.00  0.00    +0.000 NA
ATOM      5  C   UNL     1      10.707  14.433  18.959  0.00  0.00    +0.000 A 
ATOM      6  C   UNL     1      11.760  15.090  18.307  0.00  0.00    +0.000 A 
ATOM      7  C   UNL     1      12.332  14.540  17.168  0.00  0.00    +0.000 A 
ATOM      8  C   UNL     1      11.804  13.324  16.702  0.00  0.00    +0.000 A 
ATOM      9  C   UNL     1      10.909  12.567  17.514  0.00  0.00    +0.000 A 
ATOM     10  C   UNL     1      10.476  13.054  18.771  0.00  0.00    +0.000 A 
ATOM     11  S   UNL     1       9.413  12.003  20.036  0.00  0.00    +0.000 S 
ENDROOT
BRANCH   3  12
ATOM     12  C   UNL     1       7.693  14.994  20.796  0.00  0.00    +0.000 A 
ATOM     13  C   UNL     1       7.034  15.769  21.756  0.00  0.00    +0.000 A 
ATOM     14  C   UNL     1       5.826  16.185  21.112  0.00  0.00    +0.000 A 
ATOM     15  C   UNL     1       4.945  17.265  21.273  0.00  0.00    +0.000 A 
ATOM     16  C   UNL     1       3.935  17.430  20.319  0.00  0.00    +0.000 A 
ATOM     17  C   UNL     1       3.783  16.536  19.252  0.00  0.00    +0.000 A 
ATOM     18  C   UNL     1       4.659  15.463  19.075  0.00  0.00    +0.000 A 
ATOM     19  C   UNL     1       5.708  15.355  19.998  0.00  0.00    +0.000 A 
ATOM     20  O   UNL     1       6.810  14.613  19.825  0.00  0.00    +0.000 OA
ENDBRANCH   3  12
BRANCH   1  24
ATOM     21  C   UNL     1       6.291  12.457  25.012  0.00  0.00    +0.000 A 
ATOM     22  C   UNL     1       6.347  11.758  23.827  0.00  0.00    +0.000 A 
ATOM     23  C   UNL     1       7.423  11.890  22.933  0.00  0.00    +0.000 A 
ATOM     24  C   UNL     1       8.557  12.739  23.100  0.00  0.00    +0.000 A 
ATOM     25  C   UNL     1       8.462  13.501  24.287  0.00  0.00    +0.000 A 
ATOM     26  C   UNL     1       7.352  13.350  25.239  0.00  0.00    +0.000 A 
BRANCH  21  28
ATOM     27  C   UNL     1       5.032  12.673  27.075  0.00  0.00    +0.000 C 
ATOM     28  O   UNL     1       5.194  12.171  25.756  0.00  0.00    +0.000 OA
ENDBRANCH  21  28
ENDBRANCH   1  24
TORSDOF 3
ENDMDL
MODEL 5
REMARK VINA RESULT:      -6.5      3.698      6.555
REMARK  Name = 
REMARK  4 active torsions:
REMARK  status: ('A' for Active; 'I' for Inactive)
REMARK    1  A    between atoms: C_1  and  O_2
REMARK    2  A    between atoms: O_2  and  C_3
REMARK    3  A    between atoms: C_6  and  C_7
REMARK    4  A    between atoms: C_9  and  C_10
REMARK                            x       y       z     vdW  Elec       q    Type
REMARK                         _______ _______ _______ _____ _____    ______ ____
ROOT
ATOM      1  C   UNL     1      -3.834  14.458  22.253  0.00  0.00    +0.000 C 
ATOM      2  C   UNL     1      -2.483  14.938  21.721  0.00  0.00    +0.000 C 
ATOM      3  C   UNL     1      -1.346  14.039  22.181  0.00  0.00    +0.000 C 
ATOM      4  N   UNL     1      -0.476  14.463  23.048  0.00  0.00    +0.000 NA
ATOM      5  C   UNL     1      -0.942  15.505  23.888  0.00  0.00    +0.000 A 
ATOM      6  C   UNL     1      -0.062  16.563  24.158  0.00  0.00    +0.000 A 
ATOM      7  C   UNL     1       0.091  17.035  25.453  0.00  0.00    +0.000 A 
ATOM      8  C   UNL     1      -0.652  16.403  26.464  0.00  0.00    +0.000 A 
ATOM      9  C   UNL     1      -1.708  15.505  26.129  0.00  0.00    +0.000 A 
ATOM     10  C   UNL     1      -1.983  15.174  24.782  0.00  0.00    +0.000 A 
ATOM     11  S   UNL     1      -3.529  14.112  24.217  0.00  0.00    +0.000 S 
ENDROOT
BRANCH   3  12
ATOM     12  C   UNL     1      -1.408  12.638  21.806  0.00  0.00    +0.000 A 
ATOM     13  C   UNL     1      -1.181  12.076  20.546  0.00  0.00    +0.000 A 
ATOM     14  C   UNL     1      -0.495  10.850  20.819  0.00  0.00    +0.000 A 
ATOM     15  C   UNL     1       0.385  10.031  20.096  0.00  0.00    +0.000 A 
ATOM     16  C   UNL     1       0.998   8.972  20.775  0.00  0.00    +0.000 A 
ATOM     17  C   UNL     1       0.726   8.714  22.124  0.00  0.00    +0.000 A 
ATOM     18  C   UNL     1      -0.140   9.528  22.859  0.00  0.00    +0.000 A 
ATOM     19  C   UNL     1      -0.689  10.625  22.182  0.00  0.00    +0.000 A 
ATOM     20  O   UNL     1      -1.268  11.680  22.771  0.00  0.00    +0.000 OA
ENDBRANCH   3  12
BRANCH   1  24
ATOM     21  C   UNL     1      -6.070  11.397  19.661  0.00  0.00    +0.000 A 
ATOM     22  C   UNL     1      -6.422  11.764  20.940  0.00  0.00    +0.000 A 
ATOM     23  C   UNL     1      -5.721  12.749  21.655  0.00  0.00    +0.000 A 
ATOM     24  C   UNL     1      -4.581  13.473  21.193  0.00  0.00    +0.000 A 
ATOM     25  C   UNL     1      -4.185  13.045  19.904  0.00  0.00    +0.000 A 
ATOM     26  C   UNL     1      -4.930  12.032  19.141  0.00  0.00    +0.000 A 
BRANCH  21  28
ATOM     27  C   UNL     1      -7.205   9.258  19.820  0.00  0.00    +0.000 C 
ATOM     28  O   UNL     1      -6.885  10.456  19.125  0.00  0.00    +0.000 OA
ENDBRANCH  21  28
ENDBRANCH   1  24
TORSDOF 3
ENDMDL
MODEL 6
REMARK VINA RESULT:      -6.5      3.258      6.411
REMARK  Name = 
REMARK  4 active torsions:
REMARK  status: ('A' for Active; 'I' for Inactive)
REMARK    1  A    between atoms: C_1  and  O_2
REMARK    2  A    between atoms: O_2  and  C_3
REMARK    3  A    between atoms: C_6  and  C_7
REMARK    4  A    between atoms: C_9  and  C_10
REMARK                            x       y       z     vdW  Elec       q    Type
REMARK                         _______ _______ _______ _____ _____    ______ ____
ROOT
ATOM      1  C   UNL     1      -2.161  15.612  21.522  0.00  0.00    +0.000 C 
ATOM      2  C   UNL     1      -1.624  14.467  22.382  0.00  0.00    +0.000 C 
ATOM      3  C   UNL     1      -1.986  13.110  21.801  0.00  0.00    +0.000 C 
ATOM      4  N   UNL     1      -2.855  12.345  22.393  0.00  0.00    +0.000 NA
ATOM      5  C   UNL     1      -3.780  13.035  23.217  0.00  0.00    +0.000 A 
ATOM      6  C   UNL     1      -4.097  12.460  24.456  0.00  0.00    +0.000 A 
ATOM      7  C   UNL     1      -5.417  12.378  24.874  0.00  0.00    +0.000 A 
ATOM      8  C   UNL     1      -6.403  12.875  24.005  0.00  0.00    +0.000 A 
ATOM      9  C   UNL     1      -6.037  13.665  22.875  0.00  0.00    +0.000 A 
ATOM     10  C   UNL     1      -4.678  13.904  22.563  0.00  0.00    +0.000 A 
ATOM     11  S   UNL     1      -4.086  15.132  21.157  0.00  0.00    +0.000 S 
ENDROOT
BRANCH   3  12
ATOM     12  C   UNL     1      -1.516  12.810  20.461  0.00  0.00    +0.000 A 
ATOM     13  C   UNL     1      -0.277  12.282  20.084  0.00  0.00    +0.000 A 
ATOM     14  C   UNL     1      -0.580  11.394  19.003  0.00  0.00    +0.000 A 
ATOM     15  C   UNL     1       0.040  10.260  18.456  0.00  0.00    +0.000 A 
ATOM     16  C   UNL     1      -0.661   9.539  17.484  0.00  0.00    +0.000 A 
ATOM     17  C   UNL     1      -1.927   9.945  17.043  0.00  0.00    +0.000 A 
ATOM     18  C   UNL     1      -2.559  11.066  17.587  0.00  0.00    +0.000 A 
ATOM     19  C   UNL     1      -1.874  11.733  18.610  0.00  0.00    +0.000 A 
ATOM     20  O   UNL     1      -2.426  12.609  19.461  0.00  0.00    +0.000 OA
ENDBRANCH   3  12
BRANCH   1  24
ATOM     21  C   UNL     1       1.247  17.147  18.855  0.00  0.00    +0.000 A 
ATOM     22  C   UNL     1       1.409  16.512  20.066  0.00  0.00    +0.000 A 
ATOM     23  C   UNL     1       0.319  16.021  20.803  0.00  0.00    +0.000 A 
ATOM     24  C   UNL     1      -1.057  16.115  20.437  0.00  0.00    +0.000 A 
ATOM     25  C   UNL     1      -1.220  16.825  19.224  0.00  0.00    +0.000 A 
ATOM     26  C   UNL     1      -0.083  17.319  18.435  0.00  0.00    +0.000 A 
BRANCH  21  28
ATOM     27  C   UNL     1       3.120  16.661  17.391  0.00  0.00    +0.000 C 
ATOM     28  O   UNL     1       2.417  17.518  18.280  0.00  0.00    +0.000 OA
ENDBRANCH  21  28
ENDBRANCH   1  24
TORSDOF 3
ENDMDL
MODEL 7
REMARK VINA RESULT:      -6.4      0.979      1.369
REMARK  Name = 
REMARK  4 active torsions:
REMARK  status: ('A' for Active; 'I' for Inactive)
REMARK    1  A    between atoms: C_1  and  O_2
REMARK    2  A    between atoms: O_2  and  C_3
REMARK    3  A    between atoms: C_6  and  C_7
REMARK    4  A    between atoms: C_9  and  C_10
REMARK                            x       y       z     vdW  Elec       q    Type
REMARK                         _______ _______ _______ _____ _____    ______ ____
ROOT
ATOM      1  C   UNL     1      -1.079  10.969  20.499  0.00  0.00    +0.000 C 
ATOM      2  C   UNL     1      -1.363  12.253  19.717  0.00  0.00    +0.000 C 
ATOM      3  C   UNL     1      -0.437  13.384  20.136  0.00  0.00    +0.000 C 
ATOM      4  N   UNL     1      -0.894  14.403  20.801  0.00  0.00    +0.000 NA
ATOM      5  C   UNL     1      -2.075  14.141  21.540  0.00  0.00    +0.000 A 
ATOM      6  C   UNL     1      -3.078  15.121  21.526  0.00  0.00    +0.000 A 
ATOM      7  C   UNL     1      -3.703  15.502  22.705  0.00  0.00    +0.000 A 
ATOM      8  C   UNL     1      -3.279  14.880  23.892  0.00  0.00    +0.000 A 
ATOM      9  C   UNL     1      -2.440  13.728  23.843  0.00  0.00    +0.000 A 
ATOM     10  C   UNL     1      -1.958  13.229  22.610  0.00  0.00    +0.000 A 
ATOM     11  S   UNL     1      -0.972  11.547  22.429  0.00  0.00    +0.000 S 
ENDROOT
BRANCH   3  12
ATOM     12  C   UNL     1       0.991  13.171  19.981  0.00  0.00    +0.000 A 
ATOM     13  C   UNL     1       1.753  13.281  18.813  0.00  0.00    +0.000 A 
ATOM     14  C   UNL     1       2.988  13.861  19.245  0.00  0.00    +0.000 A 
ATOM     15  C   UNL     1       3.989  14.623  18.623  0.00  0.00    +0.000 A 
ATOM     16  C   UNL     1       4.992  15.166  19.433  0.00  0.00    +0.000 A 
ATOM     17  C   UNL     1       5.020  14.938  20.815  0.00  0.00    +0.000 A 
ATOM     18  C   UNL     1       4.024  14.190  21.447  0.00  0.00    +0.000 A 
ATOM     19  C   UNL     1       2.988  13.715  20.631  0.00  0.00    +0.000 A 
ATOM     20  O   UNL     1       1.805  13.268  21.074  0.00  0.00    +0.000 OA
ENDBRANCH   3  12
BRANCH   1  24
ATOM     21  C   UNL     1       2.152   8.252  18.693  0.00  0.00    +0.000 A 
ATOM     22  C   UNL     1       1.763   8.255  20.014  0.00  0.00    +0.000 A 
ATOM     23  C   UNL     1       0.727   9.079  20.485  0.00  0.00    +0.000 A 
ATOM     24  C   UNL     1      -0.031  10.006  19.708  0.00  0.00    +0.000 A 
ATOM     25  C   UNL     1       0.417  10.044  18.367  0.00  0.00    +0.000 A 
ATOM     26  C   UNL     1       1.483   9.167  17.862  0.00  0.00    +0.000 A 
BRANCH  21  28
ATOM     27  C   UNL     1       2.912   5.965  18.412  0.00  0.00    +0.000 C 
ATOM     28  O   UNL     1       3.143   7.367  18.425  0.00  0.00    +0.000 OA
ENDBRANCH  21  28
ENDBRANCH   1  24
TORSDOF 3
ENDMDL
MODEL 8
REMARK VINA RESULT:      -6.4      6.779     10.128
REMARK  Name = 
REMARK  4 active torsions:
REMARK  status: ('A' for Active; 'I' for Inactive)
REMARK    1  A    between atoms: C_1  and  O_2
REMARK    2  A    between atoms: O_2  and  C_3
REMARK    3  A    between atoms: C_6  and  C_7
REMARK    4  A    between atoms: C_9  and  C_10
REMARK                            x       y       z     vdW  Elec       q    Type
REMARK                         _______ _______ _______ _____ _____    ______ ____
ROOT
ATOM      1  C   UNL     1       9.233  13.119  21.606  0.00  0.00    +0.000 C 
ATOM      2  C   UNL     1       9.494  14.574  21.214  0.00  0.00    +0.000 C 
ATOM      3  C   UNL     1       8.685  14.983  19.994  0.00  0.00    +0.000 C 
ATOM      4  N   UNL     1       9.270  15.202  18.854  0.00  0.00    +0.000 NA
ATOM      5  C   UNL     1      10.512  14.538  18.693  0.00  0.00    +0.000 A 
ATOM      6  C   UNL     1      11.558  15.257  18.097  0.00  0.00    +0.000 A 
ATOM      7  C   UNL     1      12.333  14.675  17.105  0.00  0.00    +0.000 A 
ATOM      8  C   UNL     1      12.015  13.361  16.723  0.00  0.00    +0.000 A 
ATOM      9  C   UNL     1      11.115  12.579  17.506  0.00  0.00    +0.000 A 
ATOM     10  C   UNL     1      10.469  13.129  18.639  0.00  0.00    +0.000 A 
ATOM     11  S   UNL     1       9.379  12.081  19.883  0.00  0.00    +0.000 S 
ENDROOT
BRANCH   3  12
ATOM     12  C   UNL     1       7.240  14.885  20.087  0.00  0.00    +0.000 A 
ATOM     13  C   UNL     1       6.382  15.612  20.919  0.00  0.00    +0.000 A 
ATOM     14  C   UNL     1       5.225  15.859  20.113  0.00  0.00    +0.000 A 
ATOM     15  C   UNL     1       4.215  16.833  20.110  0.00  0.00    +0.000 A 
ATOM     16  C   UNL     1       3.322  16.843  19.034  0.00  0.00    +0.000 A 
ATOM     17  C   UNL     1       3.407  15.898  18.004  0.00  0.00    +0.000 A 
ATOM     18  C   UNL     1       4.414  14.929  17.989  0.00  0.00    +0.000 A 
ATOM     19  C   UNL     1       5.343  14.979  19.037  0.00  0.00    +0.000 A 
ATOM     20  O   UNL     1       6.534  14.367  19.037  0.00  0.00    +0.000 OA
ENDBRANCH   3  12
BRANCH   1  24
ATOM     21  C   UNL     1       6.223  13.002  25.072  0.00  0.00    +0.000 A 
ATOM     22  C   UNL     1       7.170  13.981  24.874  0.00  0.00    +0.000 A 
ATOM     23  C   UNL     1       8.024  13.980  23.759  0.00  0.00    +0.000 A 
ATOM     24  C   UNL     1       8.050  13.002  22.720  0.00  0.00    +0.000 A 
ATOM     25  C   UNL     1       7.119  11.965  22.963  0.00  0.00    +0.000 A 
ATOM     26  C   UNL     1       6.206  11.973  24.115  0.00  0.00    +0.000 A 
BRANCH  21  28
ATOM     27  C   UNL     1       5.424  14.449  26.848  0.00  0.00    +0.000 C 
ATOM     28  O   UNL     1       5.473  13.193  26.185  0.00  0.00    +0.000 OA
ENDBRANCH  21  28
ENDBRANCH   1  24
TORSDOF 3
ENDMDL
MODEL 9
REMARK VINA RESULT:      -6.4      6.989     10.158
REMARK  Name = 
REMARK  4 active torsions:
REMARK  status: ('A' for Active; 'I' for Inactive)
REMARK    1  A    between atoms: C_1  and  O_2
REMARK    2  A    between atoms: O_2  and  C_3
REMARK    3  A    between atoms: C_6  and  C_7
REMARK    4  A    between atoms: C_9  and  C_10
REMARK                            x       y       z     vdW  Elec       q    Type
REMARK                         _______ _______ _______ _____ _____    ______ ____
ROOT
ATOM      1  C   UNL     1       9.478  12.616  21.820  0.00  0.00    +0.000 C 
ATOM      2  C   UNL     1       9.903  14.075  21.648  0.00  0.00    +0.000 C 
ATOM      3  C   UNL     1       9.049  14.792  20.615  0.00  0.00    +0.000 C 
ATOM      4  N   UNL     1       9.550  15.140  19.467  0.00  0.00    +0.000 NA
ATOM      5  C   UNL     1      10.666  14.371  19.055  0.00  0.00    +0.000 A 
ATOM      6  C   UNL     1      11.743  15.053  18.470  0.00  0.00    +0.000 A 
ATOM      7  C   UNL     1      12.333  14.569  17.311  0.00  0.00    +0.000 A 
ATOM      8  C   UNL     1      11.800  13.394  16.755  0.00  0.00    +0.000 A 
ATOM      9  C   UNL     1      10.877  12.599  17.497  0.00  0.00    +0.000 A 
ATOM     10  C   UNL     1      10.422  13.010  18.772  0.00  0.00    +0.000 A 
ATOM     11  S   UNL     1       9.317  11.895  19.942  0.00  0.00    +0.000 S 
ENDROOT
BRANCH   3  12
ATOM     12  C   UNL     1       7.619  14.856  20.857  0.00  0.00    +0.000 A 
ATOM     13  C   UNL     1       6.951  15.535  21.882  0.00  0.00    +0.000 A 
ATOM     14  C   UNL     1       5.769  16.048  21.260  0.00  0.00    +0.000 A 
ATOM     15  C   UNL     1       4.906  17.124  21.519  0.00  0.00    +0.000 A 
ATOM     16  C   UNL     1       3.925  17.417  20.566  0.00  0.00    +0.000 A 
ATOM     17  C   UNL     1       3.782  16.650  19.403  0.00  0.00    +0.000 A 
ATOM     18  C   UNL     1       4.641  15.582  19.128  0.00  0.00    +0.000 A 
ATOM     19  C   UNL     1       5.662  15.348  20.059  0.00  0.00    +0.000 A 
ATOM     20  O   UNL     1       6.753  14.605  19.830  0.00  0.00    +0.000 OA
ENDBRANCH   3  12
BRANCH   1  24
ATOM     21  C   UNL     1       6.833  12.030  25.527  0.00  0.00    +0.000 A 
ATOM     22  C   UNL     1       8.106  12.555  25.534  0.00  0.00    +0.000 A 
ATOM     23  C   UNL     1       8.837  12.754  24.351  0.00  0.00    +0.000 A 
ATOM     24  C   UNL     1       8.400  12.444  23.028  0.00  0.00    +0.000 A 
ATOM     25  C   UNL     1       7.118  11.846  23.035  0.00  0.00    +0.000 A 
ATOM     26  C   UNL     1       6.338  11.658  24.266  0.00  0.00    +0.000 A 
BRANCH  21  28
ATOM     27  C   UNL     1       6.171  10.707  27.451  0.00  0.00    +0.000 C 
ATOM     28  O   UNL     1       6.278  11.946  26.761  0.00  0.00    +0.000 OA
ENDBRANCH  21  28
ENDBRANCH   1  24
TORSDOF 3
ENDMDL
