MODEL 1
REMARK VINA RESULT:      -8.4      0.000      0.000
REMARK  Name = 
REMARK  8 active torsions:
REMARK  status: ('A' for Active; 'I' for Inactive)
REMARK    1  A    between atoms: C_1  and  O_2
REMARK    2  A    between atoms: O_2  and  C_3
REMARK    3  A    between atoms: C_5  and  O_6
REMARK    4  A    between atoms: O_6  and  C_7
REMARK    5  A    between atoms: C_9  and  C_10
REMARK    6  A    between atoms: N_12  and  C_13
REMARK    7  A    between atoms: C_15  and  C_16
REMARK    8  A    between atoms: C_27  and  C_28
REMARK                            x       y       z     vdW  Elec       q    Type
REMARK                         _______ _______ _______ _____ _____    ______ ____
ROOT
ATOM      1  C   UNL     1       3.207   5.901  19.205  0.00  0.00    +0.000 A 
ATOM      2  C   UNL     1       4.009   5.883  18.057  0.00  0.00    +0.000 A 
ATOM      3  C   UNL     1       4.562   4.708  17.542  0.00  0.00    +0.000 A 
ATOM      4  C   UNL     1       4.397   3.531  18.266  0.00  0.00    +0.000 A 
ATOM      5  C   UNL     1       3.653   3.530  19.450  0.00  0.00    +0.000 A 
ATOM      6  C   UNL     1       3.023   4.703  19.919  0.00  0.00    +0.000 A 
ATOM      7  C   UNL     1       2.160   4.597  21.145  0.00  0.00    +0.000 C 
ENDROOT
BRANCH   3   8
ATOM      8  C   UNL     1       5.236   4.702  16.251  0.00  0.00    +0.000 A 
ATOM      9  C   UNL     1       4.906   3.918  15.164  0.00  0.00    +0.000 A 
ATOM     10  N   UNL     1       5.868   4.171  14.229  0.00  0.00    +0.000 N 
ATOM     11  C   UNL     1       6.036   3.635  12.961  0.00  0.00    +0.000 A 
ATOM     12  C   UNL     1       7.082   4.025  12.222  0.00  0.00    +0.000 A 
ATOM     13  C   UNL     1       7.975   5.024  12.877  0.00  0.00    +0.000 A 
ATOM     14  N   UNL     1       7.831   5.542  14.061  0.00  0.00    +0.000 NA
ATOM     15  C   UNL     1       6.747   5.107  14.770  0.00  0.00    +0.000 A 
ATOM     16  N   UNL     1       6.366   5.441  15.986  0.00  0.00    +0.000 NA
ENDBRANCH   3   8
BRANCH   1  19
ATOM     17  C   UNL     1       2.051   8.054  18.743  0.00  0.00    +0.000 C 
ATOM     18  O   UNL     1       2.057   8.009  17.516  0.00  0.00    +0.000 OA
ATOM     19  N   UNL     1       2.564   7.103  19.617  0.00  0.00    +0.000 N 
ATOM     20  H   UNL     1       2.308   7.174  20.592  0.00  0.00    +0.000 HD
BRANCH  17  25
ATOM     21  C   UNL     1       0.135  11.281  19.245  0.00  0.00    +0.000 A 
ATOM     22  C   UNL     1      -0.029  11.232  20.637  0.00  0.00    +0.000 A 
ATOM     23  C   UNL     1       0.468  10.166  21.390  0.00  0.00    +0.000 A 
ATOM     24  C   UNL     1       1.132   9.141  20.732  0.00  0.00    +0.000 A 
ATOM     25  C   UNL     1       1.330   9.196  19.344  0.00  0.00    +0.000 A 
ATOM     26  C   UNL     1       0.819  10.255  18.591  0.00  0.00    +0.000 A 
BRANCH  21  28
ATOM     27  C   UNL     1      -0.411  13.596  19.393  0.00  0.00    +0.000 C 
ATOM     28  O   UNL     1      -0.412  12.384  18.648  0.00  0.00    +0.000 OA
ENDBRANCH  21  28
BRANCH  23  29
ATOM     29  O   UNL     1       0.262  10.232  22.740  0.00  0.00    +0.000 OA
ATOM     30  C   UNL     1      -1.047  10.606  23.168  0.00  0.00    +0.000 C 
ENDBRANCH  23  29
ENDBRANCH  17  25
ENDBRANCH   1  19
TORSDOF 5
ENDMDL
MODEL 2
REMARK VINA RESULT:      -8.4      0.381      2.105
REMARK  Name = 
REMARK  8 active torsions:
REMARK  status: ('A' for Active; 'I' for Inactive)
REMARK    1  A    between atoms: C_1  and  O_2
REMARK    2  A    between atoms: O_2  and  C_3
REMARK    3  A    between atoms: C_5  and  O_6
REMARK    4  A    between atoms: O_6  and  C_7
REMARK    5  A    between atoms: C_9  and  C_10
REMARK    6  A    between atoms: N_12  and  C_13
REMARK    7  A    between atoms: C_15  and  C_16
REMARK    8  A    between atoms: C_27  and  C_28
REMARK                            x       y       z     vdW  Elec       q    Type
REMARK                         _______ _______ _______ _____ _____    ______ ____
ROOT
ATOM      1  C   UNL     1       3.220   5.592  19.304  0.00  0.00    +0.000 A 
ATOM      2  C   UNL     1       4.013   5.621  18.150  0.00  0.00    +0.000 A 
ATOM      3  C   UNL     1       4.553   4.467  17.577  0.00  0.00    +0.000 A 
ATOM      4  C   UNL     1       4.384   3.259  18.247  0.00  0.00    +0.000 A 
ATOM      5  C   UNL     1       3.650   3.210  19.436  0.00  0.00    +0.000 A 
ATOM      6  C   UNL     1       3.032   4.363  19.964  0.00  0.00    +0.000 A 
ATOM      7  C   UNL     1       2.179   4.208  21.191  0.00  0.00    +0.000 C 
ENDROOT
BRANCH   3   8
ATOM      8  C   UNL     1       5.216   4.516  16.281  0.00  0.00    +0.000 A 
ATOM      9  C   UNL     1       4.913   3.739  15.182  0.00  0.00    +0.000 A 
ATOM     10  N   UNL     1       5.855   4.053  14.245  0.00  0.00    +0.000 N 
ATOM     11  C   UNL     1       6.037   3.550  12.966  0.00  0.00    +0.000 A 
ATOM     12  C   UNL     1       7.059   3.999  12.228  0.00  0.00    +0.000 A 
ATOM     13  C   UNL     1       7.911   5.024  12.896  0.00  0.00    +0.000 A 
ATOM     14  N   UNL     1       7.755   5.512  14.090  0.00  0.00    +0.000 NA
ATOM     15  C   UNL     1       6.696   5.016  14.798  0.00  0.00    +0.000 A 
ATOM     16  N   UNL     1       6.310   5.310  16.024  0.00  0.00    +0.000 NA
ENDBRANCH   3   8
BRANCH   1  19
ATOM     17  C   UNL     1       2.187   7.828  18.959  0.00  0.00    +0.000 C 
ATOM     18  O   UNL     1       2.295   7.896  17.738  0.00  0.00    +0.000 OA
ATOM     19  N   UNL     1       2.589   6.778  19.777  0.00  0.00    +0.000 N 
ATOM     20  H   UNL     1       2.255   6.770  20.730  0.00  0.00    +0.000 HD
BRANCH  17  25
ATOM     21  C   UNL     1       0.608  10.132  21.515  0.00  0.00    +0.000 A 
ATOM     22  C   UNL     1       0.104  11.116  20.652  0.00  0.00    +0.000 A 
ATOM     23  C   UNL     1       0.285  11.031  19.270  0.00  0.00    +0.000 A 
ATOM     24  C   UNL     1       0.981   9.946  18.756  0.00  0.00    +0.000 A 
ATOM     25  C   UNL     1       1.460   8.940  19.608  0.00  0.00    +0.000 A 
ATOM     26  C   UNL     1       1.292   9.035  20.991  0.00  0.00    +0.000 A 
BRANCH  21  28
ATOM     27  C   UNL     1      -0.983  10.183  23.289  0.00  0.00    +0.000 C 
ATOM     28  O   UNL     1       0.356  10.358  22.841  0.00  0.00    +0.000 OA
ENDBRANCH  21  28
BRANCH  23  29
ATOM     29  O   UNL     1      -0.262  12.040  18.526  0.00  0.00    +0.000 OA
ATOM     30  C   UNL     1       0.528  13.218  18.370  0.00  0.00    +0.000 C 
ENDBRANCH  23  29
ENDBRANCH  17  25
ENDBRANCH   1  19
TORSDOF 5
ENDMDL
MODEL 3
REMARK VINA RESULT:      -8.1      0.967      2.084
REMARK  Name = 
REMARK  8 active torsions:
REMARK  status: ('A' for Active; 'I' for Inactive)
REMARK    1  A    between atoms: C_1  and  O_2
REMARK    2  A    between atoms: O_2  and  C_3
REMARK    3  A    between atoms: C_5  and  O_6
REMARK    4  A    between atoms: O_6  and  C_7
REMARK    5  A    between atoms: C_9  and  C_10
REMARK    6  A    between atoms: N_12  and  C_13
REMARK    7  A    between atoms: C_15  and  C_16
REMARK    8  A    between atoms: C_27  and  C_28
REMARK                            x       y       z     vdW  Elec       q    Type
REMARK                         _______ _______ _______ _____ _____    ______ ____
ROOT
ATOM      1  C   UNL     1       3.076   5.988  19.048  0.00  0.00    +0.000 A 
ATOM      2  C   UNL     1       3.880   5.976  17.901  0.00  0.00    +0.000 A 
ATOM      3  C   UNL     1       4.576   4.840  17.481  0.00  0.00    +0.000 A 
ATOM      4  C   UNL     1       4.555   3.715  18.300  0.00  0.00    +0.000 A 
ATOM      5  C   UNL     1       3.811   3.719  19.483  0.00  0.00    +0.000 A 
ATOM      6  C   UNL     1       3.038   4.839  19.859  0.00  0.00    +0.000 A 
ATOM      7  C   UNL     1       2.189   4.728  21.093  0.00  0.00    +0.000 C 
ENDROOT
BRANCH   3   8
ATOM      8  C   UNL     1       5.252   4.812  16.191  0.00  0.00    +0.000 A 
ATOM      9  C   UNL     1       4.915   4.020  15.113  0.00  0.00    +0.000 A 
ATOM     10  N   UNL     1       5.881   4.252  14.176  0.00  0.00    +0.000 N 
ATOM     11  C   UNL     1       6.044   3.701  12.914  0.00  0.00    +0.000 A 
ATOM     12  C   UNL     1       7.096   4.070  12.173  0.00  0.00    +0.000 A 
ATOM     13  C   UNL     1       8.000   5.065  12.819  0.00  0.00    +0.000 A 
ATOM     14  N   UNL     1       7.861   5.597  13.996  0.00  0.00    +0.000 NA
ATOM     15  C   UNL     1       6.770   5.183  14.708  0.00  0.00    +0.000 A 
ATOM     16  N   UNL     1       6.391   5.535  15.921  0.00  0.00    +0.000 NA
ENDBRANCH   3   8
BRANCH   1  19
ATOM     17  C   UNL     1       2.166   8.248  18.545  0.00  0.00    +0.000 C 
ATOM     18  O   UNL     1       2.693   8.421  17.450  0.00  0.00    +0.000 OA
ATOM     19  N   UNL     1       2.287   7.130  19.363  0.00  0.00    +0.000 N 
ATOM     20  H   UNL     1       1.639   7.041  20.134  0.00  0.00    +0.000 HD
BRANCH  17  25
ATOM     21  C   UNL     1       0.362  10.887  20.575  0.00  0.00    +0.000 A 
ATOM     22  C   UNL     1      -0.587  11.292  19.625  0.00  0.00    +0.000 A 
ATOM     23  C   UNL     1      -0.630  10.721  18.351  0.00  0.00    +0.000 A 
ATOM     24  C   UNL     1       0.295   9.737  18.033  0.00  0.00    +0.000 A 
ATOM     25  C   UNL     1       1.228   9.302  18.985  0.00  0.00    +0.000 A 
ATOM     26  C   UNL     1       1.278   9.884  20.254  0.00  0.00    +0.000 A 
BRANCH  21  28
ATOM     27  C   UNL     1      -0.992  11.588  22.405  0.00  0.00    +0.000 C 
ATOM     28  O   UNL     1       0.281  11.542  21.773  0.00  0.00    +0.000 OA
ENDBRANCH  21  28
BRANCH  23  29
ATOM     29  O   UNL     1      -1.607  11.185  17.515  0.00  0.00    +0.000 OA
ATOM     30  C   UNL     1      -2.301  10.208  16.740  0.00  0.00    +0.000 C 
ENDBRANCH  23  29
ENDBRANCH  17  25
ENDBRANCH   1  19
TORSDOF 5
ENDMDL
MODEL 4
REMARK VINA RESULT:      -7.9      0.946      2.103
REMARK  Name = 
REMARK  8 active torsions:
REMARK  status: ('A' for Active; 'I' for Inactive)
REMARK    1  A    between atoms: C_1  and  O_2
REMARK    2  A    between atoms: O_2  and  C_3
REMARK    3  A    between atoms: C_5  and  O_6
REMARK    4  A    between atoms: O_6  and  C_7
REMARK    5  A    between atoms: C_9  and  C_10
REMARK    6  A    between atoms: N_12  and  C_13
REMARK    7  A    between atoms: C_15  and  C_16
REMARK    8  A    between atoms: C_27  and  C_28
REMARK                            x       y       z     vdW  Elec       q    Type
REMARK                         _______ _______ _______ _____ _____    ______ ____
ROOT
ATOM      1  C   UNL     1       3.068   6.195  18.909  0.00  0.00    +0.000 A 
ATOM      2  C   UNL     1       3.909   6.116  17.792  0.00  0.00    +0.000 A 
ATOM      3  C   UNL     1       4.437   4.907  17.330  0.00  0.00    +0.000 A 
ATOM      4  C   UNL     1       4.204   3.758  18.080  0.00  0.00    +0.000 A 
ATOM      5  C   UNL     1       3.419   3.819  19.236  0.00  0.00    +0.000 A 
ATOM      6  C   UNL     1       2.816   5.025  19.649  0.00  0.00    +0.000 A 
ATOM      7  C   UNL     1       1.907   4.986  20.845  0.00  0.00    +0.000 C 
ENDROOT
BRANCH   3   8
ATOM      8  C   UNL     1       5.155   4.840  16.065  0.00  0.00    +0.000 A 
ATOM      9  C   UNL     1       4.862   4.006  15.006  0.00  0.00    +0.000 A 
ATOM     10  N   UNL     1       5.856   4.215  14.094  0.00  0.00    +0.000 N 
ATOM     11  C   UNL     1       6.066   3.620  12.859  0.00  0.00    +0.000 A 
ATOM     12  C   UNL     1       7.139   3.974  12.139  0.00  0.00    +0.000 A 
ATOM     13  C   UNL     1       8.010   5.001  12.778  0.00  0.00    +0.000 A 
ATOM     14  N   UNL     1       7.827   5.575  13.930  0.00  0.00    +0.000 NA
ATOM     15  C   UNL     1       6.718   5.174  14.620  0.00  0.00    +0.000 A 
ATOM     16  N   UNL     1       6.296   5.566  15.806  0.00  0.00    +0.000 NA
ENDBRANCH   3   8
BRANCH   1  19
ATOM     17  C   UNL     1       2.175   8.452  18.363  0.00  0.00    +0.000 C 
ATOM     18  O   UNL     1       2.391   8.450  17.155  0.00  0.00    +0.000 OA
ATOM     19  N   UNL     1       2.455   7.430  19.264  0.00  0.00    +0.000 N 
ATOM     20  H   UNL     1       2.039   7.487  20.183  0.00  0.00    +0.000 HD
BRANCH  17  25
ATOM     21  C   UNL     1      -0.125  10.705  20.354  0.00  0.00    +0.000 A 
ATOM     22  C   UNL     1       0.211  11.939  19.776  0.00  0.00    +0.000 A 
ATOM     23  C   UNL     1       1.171  12.029  18.767  0.00  0.00    +0.000 A 
ATOM     24  C   UNL     1       1.799  10.868  18.340  0.00  0.00    +0.000 A 
ATOM     25  C   UNL     1       1.448   9.626  18.889  0.00  0.00    +0.000 A 
ATOM     26  C   UNL     1       0.498   9.539  19.909  0.00  0.00    +0.000 A 
BRANCH  21  28
ATOM     27  C   UNL     1      -0.633  11.069  22.654  0.00  0.00    +0.000 C 
ATOM     28  O   UNL     1      -1.077  10.779  21.334  0.00  0.00    +0.000 OA
ENDBRANCH  21  28
BRANCH  23  29
ATOM     29  O   UNL     1       1.406  13.281  18.268  0.00  0.00    +0.000 OA
ATOM     30  C   UNL     1       2.445  14.033  18.894  0.00  0.00    +0.000 C 
ENDBRANCH  23  29
ENDBRANCH  17  25
ENDBRANCH   1  19
TORSDOF 5
ENDMDL
MODEL 5
REMARK VINA RESULT:      -7.9      0.704      2.280
REMARK  Name = 
REMARK  8 active torsions:
REMARK  status: ('A' for Active; 'I' for Inactive)
REMARK    1  A    between atoms: C_1  and  O_2
REMARK    2  A    between atoms: O_2  and  C_3
REMARK    3  A    between atoms: C_5  and  O_6
REMARK    4  A    between atoms: O_6  and  C_7
REMARK    5  A    between atoms: C_9  and  C_10
REMARK    6  A    between atoms: N_12  and  C_13
REMARK    7  A    between atoms: C_15  and  C_16
REMARK    8  A    between atoms: C_27  and  C_28
REMARK                            x       y       z     vdW  Elec       q    Type
REMARK                         _______ _______ _______ _____ _____    ______ ____
ROOT
ATOM      1  C   UNL     1       3.210   5.482  19.452  0.00  0.00    +0.000 A 
ATOM      2  C   UNL     1       4.082   5.489  18.357  0.00  0.00    +0.000 A 
ATOM      3  C   UNL     1       4.596   4.318  17.794  0.00  0.00    +0.000 A 
ATOM      4  C   UNL     1       4.314   3.108  18.422  0.00  0.00    +0.000 A 
ATOM      5  C   UNL     1       3.496   3.077  19.556  0.00  0.00    +0.000 A 
ATOM      6  C   UNL     1       2.908   4.254  20.068  0.00  0.00    +0.000 A 
ATOM      7  C   UNL     1       1.963   4.122  21.229  0.00  0.00    +0.000 C 
ENDROOT
BRANCH   3   8
ATOM      8  C   UNL     1       5.350   4.355  16.549  0.00  0.00    +0.000 A 
ATOM      9  C   UNL     1       6.418   5.182  16.268  0.00  0.00    +0.000 A 
ATOM     10  N   UNL     1       6.728   4.942  14.960  0.00  0.00    +0.000 N 
ATOM     11  C   UNL     1       7.704   5.517  14.160  0.00  0.00    +0.000 A 
ATOM     12  C   UNL     1       7.809   5.132  12.882  0.00  0.00    +0.000 A 
ATOM     13  C   UNL     1       6.826   4.094  12.458  0.00  0.00    +0.000 A 
ATOM     14  N   UNL     1       5.910   3.539  13.193  0.00  0.00    +0.000 NA
ATOM     15  C   UNL     1       5.848   3.971  14.489  0.00  0.00    +0.000 A 
ATOM     16  N   UNL     1       5.019   3.603  15.445  0.00  0.00    +0.000 NA
ENDBRANCH   3   8
BRANCH   1  19
ATOM     17  C   UNL     1       2.123   7.687  19.070  0.00  0.00    +0.000 C 
ATOM     18  O   UNL     1       2.112   7.678  17.842  0.00  0.00    +0.000 OA
ATOM     19  N   UNL     1       2.615   6.693  19.908  0.00  0.00    +0.000 N 
ATOM     20  H   UNL     1       2.374   6.744  20.888  0.00  0.00    +0.000 HD
BRANCH  17  25
ATOM     21  C   UNL     1       0.544  10.013  21.606  0.00  0.00    +0.000 A 
ATOM     22  C   UNL     1       0.220  11.084  20.759  0.00  0.00    +0.000 A 
ATOM     23  C   UNL     1       0.519  11.048  19.396  0.00  0.00    +0.000 A 
ATOM     24  C   UNL     1       1.152   9.924  18.884  0.00  0.00    +0.000 A 
ATOM     25  C   UNL     1       1.451   8.834  19.715  0.00  0.00    +0.000 A 
ATOM     26  C   UNL     1       1.165   8.878  21.081  0.00  0.00    +0.000 A 
BRANCH  21  28
ATOM     27  C   UNL     1      -1.061  10.820  23.171  0.00  0.00    +0.000 C 
ATOM     28  O   UNL     1       0.193  10.199  22.915  0.00  0.00    +0.000 OA
ENDBRANCH  21  28
BRANCH  23  29
ATOM     29  O   UNL     1       0.145  12.142  18.667  0.00  0.00    +0.000 OA
ATOM     30  C   UNL     1      -0.269  13.291  19.405  0.00  0.00    +0.000 C 
ENDBRANCH  23  29
ENDBRANCH  17  25
ENDBRANCH   1  19
TORSDOF 5
ENDMDL
MODEL 6
REMARK VINA RESULT:      -7.8      0.664      1.130
REMARK  Name = 
REMARK  8 active torsions:
REMARK  status: ('A' for Active; 'I' for Inactive)
REMARK    1  A    between atoms: C_1  and  O_2
REMARK    2  A    between atoms: O_2  and  C_3
REMARK    3  A    between atoms: C_5  and  O_6
REMARK    4  A    between atoms: O_6  and  C_7
REMARK    5  A    between atoms: C_9  and  C_10
REMARK    6  A    between atoms: N_12  and  C_13
REMARK    7  A    between atoms: C_15  and  C_16
REMARK    8  A    between atoms: C_27  and  C_28
REMARK                            x       y       z     vdW  Elec       q    Type
REMARK                         _______ _______ _______ _____ _____    ______ ____
ROOT
ATOM      1  C   UNL     1       3.245   5.683  19.254  0.00  0.00    +0.000 A 
ATOM      2  C   UNL     1       4.100   5.666  18.145  0.00  0.00    +0.000 A 
ATOM      3  C   UNL     1       4.700   4.496  17.674  0.00  0.00    +0.000 A 
ATOM      4  C   UNL     1       4.525   3.326  18.407  0.00  0.00    +0.000 A 
ATOM      5  C   UNL     1       3.727   3.326  19.555  0.00  0.00    +0.000 A 
ATOM      6  C   UNL     1       3.052   4.491  19.977  0.00  0.00    +0.000 A 
ATOM      7  C   UNL     1       2.135   4.385  21.163  0.00  0.00    +0.000 C 
ENDROOT
BRANCH   3   8
ATOM      8  C   UNL     1       5.433   4.486  16.415  0.00  0.00    +0.000 A 
ATOM      9  C   UNL     1       6.485   5.313  16.080  0.00  0.00    +0.000 A 
ATOM     10  N   UNL     1       6.777   5.018  14.779  0.00  0.00    +0.000 N 
ATOM     11  C   UNL     1       7.732   5.569  13.937  0.00  0.00    +0.000 A 
ATOM     12  C   UNL     1       7.821   5.129  12.676  0.00  0.00    +0.000 A 
ATOM     13  C   UNL     1       6.845   4.061  12.316  0.00  0.00    +0.000 A 
ATOM     14  N   UNL     1       5.948   3.527  13.091  0.00  0.00    +0.000 NA
ATOM     15  C   UNL     1       5.902   4.016  14.366  0.00  0.00    +0.000 A 
ATOM     16  N   UNL     1       5.094   3.681  15.352  0.00  0.00    +0.000 NA
ENDBRANCH   3   8
BRANCH   1  19
ATOM     17  C   UNL     1       2.233   7.894  18.728  0.00  0.00    +0.000 C 
ATOM     18  O   UNL     1       2.465   7.922  17.523  0.00  0.00    +0.000 OA
ATOM     19  N   UNL     1       2.559   6.877  19.618  0.00  0.00    +0.000 N 
ATOM     20  H   UNL     1       2.128   6.897  20.532  0.00  0.00    +0.000 HD
BRANCH  17  25
ATOM     21  C   UNL     1       0.046  10.969  19.032  0.00  0.00    +0.000 A 
ATOM     22  C   UNL     1      -0.054  11.038  20.430  0.00  0.00    +0.000 A 
ATOM     23  C   UNL     1       0.573  10.097  21.250  0.00  0.00    +0.000 A 
ATOM     24  C   UNL     1       1.302   9.078  20.655  0.00  0.00    +0.000 A 
ATOM     25  C   UNL     1       1.435   9.018  19.260  0.00  0.00    +0.000 A 
ATOM     26  C   UNL     1       0.795   9.951  18.441  0.00  0.00    +0.000 A 
BRANCH  21  28
ATOM     27  C   UNL     1      -0.745  13.217  19.017  0.00  0.00    +0.000 C 
ATOM     28  O   UNL     1      -0.627  11.957  18.366  0.00  0.00    +0.000 OA
ENDBRANCH  21  28
BRANCH  23  29
ATOM     29  O   UNL     1       0.419  10.273  22.597  0.00  0.00    +0.000 OA
ATOM     30  C   UNL     1      -0.915  10.459  23.068  0.00  0.00    +0.000 C 
ENDBRANCH  23  29
ENDBRANCH  17  25
ENDBRANCH   1  19
TORSDOF 5
ENDMDL
MODEL 7
REMARK VINA RESULT:      -7.8      3.854      6.354
REMARK  Name = 
REMARK  8 active torsions:
REMARK  status: ('A' for Active; 'I' for Inactive)
REMARK    1  A    between atoms: C_1  and  O_2
REMARK    2  A    between atoms: O_2  and  C_3
REMARK    3  A    between atoms: C_5  and  O_6
REMARK    4  A    between atoms: O_6  and  C_7
REMARK    5  A    between atoms: C_9  and  C_10
REMARK    6  A    between atoms: N_12  and  C_13
REMARK    7  A    between atoms: C_15  and  C_16
REMARK    8  A    between atoms: C_27  and  C_28
REMARK                            x       y       z     vdW  Elec       q    Type
REMARK                         _______ _______ _______ _____ _____    ______ ____
ROOT
ATOM      1  C   UNL     1       0.958  10.426  20.038  0.00  0.00    +0.000 A 
ATOM      2  C   UNL     1       1.171   9.058  20.251  0.00  0.00    +0.000 A 
ATOM      3  C   UNL     1       1.884   8.258  19.355  0.00  0.00    +0.000 A 
ATOM      4  C   UNL     1       2.300   8.824  18.154  0.00  0.00    +0.000 A 
ATOM      5  C   UNL     1       2.047  10.173  17.886  0.00  0.00    +0.000 A 
ATOM      6  C   UNL     1       1.403  10.999  18.832  0.00  0.00    +0.000 A 
ATOM      7  C   UNL     1       1.257  12.459  18.509  0.00  0.00    +0.000 C 
ENDROOT
BRANCH   3   8
ATOM      8  C   UNL     1       2.241   6.887  19.697  0.00  0.00    +0.000 A 
ATOM      9  C   UNL     1       3.081   6.061  18.979  0.00  0.00    +0.000 A 
ATOM     10  N   UNL     1       3.029   4.853  19.613  0.00  0.00    +0.000 N 
ATOM     11  C   UNL     1       3.662   3.659  19.299  0.00  0.00    +0.000 A 
ATOM     12  C   UNL     1       3.440   2.583  20.065  0.00  0.00    +0.000 A 
ATOM     13  C   UNL     1       2.503   2.807  21.203  0.00  0.00    +0.000 A 
ATOM     14  N   UNL     1       1.906   3.918  21.517  0.00  0.00    +0.000 NA
ATOM     15  C   UNL     1       2.169   4.983  20.701  0.00  0.00    +0.000 A 
ATOM     16  N   UNL     1       1.697   6.211  20.765  0.00  0.00    +0.000 NA
ENDBRANCH   3   8
BRANCH   1  19
ATOM     17  C   UNL     1      -0.967  11.704  20.959  0.00  0.00    +0.000 C 
ATOM     18  O   UNL     1      -1.769  11.513  20.049  0.00  0.00    +0.000 OA
ATOM     19  N   UNL     1       0.336  11.224  21.039  0.00  0.00    +0.000 N 
ATOM     20  H   UNL     1       0.806  11.287  21.932  0.00  0.00    +0.000 HD
BRANCH  17  25
ATOM     21  C   UNL     1      -1.369  14.136  23.833  0.00  0.00    +0.000 A 
ATOM     22  C   UNL     1      -2.622  13.720  24.307  0.00  0.00    +0.000 A 
ATOM     23  C   UNL     1      -3.320  12.676  23.696  0.00  0.00    +0.000 A 
ATOM     24  C   UNL     1      -2.750  12.050  22.597  0.00  0.00    +0.000 A 
ATOM     25  C   UNL     1      -1.483  12.436  22.135  0.00  0.00    +0.000 A 
ATOM     26  C   UNL     1      -0.794  13.490  22.738  0.00  0.00    +0.000 A 
BRANCH  21  28
ATOM     27  C   UNL     1      -1.479  15.589  25.718  0.00  0.00    +0.000 C 
ATOM     28  O   UNL     1      -0.814  15.173  24.531  0.00  0.00    +0.000 OA
ENDBRANCH  21  28
BRANCH  23  29
ATOM     29  O   UNL     1      -4.525  12.349  24.253  0.00  0.00    +0.000 OA
ATOM     30  C   UNL     1      -5.668  13.043  23.757  0.00  0.00    +0.000 C 
ENDBRANCH  23  29
ENDBRANCH  17  25
ENDBRANCH   1  19
TORSDOF 5
ENDMDL
MODEL 8
REMARK VINA RESULT:      -7.7      3.611      9.235
REMARK  Name = 
REMARK  8 active torsions:
REMARK  status: ('A' for Active; 'I' for Inactive)
REMARK    1  A    between atoms: C_1  and  O_2
REMARK    2  A    between atoms: O_2  and  C_3
REMARK    3  A    between atoms: C_5  and  O_6
REMARK    4  A    between atoms: O_6  and  C_7
REMARK    5  A    between atoms: C_9  and  C_10
REMARK    6  A    between atoms: N_12  and  C_13
REMARK    7  A    between atoms: C_15  and  C_16
REMARK    8  A    between atoms: C_27  and  C_28
REMARK                            x       y       z     vdW  Elec       q    Type
REMARK                         _______ _______ _______ _____ _____    ______ ____
ROOT
ATOM      1  C   UNL     1       0.968   9.538  19.914  0.00  0.00    +0.000 A 
ATOM      2  C   UNL     1       1.247  10.749  19.269  0.00  0.00    +0.000 A 
ATOM      3  C   UNL     1       0.704  11.967  19.684  0.00  0.00    +0.000 A 
ATOM      4  C   UNL     1      -0.236  11.953  20.710  0.00  0.00    +0.000 A 
ATOM      5  C   UNL     1      -0.581  10.748  21.332  0.00  0.00    +0.000 A 
ATOM      6  C   UNL     1       0.036   9.533  20.968  0.00  0.00    +0.000 A 
ATOM      7  C   UNL     1      -0.318   8.300  21.751  0.00  0.00    +0.000 C 
ENDROOT
BRANCH   3   8
ATOM      8  C   UNL     1       1.158  13.224  19.106  0.00  0.00    +0.000 A 
ATOM      9  C   UNL     1       2.355  13.434  18.452  0.00  0.00    +0.000 A 
ATOM     10  N   UNL     1       2.391  14.773  18.184  0.00  0.00    +0.000 N 
ATOM     11  C   UNL     1       3.377  15.527  17.565  0.00  0.00    +0.000 A 
ATOM     12  C   UNL     1       3.200  16.847  17.431  0.00  0.00    +0.000 A 
ATOM     13  C   UNL     1       1.917  17.366  17.986  0.00  0.00    +0.000 A 
ATOM     14  N   UNL     1       0.979  16.676  18.564  0.00  0.00    +0.000 NA
ATOM     15  C   UNL     1       1.214  15.334  18.673  0.00  0.00    +0.000 A 
ATOM     16  N   UNL     1       0.459  14.404  19.222  0.00  0.00    +0.000 NA
ENDBRANCH   3   8
BRANCH   1  19
ATOM     17  C   UNL     1       2.203   8.129  18.277  0.00  0.00    +0.000 C 
ATOM     18  O   UNL     1       2.214   8.911  17.330  0.00  0.00    +0.000 OA
ATOM     19  N   UNL     1       1.644   8.345  19.532  0.00  0.00    +0.000 N 
ATOM     20  H   UNL     1       1.888   7.700  20.271  0.00  0.00    +0.000 HD
BRANCH  17  25
ATOM     21  C   UNL     1       3.264   4.495  18.309  0.00  0.00    +0.000 A 
ATOM     22  C   UNL     1       4.468   4.605  17.598  0.00  0.00    +0.000 A 
ATOM     23  C   UNL     1       4.916   5.836  17.115  0.00  0.00    +0.000 A 
ATOM     24  C   UNL     1       4.141   6.963  17.348  0.00  0.00    +0.000 A 
ATOM     25  C   UNL     1       2.952   6.870  18.085  0.00  0.00    +0.000 A 
ATOM     26  C   UNL     1       2.498   5.635  18.555  0.00  0.00    +0.000 A 
BRANCH  21  28
ATOM     27  C   UNL     1       2.536   2.307  17.709  0.00  0.00    +0.000 C 
ATOM     28  O   UNL     1       2.957   3.224  18.712  0.00  0.00    +0.000 OA
ENDBRANCH  21  28
BRANCH  23  29
ATOM     29  O   UNL     1       6.110   5.825  16.449  0.00  0.00    +0.000 OA
ATOM     30  C   UNL     1       6.836   4.596  16.459  0.00  0.00    +0.000 C 
ENDBRANCH  23  29
ENDBRANCH  17  25
ENDBRANCH   1  19
TORSDOF 5
ENDMDL
MODEL 9
REMARK VINA RESULT:      -7.7      3.455      9.111
REMARK  Name = 
REMARK  8 active torsions:
REMARK  status: ('A' for Active; 'I' for Inactive)
REMARK    1  A    between atoms: C_1  and  O_2
REMARK    2  A    between atoms: O_2  and  C_3
REMARK    3  A    between atoms: C_5  and  O_6
REMARK    4  A    between atoms: O_6  and  C_7
REMARK    5  A    between atoms: C_9  and  C_10
REMARK    6  A    between atoms: N_12  and  C_13
REMARK    7  A    between atoms: C_15  and  C_16
REMARK    8  A    between atoms: C_27  and  C_28
REMARK                            x       y       z     vdW  Elec       q    Type
REMARK                         _______ _______ _______ _____ _____    ______ ____
ROOT
ATOM      1  C   UNL     1       1.002   9.604  19.921  0.00  0.00    +0.000 A 
ATOM      2  C   UNL     1       1.289  10.853  19.358  0.00  0.00    +0.000 A 
ATOM      3  C   UNL     1       0.715  12.040  19.822  0.00  0.00    +0.000 A 
ATOM      4  C   UNL     1      -0.263  11.955  20.808  0.00  0.00    +0.000 A 
ATOM      5  C   UNL     1      -0.616  10.713  21.346  0.00  0.00    +0.000 A 
ATOM      6  C   UNL     1       0.030   9.527  20.935  0.00  0.00    +0.000 A 
ATOM      7  C   UNL     1      -0.336   8.247  21.632  0.00  0.00    +0.000 C 
ENDROOT
BRANCH   3   8
ATOM      8  C   UNL     1       1.174  13.333  19.335  0.00  0.00    +0.000 A 
ATOM      9  C   UNL     1       0.475  14.521  19.398  0.00  0.00    +0.000 A 
ATOM     10  N   UNL     1       1.244  15.430  18.729  0.00  0.00    +0.000 N 
ATOM     11  C   UNL     1       1.008  16.771  18.468  0.00  0.00    +0.000 A 
ATOM     12  C   UNL     1       1.909  17.467  17.764  0.00  0.00    +0.000 A 
ATOM     13  C   UNL     1       3.101  16.686  17.327  0.00  0.00    +0.000 A 
ATOM     14  N   UNL     1       3.344  15.431  17.566  0.00  0.00    +0.000 NA
ATOM     15  C   UNL     1       2.390  14.771  18.289  0.00  0.00    +0.000 A 
ATOM     16  N   UNL     1       2.361  13.507  18.660  0.00  0.00    +0.000 NA
ENDBRANCH   3   8
BRANCH   1  19
ATOM     17  C   UNL     1       2.162   8.233  18.199  0.00  0.00    +0.000 C 
ATOM     18  O   UNL     1       2.045   8.996  17.244  0.00  0.00    +0.000 OA
ATOM     19  N   UNL     1       1.707   8.442  19.496  0.00  0.00    +0.000 N 
ATOM     20  H   UNL     1       2.052   7.826  20.220  0.00  0.00    +0.000 HD
BRANCH  17  25
ATOM     21  C   UNL     1       4.910   5.834  17.184  0.00  0.00    +0.000 A 
ATOM     22  C   UNL     1       4.334   4.633  17.623  0.00  0.00    +0.000 A 
ATOM     23  C   UNL     1       3.082   4.611  18.241  0.00  0.00    +0.000 A 
ATOM     24  C   UNL     1       2.409   5.810  18.421  0.00  0.00    +0.000 A 
ATOM     25  C   UNL     1       2.961   7.014  17.958  0.00  0.00    +0.000 A 
ATOM     26  C   UNL     1       4.220   7.035  17.353  0.00  0.00    +0.000 A 
BRANCH  21  28
ATOM     27  C   UNL     1       6.968   4.638  17.077  0.00  0.00    +0.000 C 
ATOM     28  O   UNL     1       6.141   5.695  16.604  0.00  0.00    +0.000 OA
ENDBRANCH  21  28
BRANCH  23  29
ATOM     29  O   UNL     1       2.614   3.381  18.613  0.00  0.00    +0.000 OA
ATOM     30  C   UNL     1       3.127   2.259  17.897  0.00  0.00    +0.000 C 
ENDBRANCH  23  29
ENDBRANCH  17  25
ENDBRANCH   1  19
TORSDOF 5
ENDMDL
