MODEL 1
REMARK VINA RESULT:      -6.3      0.000      0.000
REMARK  Name = 
REMARK  6 active torsions:
REMARK  status: ('A' for Active; 'I' for Inactive)
REMARK    1  A    between atoms: C_2  and  O_3
REMARK    2  A    between atoms: C_2  and  C_4
REMARK    3  A    between atoms: C_4  and  N_5
REMARK    4  A    between atoms: N_11  and  C_12
REMARK    5  A    between atoms: C_12  and  C_13
REMARK    6  A    between atoms: C_13  and  O_15
REMARK                            x       y       z     vdW  Elec       q    Type
REMARK                         _______ _______ _______ _____ _____    ______ ____
ROOT
ATOM      1  N   UNL     1       2.793   4.799  19.657  0.00  0.00    +0.000 NA
ATOM      2  C   UNL     1       1.857   4.100  18.747  0.00  0.00    +0.000 C 
ATOM      3  C   UNL     1       2.517   3.018  17.868  0.00  0.00    +0.000 C 
ATOM      4  N   UNL     1       3.246   3.532  16.712  0.00  0.00    +0.000 NA
ATOM      5  C   UNL     1       4.696   3.566  16.905  0.00  0.00    +0.000 C 
ATOM      6  C   UNL     1       5.332   4.972  16.782  0.00  0.00    +0.000 C 
ATOM      7  N   UNL     1       5.221   5.910  17.921  0.00  0.00    +0.000 NA
ATOM      8  C   UNL     1       3.875   6.504  18.052  0.00  0.00    +0.000 C 
ATOM      9  C   UNL     1       2.964   6.216  19.273  0.00  0.00    +0.000 C 
ATOM     10  H   UNL     1       2.891   4.439  16.428  0.00  0.00    +0.000 HD
ENDROOT
BRANCH   1  11
ATOM     11  C   UNL     1       2.307   4.654  21.055  0.00  0.00    +0.000 C 
BRANCH  11  13
ATOM     12  O   UNL     1       3.014   2.457  21.921  0.00  0.00    +0.000 OA
ATOM     13  C   UNL     1       2.129   3.211  21.544  0.00  0.00    +0.000 C 
BRANCH  13  14
ATOM     14  O   UNL     1       0.832   2.808  21.504  0.00  0.00    +0.000 OA
ATOM     15  H   UNL     1       0.555   2.249  22.254  0.00  0.00    +0.000 HD
ENDBRANCH  13  14
ENDBRANCH  11  13
ENDBRANCH   1  11
BRANCH   7  16
ATOM     16  C   UNL     1       5.789   5.364  19.177  0.00  0.00    +0.000 C 
BRANCH  16  17
ATOM     17  C   UNL     1       7.257   5.768  19.319  0.00  0.00    +0.000 C 
ATOM     18  O   UNL     1       7.885   6.443  18.515  0.00  0.00    +0.000 OA
BRANCH  17  19
ATOM     19  O   UNL     1       7.798   5.303  20.476  0.00  0.00    +0.000 OA
ATOM     20  H   UNL     1       7.364   5.785  21.216  0.00  0.00    +0.000 HD
ENDBRANCH  17  19
ENDBRANCH  16  17
ENDBRANCH   7  16
TORSDOF 6
ENDMDL
MODEL 2
REMARK VINA RESULT:      -6.3      1.727      4.941
REMARK  Name = 
REMARK  6 active torsions:
REMARK  status: ('A' for Active; 'I' for Inactive)
REMARK    1  A    between atoms: C_2  and  O_3
REMARK    2  A    between atoms: C_2  and  C_4
REMARK    3  A    between atoms: C_4  and  N_5
REMARK    4  A    between atoms: N_11  and  C_12
REMARK    5  A    between atoms: C_12  and  C_13
REMARK    6  A    between atoms: C_13  and  O_15
REMARK                            x       y       z     vdW  Elec       q    Type
REMARK                         _______ _______ _______ _____ _____    ______ ____
ROOT
ATOM      1  N   UNL     1       5.317   5.528  17.327  0.00  0.00    +0.000 NA
ATOM      2  C   UNL     1       4.575   6.701  16.811  0.00  0.00    +0.000 C 
ATOM      3  C   UNL     1       3.624   7.349  17.837  0.00  0.00    +0.000 C 
ATOM      4  N   UNL     1       2.360   6.643  18.029  0.00  0.00    +0.000 NA
ATOM      5  C   UNL     1       2.325   5.828  19.243  0.00  0.00    +0.000 C 
ATOM      6  C   UNL     1       2.082   4.318  19.003  0.00  0.00    +0.000 C 
ATOM      7  N   UNL     1       3.208   3.475  18.544  0.00  0.00    +0.000 NA
ATOM      8  C   UNL     1       3.535   3.674  17.117  0.00  0.00    +0.000 C 
ATOM      9  C   UNL     1       4.887   4.280  16.661  0.00  0.00    +0.000 C 
ATOM     10  H   UNL     1       2.118   6.094  17.211  0.00  0.00    +0.000 HD
ENDROOT
BRANCH   1  11
ATOM     11  C   UNL     1       6.775   5.771  17.168  0.00  0.00    +0.000 C 
BRANCH  11  13
ATOM     12  O   UNL     1       7.840   5.399  19.360  0.00  0.00    +0.000 OA
ATOM     13  C   UNL     1       7.675   5.071  18.195  0.00  0.00    +0.000 C 
BRANCH  13  14
ATOM     14  O   UNL     1       8.329   4.004  17.666  0.00  0.00    +0.000 OA
ATOM     15  H   UNL     1       8.960   3.570  18.272  0.00  0.00    +0.000 HD
ENDBRANCH  13  14
ENDBRANCH  11  13
ENDBRANCH   1  11
BRANCH   7  16
ATOM     16  C   UNL     1       4.370   3.513  19.464  0.00  0.00    +0.000 C 
BRANCH  16  17
ATOM     17  C   UNL     1       4.318   2.334  20.437  0.00  0.00    +0.000 C 
ATOM     18  O   UNL     1       3.572   2.247  21.402  0.00  0.00    +0.000 OA
BRANCH  17  19
ATOM     19  O   UNL     1       5.198   1.358  20.092  0.00  0.00    +0.000 OA
ATOM     20  H   UNL     1       4.676   0.604  19.737  0.00  0.00    +0.000 HD
ENDBRANCH  17  19
ENDBRANCH  16  17
ENDBRANCH   7  16
TORSDOF 6
ENDMDL
MODEL 3
REMARK VINA RESULT:      -6.1      1.828      4.970
REMARK  Name = 
REMARK  6 active torsions:
REMARK  status: ('A' for Active; 'I' for Inactive)
REMARK    1  A    between atoms: C_2  and  O_3
REMARK    2  A    between atoms: C_2  and  C_4
REMARK    3  A    between atoms: C_4  and  N_5
REMARK    4  A    between atoms: N_11  and  C_12
REMARK    5  A    between atoms: C_12  and  C_13
REMARK    6  A    between atoms: C_13  and  O_15
REMARK                            x       y       z     vdW  Elec       q    Type
REMARK                         _______ _______ _______ _____ _____    ______ ____
ROOT
ATOM      1  N   UNL     1       5.607   5.486  17.518  0.00  0.00    +0.000 NA
ATOM      2  C   UNL     1       4.945   6.676  16.936  0.00  0.00    +0.000 C 
ATOM      3  C   UNL     1       3.869   7.309  17.843  0.00  0.00    +0.000 C 
ATOM      4  N   UNL     1       2.589   6.608  17.850  0.00  0.00    +0.000 NA
ATOM      5  C   UNL     1       2.390   5.767  19.030  0.00  0.00    +0.000 C 
ATOM      6  C   UNL     1       2.174   4.265  18.726  0.00  0.00    +0.000 C 
ATOM      7  N   UNL     1       3.347   3.424  18.401  0.00  0.00    +0.000 NA
ATOM      8  C   UNL     1       3.860   3.651  17.034  0.00  0.00    +0.000 C 
ATOM      9  C   UNL     1       5.263   4.257  16.773  0.00  0.00    +0.000 C 
ATOM     10  H   UNL     1       2.454   6.079  16.995  0.00  0.00    +0.000 HD
ENDROOT
BRANCH   1  11
ATOM     11  C   UNL     1       7.075   5.722  17.558  0.00  0.00    +0.000 C 
BRANCH  11  13
ATOM     12  O   UNL     1       7.451   5.398  19.973  0.00  0.00    +0.000 OA
ATOM     13  C   UNL     1       7.655   6.027  18.945  0.00  0.00    +0.000 C 
BRANCH  13  14
ATOM     14  O   UNL     1       8.447   7.131  18.942  0.00  0.00    +0.000 OA
ATOM     15  H   UNL     1       9.261   7.049  18.410  0.00  0.00    +0.000 HD
ENDBRANCH  13  14
ENDBRANCH  11  13
ENDBRANCH   1  11
BRANCH   7  16
ATOM     16  C   UNL     1       4.378   3.432  19.466  0.00  0.00    +0.000 C 
BRANCH  16  17
ATOM     17  C   UNL     1       4.641   2.011  19.965  0.00  0.00    +0.000 C 
ATOM     18  O   UNL     1       5.045   1.718  21.081  0.00  0.00    +0.000 OA
BRANCH  17  19
ATOM     19  O   UNL     1       4.349   1.082  19.016  0.00  0.00    +0.000 OA
ATOM     20  H   UNL     1       3.591   0.551  19.350  0.00  0.00    +0.000 HD
ENDBRANCH  17  19
ENDBRANCH  16  17
ENDBRANCH   7  16
TORSDOF 6
ENDMDL
MODEL 4
REMARK VINA RESULT:      -6.0      2.051      5.018
REMARK  Name = 
REMARK  6 active torsions:
REMARK  status: ('A' for Active; 'I' for Inactive)
REMARK    1  A    between atoms: C_2  and  O_3
REMARK    2  A    between atoms: C_2  and  C_4
REMARK    3  A    between atoms: C_4  and  N_5
REMARK    4  A    between atoms: N_11  and  C_12
REMARK    5  A    between atoms: C_12  and  C_13
REMARK    6  A    between atoms: C_13  and  O_15
REMARK                            x       y       z     vdW  Elec       q    Type
REMARK                         _______ _______ _______ _____ _____    ______ ____
ROOT
ATOM      1  N   UNL     1       4.974   5.607  17.523  0.00  0.00    +0.000 NA
ATOM      2  C   UNL     1       4.080   6.756  17.254  0.00  0.00    +0.000 C 
ATOM      3  C   UNL     1       3.186   7.156  18.446  0.00  0.00    +0.000 C 
ATOM      4  N   UNL     1       2.018   6.303  18.646  0.00  0.00    +0.000 NA
ATOM      5  C   UNL     1       2.183   5.331  19.726  0.00  0.00    +0.000 C 
ATOM      6  C   UNL     1       2.053   3.851  19.290  0.00  0.00    +0.000 C 
ATOM      7  N   UNL     1       3.196   3.200  18.614  0.00  0.00    +0.000 NA
ATOM      8  C   UNL     1       3.353   3.625  17.207  0.00  0.00    +0.000 C 
ATOM      9  C   UNL     1       4.591   4.424  16.724  0.00  0.00    +0.000 C 
ATOM     10  H   UNL     1       1.743   5.849  17.781  0.00  0.00    +0.000 HD
ENDROOT
BRANCH   1  11
ATOM     11  C   UNL     1       6.380   6.019  17.271  0.00  0.00    +0.000 C 
BRANCH  11  13
ATOM     12  O   UNL     1       7.872   4.507  16.020  0.00  0.00    +0.000 OA
ATOM     13  C   UNL     1       7.379   4.871  17.077  0.00  0.00    +0.000 C 
BRANCH  13  14
ATOM     14  O   UNL     1       7.673   4.240  18.244  0.00  0.00    +0.000 OA
ATOM     15  H   UNL     1       8.304   3.500  18.161  0.00  0.00    +0.000 HD
ENDBRANCH  13  14
ENDBRANCH  11  13
ENDBRANCH   1  11
BRANCH   7  16
ATOM     16  C   UNL     1       4.439   3.231  19.420  0.00  0.00    +0.000 C 
BRANCH  16  17
ATOM     17  C   UNL     1       4.749   1.842  19.977  0.00  0.00    +0.000 C 
ATOM     18  O   UNL     1       5.129   1.605  21.115  0.00  0.00    +0.000 OA
BRANCH  17  19
ATOM     19  O   UNL     1       4.532   0.869  19.052  0.00  0.00    +0.000 OA
ATOM     20  H   UNL     1       3.661   0.461  19.256  0.00  0.00    +0.000 HD
ENDBRANCH  17  19
ENDBRANCH  16  17
ENDBRANCH   7  16
TORSDOF 6
ENDMDL
MODEL 5
REMARK VINA RESULT:      -6.0      2.788      5.736
REMARK  Name = 
REMARK  6 active torsions:
REMARK  status: ('A' for Active; 'I' for Inactive)
REMARK    1  A    between atoms: C_2  and  O_3
REMARK    2  A    between atoms: C_2  and  C_4
REMARK    3  A    between atoms: C_4  and  N_5
REMARK    4  A    between atoms: N_11  and  C_12
REMARK    5  A    between atoms: C_12  and  C_13
REMARK    6  A    between atoms: C_13  and  O_15
REMARK                            x       y       z     vdW  Elec       q    Type
REMARK                         _______ _______ _______ _____ _____    ______ ____
ROOT
ATOM      1  N   UNL     1       5.890   5.569  16.325  0.00  0.00    +0.000 NA
ATOM      2  C   UNL     1       7.042   5.977  17.162  0.00  0.00    +0.000 C 
ATOM      3  C   UNL     1       7.297   5.062  18.376  0.00  0.00    +0.000 C 
ATOM      4  N   UNL     1       6.404   5.287  19.509  0.00  0.00    +0.000 NA
ATOM      5  C   UNL     1       5.329   4.300  19.610  0.00  0.00    +0.000 C 
ATOM      6  C   UNL     1       3.900   4.890  19.537  0.00  0.00    +0.000 C 
ATOM      7  N   UNL     1       3.346   5.266  18.217  0.00  0.00    +0.000 NA
ATOM      8  C   UNL     1       3.917   6.522  17.688  0.00  0.00    +0.000 C 
ATOM      9  C   UNL     1       4.789   6.552  16.406  0.00  0.00    +0.000 C 
ATOM     10  H   UNL     1       6.036   6.233  19.504  0.00  0.00    +0.000 HD
ENDROOT
BRANCH   1  11
ATOM     11  C   UNL     1       6.356   5.367  14.928  0.00  0.00    +0.000 C 
BRANCH  11  13
ATOM     12  O   UNL     1       6.320   3.569  13.241  0.00  0.00    +0.000 OA
ATOM     13  C   UNL     1       6.276   3.925  14.409  0.00  0.00    +0.000 C 
BRANCH  13  14
ATOM     14  O   UNL     1       6.122   3.023  15.414  0.00  0.00    +0.000 OA
ATOM     15  H   UNL     1       5.791   3.397  16.252  0.00  0.00    +0.000 HD
ENDBRANCH  13  14
ENDBRANCH  11  13
ENDBRANCH   1  11
BRANCH   7  16
ATOM     16  C   UNL     1       3.321   4.136  17.258  0.00  0.00    +0.000 C 
BRANCH  16  17
ATOM     17  C   UNL     1       2.240   3.128  17.650  0.00  0.00    +0.000 C 
ATOM     18  O   UNL     1       1.065   3.397  17.858  0.00  0.00    +0.000 OA
BRANCH  17  19
ATOM     19  O   UNL     1       2.733   1.864  17.723  0.00  0.00    +0.000 OA
ATOM     20  H   UNL     1       3.696   1.914  17.529  0.00  0.00    +0.000 HD
ENDBRANCH  17  19
ENDBRANCH  16  17
ENDBRANCH   7  16
TORSDOF 6
ENDMDL
MODEL 6
REMARK VINA RESULT:      -6.0      2.321      5.531
REMARK  Name = 
REMARK  6 active torsions:
REMARK  status: ('A' for Active; 'I' for Inactive)
REMARK    1  A    between atoms: C_2  and  O_3
REMARK    2  A    between atoms: C_2  and  C_4
REMARK    3  A    between atoms: C_4  and  N_5
REMARK    4  A    between atoms: N_11  and  C_12
REMARK    5  A    between atoms: C_12  and  C_13
REMARK    6  A    between atoms: C_13  and  O_15
REMARK                            x       y       z     vdW  Elec       q    Type
REMARK                         _______ _______ _______ _____ _____    ______ ____
ROOT
ATOM      1  N   UNL     1       5.383   4.806  16.878  0.00  0.00    +0.000 NA
ATOM      2  C   UNL     1       4.911   6.083  16.296  0.00  0.00    +0.000 C 
ATOM      3  C   UNL     1       4.459   7.125  17.340  0.00  0.00    +0.000 C 
ATOM      4  N   UNL     1       3.129   6.894  17.896  0.00  0.00    +0.000 NA
ATOM      5  C   UNL     1       3.150   6.290  19.228  0.00  0.00    +0.000 C 
ATOM      6  C   UNL     1       2.431   4.922  19.329  0.00  0.00    +0.000 C 
ATOM      7  N   UNL     1       3.124   3.711  18.837  0.00  0.00    +0.000 NA
ATOM      8  C   UNL     1       3.145   3.617  17.362  0.00  0.00    +0.000 C 
ATOM      9  C   UNL     1       4.466   3.693  16.554  0.00  0.00    +0.000 C 
ATOM     10  H   UNL     1       2.552   6.357  17.257  0.00  0.00    +0.000 HD
ENDROOT
BRANCH   1  11
ATOM     11  C   UNL     1       6.768   4.543  16.405  0.00  0.00    +0.000 C 
BRANCH  11  13
ATOM     12  O   UNL     1       6.452   3.863  14.057  0.00  0.00    +0.000 OA
ATOM     13  C   UNL     1       6.968   4.598  14.885  0.00  0.00    +0.000 C 
BRANCH  13  14
ATOM     14  O   UNL     1       7.833   5.578  14.513  0.00  0.00    +0.000 OA
ATOM     15  H   UNL     1       8.689   5.566  14.981  0.00  0.00    +0.000 HD
ENDBRANCH  13  14
ENDBRANCH  11  13
ENDBRANCH   1  11
BRANCH   7  16
ATOM     16  C   UNL     1       4.430   3.483  19.498  0.00  0.00    +0.000 C 
BRANCH  16  17
ATOM     17  C   UNL     1       4.340   2.302  20.466  0.00  0.00    +0.000 C 
ATOM     18  O   UNL     1       3.567   2.221  21.410  0.00  0.00    +0.000 OA
BRANCH  17  19
ATOM     19  O   UNL     1       5.219   1.318  20.142  0.00  0.00    +0.000 OA
ATOM     20  H   UNL     1       5.517   0.903  20.983  0.00  0.00    +0.000 HD
ENDBRANCH  17  19
ENDBRANCH  16  17
ENDBRANCH   7  16
TORSDOF 6
ENDMDL
MODEL 7
REMARK VINA RESULT:      -5.9      1.941      4.893
REMARK  Name = 
REMARK  6 active torsions:
REMARK  status: ('A' for Active; 'I' for Inactive)
REMARK    1  A    between atoms: C_2  and  O_3
REMARK    2  A    between atoms: C_2  and  C_4
REMARK    3  A    between atoms: C_4  and  N_5
REMARK    4  A    between atoms: N_11  and  C_12
REMARK    5  A    between atoms: C_12  and  C_13
REMARK    6  A    between atoms: C_13  and  O_15
REMARK                            x       y       z     vdW  Elec       q    Type
REMARK                         _______ _______ _______ _____ _____    ______ ____
ROOT
ATOM      1  N   UNL     1       5.069   5.241  17.158  0.00  0.00    +0.000 NA
ATOM      2  C   UNL     1       4.518   6.551  16.741  0.00  0.00    +0.000 C 
ATOM      3  C   UNL     1       3.855   7.350  17.881  0.00  0.00    +0.000 C 
ATOM      4  N   UNL     1       2.510   6.905  18.236  0.00  0.00    +0.000 NA
ATOM      5  C   UNL     1       2.467   6.084  19.445  0.00  0.00    +0.000 C 
ATOM      6  C   UNL     1       1.897   4.660  19.241  0.00  0.00    +0.000 C 
ATOM      7  N   UNL     1       2.764   3.621  18.641  0.00  0.00    +0.000 NA
ATOM      8  C   UNL     1       2.939   3.785  17.184  0.00  0.00    +0.000 C 
ATOM      9  C   UNL     1       4.316   4.121  16.555  0.00  0.00    +0.000 C 
ATOM     10  H   UNL     1       2.061   6.436  17.456  0.00  0.00    +0.000 HD
ENDROOT
BRANCH   1  11
ATOM     11  C   UNL     1       6.514   5.192  16.811  0.00  0.00    +0.000 C 
BRANCH  11  13
ATOM     12  O   UNL     1       8.471   4.074  17.809  0.00  0.00    +0.000 OA
ATOM     13  C   UNL     1       7.446   4.726  17.937  0.00  0.00    +0.000 C 
BRANCH  13  14
ATOM     14  O   UNL     1       7.002   5.104  19.165  0.00  0.00    +0.000 OA
ATOM     15  H   UNL     1       6.054   5.334  19.203  0.00  0.00    +0.000 HD
ENDBRANCH  13  14
ENDBRANCH  11  13
ENDBRANCH   1  11
BRANCH   7  16
ATOM     16  C   UNL     1       4.016   3.403  19.403  0.00  0.00    +0.000 C 
BRANCH  16  17
ATOM     17  C   UNL     1       4.343   1.911  19.478  0.00  0.00    +0.000 C 
ATOM     18  O   UNL     1       3.844   1.043  18.776  0.00  0.00    +0.000 OA
BRANCH  17  19
ATOM     19  O   UNL     1       5.288   1.650  20.419  0.00  0.00    +0.000 OA
ATOM     20  H   UNL     1       6.077   2.194  20.200  0.00  0.00    +0.000 HD
ENDBRANCH  17  19
ENDBRANCH  16  17
ENDBRANCH   7  16
TORSDOF 6
ENDMDL
MODEL 8
REMARK VINA RESULT:      -5.9      1.880      5.197
REMARK  Name = 
REMARK  6 active torsions:
REMARK  status: ('A' for Active; 'I' for Inactive)
REMARK    1  A    between atoms: C_2  and  O_3
REMARK    2  A    between atoms: C_2  and  C_4
REMARK    3  A    between atoms: C_4  and  N_5
REMARK    4  A    between atoms: N_11  and  C_12
REMARK    5  A    between atoms: C_12  and  C_13
REMARK    6  A    between atoms: C_13  and  O_15
REMARK                            x       y       z     vdW  Elec       q    Type
REMARK                         _______ _______ _______ _____ _____    ______ ____
ROOT
ATOM      1  N   UNL     1       5.255   5.328  17.148  0.00  0.00    +0.000 NA
ATOM      2  C   UNL     1       4.552   6.537  16.663  0.00  0.00    +0.000 C 
ATOM      3  C   UNL     1       3.758   7.287  17.752  0.00  0.00    +0.000 C 
ATOM      4  N   UNL     1       2.472   6.685  18.093  0.00  0.00    +0.000 NA
ATOM      5  C   UNL     1       2.501   5.913  19.335  0.00  0.00    +0.000 C 
ATOM      6  C   UNL     1       2.126   4.419  19.178  0.00  0.00    +0.000 C 
ATOM      7  N   UNL     1       3.137   3.479  18.644  0.00  0.00    +0.000 NA
ATOM      8  C   UNL     1       3.332   3.609  17.185  0.00  0.00    +0.000 C 
ATOM      9  C   UNL     1       4.671   4.096  16.575  0.00  0.00    +0.000 C 
ATOM     10  H   UNL     1       2.110   6.131  17.324  0.00  0.00    +0.000 HD
ENDROOT
BRANCH   1  11
ATOM     11  C   UNL     1       6.704   5.455  16.838  0.00  0.00    +0.000 C 
BRANCH  11  13
ATOM     12  O   UNL     1       7.740   7.685  17.007  0.00  0.00    +0.000 OA
ATOM     13  C   UNL     1       7.424   6.623  17.522  0.00  0.00    +0.000 C 
BRANCH  13  14
ATOM     14  O   UNL     1       7.718   6.358  18.822  0.00  0.00    +0.000 OA
ATOM     15  H   UNL     1       7.322   5.537  19.171  0.00  0.00    +0.000 HD
ENDBRANCH  13  14
ENDBRANCH  11  13
ENDBRANCH   1  11
BRANCH   7  16
ATOM     16  C   UNL     1       4.385   3.457  19.443  0.00  0.00    +0.000 C 
BRANCH  16  17
ATOM     17  C   UNL     1       4.651   2.049  19.976  0.00  0.00    +0.000 C 
ATOM     18  O   UNL     1       5.006   1.780  21.115  0.00  0.00    +0.000 OA
BRANCH  17  19
ATOM     19  O   UNL     1       4.425   1.101  19.029  0.00  0.00    +0.000 OA
ATOM     20  H   UNL     1       5.236   1.042  18.474  0.00  0.00    +0.000 HD
ENDBRANCH  17  19
ENDBRANCH  16  17
ENDBRANCH   7  16
TORSDOF 6
ENDMDL
MODEL 9
REMARK VINA RESULT:      -5.9      2.647      5.769
REMARK  Name = 
REMARK  6 active torsions:
REMARK  status: ('A' for Active; 'I' for Inactive)
REMARK    1  A    between atoms: C_2  and  O_3
REMARK    2  A    between atoms: C_2  and  C_4
REMARK    3  A    between atoms: C_4  and  N_5
REMARK    4  A    between atoms: N_11  and  C_12
REMARK    5  A    between atoms: C_12  and  C_13
REMARK    6  A    between atoms: C_13  and  O_15
REMARK                            x       y       z     vdW  Elec       q    Type
REMARK                         _______ _______ _______ _____ _____    ______ ____
ROOT
ATOM      1  N   UNL     1       5.176   5.775  16.655  0.00  0.00    +0.000 NA
ATOM      2  C   UNL     1       6.408   6.035  17.434  0.00  0.00    +0.000 C 
ATOM      3  C   UNL     1       6.805   4.891  18.389  0.00  0.00    +0.000 C 
ATOM      4  N   UNL     1       6.039   4.839  19.631  0.00  0.00    +0.000 NA
ATOM      5  C   UNL     1       4.993   3.817  19.629  0.00  0.00    +0.000 C 
ATOM      6  C   UNL     1       3.558   4.360  19.836  0.00  0.00    +0.000 C 
ATOM      7  N   UNL     1       2.859   4.989  18.693  0.00  0.00    +0.000 NA
ATOM      8  C   UNL     1       3.354   6.347  18.390  0.00  0.00    +0.000 C 
ATOM      9  C   UNL     1       4.079   6.680  17.060  0.00  0.00    +0.000 C 
ATOM     10  H   UNL     1       5.663   5.751  19.869  0.00  0.00    +0.000 HD
ENDROOT
BRANCH   1  11
ATOM     11  C   UNL     1       5.487   5.891  15.206  0.00  0.00    +0.000 C 
BRANCH  11  13
ATOM     12  O   UNL     1       6.352   3.667  14.589  0.00  0.00    +0.000 OA
ATOM     13  C   UNL     1       6.504   4.876  14.668  0.00  0.00    +0.000 C 
BRANCH  13  14
ATOM     14  O   UNL     1       7.666   5.465  14.281  0.00  0.00    +0.000 OA
ATOM     15  H   UNL     1       7.586   6.407  14.038  0.00  0.00    +0.000 HD
ENDBRANCH  13  14
ENDBRANCH  11  13
ENDBRANCH   1  11
BRANCH   7  16
ATOM     16  C   UNL     1       2.740   4.089  17.522  0.00  0.00    +0.000 C 
BRANCH  16  17
ATOM     17  C   UNL     1       1.959   2.828  17.894  0.00  0.00    +0.000 C 
ATOM     18  O   UNL     1       0.797   2.803  18.275  0.00  0.00    +0.000 OA
BRANCH  17  19
ATOM     19  O   UNL     1       2.709   1.706  17.733  0.00  0.00    +0.000 OA
ATOM     20  H   UNL     1       2.599   1.162  18.545  0.00  0.00    +0.000 HD
ENDBRANCH  17  19
ENDBRANCH  16  17
ENDBRANCH   7  16
TORSDOF 6
ENDMDL
