MODEL 1
REMARK VINA RESULT:      -7.3      0.000      0.000
REMARK  Name = 
REMARK  7 active torsions:
REMARK  status: ('A' for Active; 'I' for Inactive)
REMARK    1  A    between atoms: C_1  and  O_2
REMARK    2  A    between atoms: O_2  and  C_3
REMARK    3  A    between atoms: C_8  and  O_9
REMARK    4  A    between atoms: O_9  and  C_10
REMARK    5  A    between atoms: C_11  and  C_12
REMARK    6  A    between atoms: C_12  and  C_13
REMARK    7  A    between atoms: N_15  and  C_16
REMARK                            x       y       z     vdW  Elec       q    Type
REMARK                         _______ _______ _______ _____ _____    ______ ____
ROOT
ATOM      1  C   UNL     1      -3.563  11.040  18.027  0.00  0.00    +0.000 A 
ATOM      2  C   UNL     1      -2.841  11.671  19.051  0.00  0.00    +0.000 A 
ATOM      3  C   UNL     1      -1.455  11.526  19.126  0.00  0.00    +0.000 A 
ATOM      4  C   UNL     1      -0.791  10.702  18.202  0.00  0.00    +0.000 A 
ATOM      5  C   UNL     1      -1.513  10.093  17.165  0.00  0.00    +0.000 A 
ATOM      6  C   UNL     1      -2.896  10.276  17.058  0.00  0.00    +0.000 A 
ATOM      7  C   UNL     1       0.704  10.468  18.356  0.00  0.00    +0.000 C 
ATOM      8  N   UNL     1       1.373  11.738  18.702  0.00  0.00    +0.000 N 
ATOM      9  C   UNL     1       2.589  12.076  18.156  0.00  0.00    +0.000 C 
ATOM     10  O   UNL     1       3.189  13.127  18.339  0.00  0.00    +0.000 OA
ATOM     11  C   UNL     1       0.676  12.730  19.531  0.00  0.00    +0.000 C 
ATOM     12  C   UNL     1      -0.624  12.232  20.164  0.00  0.00    +0.000 C 
ENDROOT
BRANCH   1  14
ATOM     13  C   UNL     1      -5.400  11.897  19.267  0.00  0.00    +0.000 C 
ATOM     14  O   UNL     1      -4.915  11.303  18.067  0.00  0.00    +0.000 OA
ENDBRANCH   1  14
BRANCH   6  15
ATOM     15  O   UNL     1      -3.639   9.763  16.036  0.00  0.00    +0.000 OA
ATOM     16  C   UNL     1      -3.331  10.121  14.701  0.00  0.00    +0.000 C 
ENDBRANCH   6  15
BRANCH   7  17
ATOM     17  C   UNL     1       1.009   9.378  19.416  0.00  0.00    +0.000 C 
BRANCH  17  18
ATOM     18  C   UNL     1       1.961   8.308  18.963  0.00  0.00    +0.000 A 
ATOM     19  C   UNL     1       2.852   8.410  17.913  0.00  0.00    +0.000 A 
ATOM     20  N   UNL     1       3.484   7.208  17.755  0.00  0.00    +0.000 N 
ATOM     21  C   UNL     1       4.412   6.903  16.691  0.00  0.00    +0.000 C 
ATOM     22  C   UNL     1       3.106   6.342  18.758  0.00  0.00    +0.000 A 
ATOM     23  C   UNL     1       3.526   5.034  19.050  0.00  0.00    +0.000 A 
ATOM     24  C   UNL     1       2.972   4.399  20.166  0.00  0.00    +0.000 A 
ATOM     25  C   UNL     1       2.015   5.039  20.949  0.00  0.00    +0.000 A 
ATOM     26  C   UNL     1       1.583   6.331  20.635  0.00  0.00    +0.000 A 
ATOM     27  C   UNL     1       2.144   7.005  19.529  0.00  0.00    +0.000 A 
ENDBRANCH  17  18
ENDBRANCH   7  17
TORSDOF 4
ENDMDL
MODEL 2
REMARK VINA RESULT:      -7.3      3.529      6.369
REMARK  Name = 
REMARK  7 active torsions:
REMARK  status: ('A' for Active; 'I' for Inactive)
REMARK    1  A    between atoms: C_1  and  O_2
REMARK    2  A    between atoms: O_2  and  C_3
REMARK    3  A    between atoms: C_8  and  O_9
REMARK    4  A    between atoms: O_9  and  C_10
REMARK    5  A    between atoms: C_11  and  C_12
REMARK    6  A    between atoms: C_12  and  C_13
REMARK    7  A    between atoms: N_15  and  C_16
REMARK                            x       y       z     vdW  Elec       q    Type
REMARK                         _______ _______ _______ _____ _____    ______ ____
ROOT
ATOM      1  C   UNL     1       1.744   3.791  19.919  0.00  0.00    +0.000 A 
ATOM      2  C   UNL     1       1.878   4.973  20.663  0.00  0.00    +0.000 A 
ATOM      3  C   UNL     1       2.033   6.198  20.013  0.00  0.00    +0.000 A 
ATOM      4  C   UNL     1       2.106   6.237  18.611  0.00  0.00    +0.000 A 
ATOM      5  C   UNL     1       1.947   5.057  17.870  0.00  0.00    +0.000 A 
ATOM      6  C   UNL     1       1.743   3.834  18.518  0.00  0.00    +0.000 A 
ATOM      7  C   UNL     1       2.380   7.564  17.918  0.00  0.00    +0.000 C 
ATOM      8  N   UNL     1       1.592   8.634  18.564  0.00  0.00    +0.000 N 
ATOM      9  C   UNL     1       0.985   9.619  17.822  0.00  0.00    +0.000 C 
ATOM     10  O   UNL     1       0.268  10.509  18.264  0.00  0.00    +0.000 OA
ATOM     11  C   UNL     1       1.328   8.577  20.007  0.00  0.00    +0.000 C 
ATOM     12  C   UNL     1       2.116   7.503  20.759  0.00  0.00    +0.000 C 
ENDROOT
BRANCH   1  14
ATOM     13  C   UNL     1       2.410   2.567  21.844  0.00  0.00    +0.000 C 
ATOM     14  O   UNL     1       1.568   2.669  20.699  0.00  0.00    +0.000 OA
ENDBRANCH   1  14
BRANCH   6  15
ATOM     15  O   UNL     1       1.517   2.666  17.850  0.00  0.00    +0.000 OA
ATOM     16  C   UNL     1       2.610   1.830  17.513  0.00  0.00    +0.000 C 
ENDBRANCH   6  15
BRANCH   7  17
ATOM     17  C   UNL     1       3.890   7.913  17.921  0.00  0.00    +0.000 C 
BRANCH  17  18
ATOM     18  C   UNL     1       4.765   6.930  17.196  0.00  0.00    +0.000 A 
ATOM     19  C   UNL     1       4.661   6.584  15.864  0.00  0.00    +0.000 A 
ATOM     20  N   UNL     1       5.573   5.602  15.593  0.00  0.00    +0.000 N 
ATOM     21  C   UNL     1       5.688   4.917  14.326  0.00  0.00    +0.000 C 
ATOM     22  C   UNL     1       6.357   5.369  16.701  0.00  0.00    +0.000 A 
ATOM     23  C   UNL     1       7.452   4.509  16.889  0.00  0.00    +0.000 A 
ATOM     24  C   UNL     1       8.075   4.501  18.140  0.00  0.00    +0.000 A 
ATOM     25  C   UNL     1       7.608   5.306  19.175  0.00  0.00    +0.000 A 
ATOM     26  C   UNL     1       6.500   6.139  18.987  0.00  0.00    +0.000 A 
ATOM     27  C   UNL     1       5.868   6.185  17.726  0.00  0.00    +0.000 A 
ENDBRANCH  17  18
ENDBRANCH   7  17
TORSDOF 4
ENDMDL
MODEL 3
REMARK VINA RESULT:      -6.9      3.569      7.713
REMARK  Name = 
REMARK  7 active torsions:
REMARK  status: ('A' for Active; 'I' for Inactive)
REMARK    1  A    between atoms: C_1  and  O_2
REMARK    2  A    between atoms: O_2  and  C_3
REMARK    3  A    between atoms: C_8  and  O_9
REMARK    4  A    between atoms: O_9  and  C_10
REMARK    5  A    between atoms: C_11  and  C_12
REMARK    6  A    between atoms: C_12  and  C_13
REMARK    7  A    between atoms: N_15  and  C_16
REMARK                            x       y       z     vdW  Elec       q    Type
REMARK                         _______ _______ _______ _____ _____    ______ ____
ROOT
ATOM      1  C   UNL     1      -2.967  10.215  16.875  0.00  0.00    +0.000 A 
ATOM      2  C   UNL     1      -1.669   9.949  17.338  0.00  0.00    +0.000 A 
ATOM      3  C   UNL     1      -1.211  10.536  18.518  0.00  0.00    +0.000 A 
ATOM      4  C   UNL     1      -2.035  11.435  19.214  0.00  0.00    +0.000 A 
ATOM      5  C   UNL     1      -3.340  11.679  18.761  0.00  0.00    +0.000 A 
ATOM      6  C   UNL     1      -3.820  11.054  17.605  0.00  0.00    +0.000 A 
ATOM      7  C   UNL     1      -1.488  12.148  20.441  0.00  0.00    +0.000 C 
ATOM      8  N   UNL     1      -0.712  11.197  21.264  0.00  0.00    +0.000 N 
ATOM      9  C   UNL     1      -0.789  11.214  22.636  0.00  0.00    +0.000 C 
ATOM     10  O   UNL     1      -0.230  10.431  23.395  0.00  0.00    +0.000 OA
ATOM     11  C   UNL     1       0.047  10.119  20.616  0.00  0.00    +0.000 C 
ATOM     12  C   UNL     1       0.148  10.235  19.094  0.00  0.00    +0.000 C 
ENDROOT
BRANCH   1  14
ATOM     13  C   UNL     1      -2.996  10.220  14.499  0.00  0.00    +0.000 C 
ATOM     14  O   UNL     1      -3.285   9.540  15.717  0.00  0.00    +0.000 OA
ENDBRANCH   1  14
BRANCH   6  15
ATOM     15  O   UNL     1      -5.099  11.202  17.154  0.00  0.00    +0.000 OA
ATOM     16  C   UNL     1      -5.716  12.475  17.209  0.00  0.00    +0.000 C 
ENDBRANCH   6  15
BRANCH   7  17
ATOM     17  C   UNL     1      -0.622  13.375  20.055  0.00  0.00    +0.000 C 
BRANCH  17  18
ATOM     18  C   UNL     1      -1.301  14.703  20.226  0.00  0.00    +0.000 A 
ATOM     19  C   UNL     1      -2.241  15.013  21.189  0.00  0.00    +0.000 A 
ATOM     20  N   UNL     1      -2.688  16.287  20.973  0.00  0.00    +0.000 N 
ATOM     21  C   UNL     1      -3.749  16.921  21.720  0.00  0.00    +0.000 C 
ATOM     22  C   UNL     1      -1.976  16.868  19.946  0.00  0.00    +0.000 A 
ATOM     23  C   UNL     1      -2.029  18.164  19.409  0.00  0.00    +0.000 A 
ATOM     24  C   UNL     1      -1.155  18.480  18.364  0.00  0.00    +0.000 A 
ATOM     25  C   UNL     1      -0.275  17.528  17.858  0.00  0.00    +0.000 A 
ATOM     26  C   UNL     1      -0.248  16.231  18.382  0.00  0.00    +0.000 A 
ATOM     27  C   UNL     1      -1.102  15.893  19.453  0.00  0.00    +0.000 A 
ENDBRANCH  17  18
ENDBRANCH   7  17
TORSDOF 4
ENDMDL
MODEL 4
REMARK VINA RESULT:      -6.8      3.382      7.286
REMARK  Name = 
REMARK  7 active torsions:
REMARK  status: ('A' for Active; 'I' for Inactive)
REMARK    1  A    between atoms: C_1  and  O_2
REMARK    2  A    between atoms: O_2  and  C_3
REMARK    3  A    between atoms: C_8  and  O_9
REMARK    4  A    between atoms: O_9  and  C_10
REMARK    5  A    between atoms: C_11  and  C_12
REMARK    6  A    between atoms: C_12  and  C_13
REMARK    7  A    between atoms: N_15  and  C_16
REMARK                            x       y       z     vdW  Elec       q    Type
REMARK                         _______ _______ _______ _____ _____    ______ ____
ROOT
ATOM      1  C   UNL     1      -2.935  10.378  17.003  0.00  0.00    +0.000 A 
ATOM      2  C   UNL     1      -1.702   9.870  17.439  0.00  0.00    +0.000 A 
ATOM      3  C   UNL     1      -1.108  10.366  18.600  0.00  0.00    +0.000 A 
ATOM      4  C   UNL     1      -1.725  11.414  19.303  0.00  0.00    +0.000 A 
ATOM      5  C   UNL     1      -2.969  11.903  18.878  0.00  0.00    +0.000 A 
ATOM      6  C   UNL     1      -3.590  11.373  17.742  0.00  0.00    +0.000 A 
ATOM      7  C   UNL     1      -1.019  12.017  20.508  0.00  0.00    +0.000 C 
ATOM      8  N   UNL     1      -0.421  10.941  21.325  0.00  0.00    +0.000 N 
ATOM      9  C   UNL     1      -0.458  10.984  22.698  0.00  0.00    +0.000 C 
ATOM     10  O   UNL     1      -0.042  10.114  23.454  0.00  0.00    +0.000 OA
ATOM     11  C   UNL     1       0.098   9.731  20.673  0.00  0.00    +0.000 C 
ATOM     12  C   UNL     1       0.180   9.812  19.148  0.00  0.00    +0.000 C 
ENDROOT
BRANCH   1  14
ATOM     13  C   UNL     1      -3.041  10.381  14.629  0.00  0.00    +0.000 C 
ATOM     14  O   UNL     1      -3.407   9.768  15.862  0.00  0.00    +0.000 OA
ENDBRANCH   1  14
BRANCH   6  15
ATOM     15  O   UNL     1      -4.828  11.763  17.319  0.00  0.00    +0.000 OA
ATOM     16  C   UNL     1      -5.979  11.269  17.980  0.00  0.00    +0.000 C 
ENDBRANCH   6  15
BRANCH   7  17
ATOM     17  C   UNL     1       0.058  13.050  20.085  0.00  0.00    +0.000 C 
BRANCH  17  18
ATOM     18  C   UNL     1      -0.441  14.460  19.950  0.00  0.00    +0.000 A 
ATOM     19  C   UNL     1      -1.611  14.959  20.488  0.00  0.00    +0.000 A 
ATOM     20  N   UNL     1      -1.763  16.255  20.082  0.00  0.00    +0.000 N 
ATOM     21  C   UNL     1      -2.921  17.072  20.363  0.00  0.00    +0.000 C 
ATOM     22  C   UNL     1      -0.655  16.659  19.370  0.00  0.00    +0.000 A 
ATOM     23  C   UNL     1      -0.326  17.904  18.809  0.00  0.00    +0.000 A 
ATOM     24  C   UNL     1       0.902  18.024  18.150  0.00  0.00    +0.000 A 
ATOM     25  C   UNL     1       1.760  16.935  18.035  0.00  0.00    +0.000 A 
ATOM     26  C   UNL     1       1.412  15.692  18.574  0.00  0.00    +0.000 A 
ATOM     27  C   UNL     1       0.190  15.549  19.266  0.00  0.00    +0.000 A 
ENDBRANCH  17  18
ENDBRANCH   7  17
TORSDOF 4
ENDMDL
MODEL 5
REMARK VINA RESULT:      -6.6      3.598      6.968
REMARK  Name = 
REMARK  7 active torsions:
REMARK  status: ('A' for Active; 'I' for Inactive)
REMARK    1  A    between atoms: C_1  and  O_2
REMARK    2  A    between atoms: O_2  and  C_3
REMARK    3  A    between atoms: C_8  and  O_9
REMARK    4  A    between atoms: O_9  and  C_10
REMARK    5  A    between atoms: C_11  and  C_12
REMARK    6  A    between atoms: C_12  and  C_13
REMARK    7  A    between atoms: N_15  and  C_16
REMARK                            x       y       z     vdW  Elec       q    Type
REMARK                         _______ _______ _______ _____ _____    ______ ____
ROOT
ATOM      1  C   UNL     1      -0.514  10.605  18.719  0.00  0.00    +0.000 A 
ATOM      2  C   UNL     1      -0.196  10.441  20.076  0.00  0.00    +0.000 A 
ATOM      3  C   UNL     1      -0.812  11.237  21.042  0.00  0.00    +0.000 A 
ATOM      4  C   UNL     1      -1.713  12.239  20.647  0.00  0.00    +0.000 A 
ATOM      5  C   UNL     1      -2.047  12.383  19.292  0.00  0.00    +0.000 A 
ATOM      6  C   UNL     1      -1.468  11.554  18.325  0.00  0.00    +0.000 A 
ATOM      7  C   UNL     1      -2.299  13.169  21.699  0.00  0.00    +0.000 C 
ATOM      8  N   UNL     1      -2.667  12.392  22.900  0.00  0.00    +0.000 N 
ATOM      9  C   UNL     1      -3.824  12.657  23.594  0.00  0.00    +0.000 C 
ATOM     10  O   UNL     1      -4.238  12.032  24.562  0.00  0.00    +0.000 OA
ATOM     11  C   UNL     1      -1.868  11.223  23.288  0.00  0.00    +0.000 C 
ATOM     12  C   UNL     1      -0.557  11.061  22.516  0.00  0.00    +0.000 C 
ENDROOT
BRANCH   1  14
ATOM     13  C   UNL     1       1.564   9.660  18.058  0.00  0.00    +0.000 C 
ATOM     14  O   UNL     1       0.151   9.727  17.891  0.00  0.00    +0.000 OA
ENDBRANCH   1  14
BRANCH   6  15
ATOM     15  O   UNL     1      -1.802  11.604  17.004  0.00  0.00    +0.000 OA
ATOM     16  C   UNL     1      -2.968  10.939  16.552  0.00  0.00    +0.000 C 
ENDBRANCH   6  15
BRANCH   7  17
ATOM     17  C   UNL     1      -1.320  14.315  22.063  0.00  0.00    +0.000 C 
BRANCH  17  18
ATOM     18  C   UNL     1      -0.656  14.972  20.887  0.00  0.00    +0.000 A 
ATOM     19  C   UNL     1      -1.203  15.968  20.101  0.00  0.00    +0.000 A 
ATOM     20  N   UNL     1      -0.336  16.250  19.083  0.00  0.00    +0.000 N 
ATOM     21  C   UNL     1      -0.611  17.168  18.003  0.00  0.00    +0.000 C 
ATOM     22  C   UNL     1       0.830  15.533  19.245  0.00  0.00    +0.000 A 
ATOM     23  C   UNL     1       2.020  15.533  18.499  0.00  0.00    +0.000 A 
ATOM     24  C   UNL     1       3.061  14.701  18.922  0.00  0.00    +0.000 A 
ATOM     25  C   UNL     1       2.911  13.881  20.037  0.00  0.00    +0.000 A 
ATOM     26  C   UNL     1       1.713  13.868  20.758  0.00  0.00    +0.000 A 
ATOM     27  C   UNL     1       0.655  14.717  20.367  0.00  0.00    +0.000 A 
ENDBRANCH  17  18
ENDBRANCH   7  17
TORSDOF 4
ENDMDL
MODEL 6
REMARK VINA RESULT:      -6.6      3.438      7.275
REMARK  Name = 
REMARK  7 active torsions:
REMARK  status: ('A' for Active; 'I' for Inactive)
REMARK    1  A    between atoms: C_1  and  O_2
REMARK    2  A    between atoms: O_2  and  C_3
REMARK    3  A    between atoms: C_8  and  O_9
REMARK    4  A    between atoms: O_9  and  C_10
REMARK    5  A    between atoms: C_11  and  C_12
REMARK    6  A    between atoms: C_12  and  C_13
REMARK    7  A    between atoms: N_15  and  C_16
REMARK                            x       y       z     vdW  Elec       q    Type
REMARK                         _______ _______ _______ _____ _____    ______ ____
ROOT
ATOM      1  C   UNL     1      -2.868  10.269  16.838  0.00  0.00    +0.000 A 
ATOM      2  C   UNL     1      -1.641   9.818  17.347  0.00  0.00    +0.000 A 
ATOM      3  C   UNL     1      -1.111  10.386  18.507  0.00  0.00    +0.000 A 
ATOM      4  C   UNL     1      -1.786  11.447  19.132  0.00  0.00    +0.000 A 
ATOM      5  C   UNL     1      -3.023  11.879  18.634  0.00  0.00    +0.000 A 
ATOM      6  C   UNL     1      -3.581  11.278  17.500  0.00  0.00    +0.000 A 
ATOM      7  C   UNL     1      -1.147  12.127  20.334  0.00  0.00    +0.000 C 
ATOM      8  N   UNL     1      -0.556  11.108  21.226  0.00  0.00    +0.000 N 
ATOM      9  C   UNL     1      -0.651  11.215  22.593  0.00  0.00    +0.000 C 
ATOM     10  O   UNL     1      -0.244  10.395  23.406  0.00  0.00    +0.000 OA
ATOM     11  C   UNL     1       0.023   9.885  20.656  0.00  0.00    +0.000 C 
ATOM     12  C   UNL     1       0.168   9.896  19.133  0.00  0.00    +0.000 C 
ENDROOT
BRANCH   1  14
ATOM     13  C   UNL     1      -2.952  10.204  14.464  0.00  0.00    +0.000 C 
ATOM     14  O   UNL     1      -3.275   9.592  15.709  0.00  0.00    +0.000 OA
ENDBRANCH   1  14
BRANCH   6  15
ATOM     15  O   UNL     1      -4.810  11.611  17.009  0.00  0.00    +0.000 OA
ATOM     16  C   UNL     1      -5.723  12.316  17.830  0.00  0.00    +0.000 C 
ENDBRANCH   6  15
BRANCH   7  17
ATOM     17  C   UNL     1      -0.082  13.169  19.906  0.00  0.00    +0.000 C 
BRANCH  17  18
ATOM     18  C   UNL     1      -0.604  14.567  19.732  0.00  0.00    +0.000 A 
ATOM     19  C   UNL     1      -0.274  15.432  18.707  0.00  0.00    +0.000 A 
ATOM     20  N   UNL     1      -0.880  16.635  18.935  0.00  0.00    +0.000 N 
ATOM     21  C   UNL     1      -0.685  17.817  18.128  0.00  0.00    +0.000 C 
ATOM     22  C   UNL     1      -1.697  16.549  20.041  0.00  0.00    +0.000 A 
ATOM     23  C   UNL     1      -2.559  17.492  20.623  0.00  0.00    +0.000 A 
ATOM     24  C   UNL     1      -3.293  17.106  21.750  0.00  0.00    +0.000 A 
ATOM     25  C   UNL     1      -3.153  15.831  22.289  0.00  0.00    +0.000 A 
ATOM     26  C   UNL     1      -2.272  14.907  21.718  0.00  0.00    +0.000 A 
ATOM     27  C   UNL     1      -1.538  15.262  20.566  0.00  0.00    +0.000 A 
ENDBRANCH  17  18
ENDBRANCH   7  17
TORSDOF 4
ENDMDL
MODEL 7
REMARK VINA RESULT:      -6.5      4.321      7.858
REMARK  Name = 
REMARK  7 active torsions:
REMARK  status: ('A' for Active; 'I' for Inactive)
REMARK    1  A    between atoms: C_1  and  O_2
REMARK    2  A    between atoms: O_2  and  C_3
REMARK    3  A    between atoms: C_8  and  O_9
REMARK    4  A    between atoms: O_9  and  C_10
REMARK    5  A    between atoms: C_11  and  C_12
REMARK    6  A    between atoms: C_12  and  C_13
REMARK    7  A    between atoms: N_15  and  C_16
REMARK                            x       y       z     vdW  Elec       q    Type
REMARK                         _______ _______ _______ _____ _____    ______ ____
ROOT
ATOM      1  C   UNL     1       3.610   2.607  18.592  0.00  0.00    +0.000 A 
ATOM      2  C   UNL     1       4.131   3.053  17.368  0.00  0.00    +0.000 A 
ATOM      3  C   UNL     1       4.452   4.400  17.191  0.00  0.00    +0.000 A 
ATOM      4  C   UNL     1       4.203   5.316  18.225  0.00  0.00    +0.000 A 
ATOM      5  C   UNL     1       3.705   4.863  19.455  0.00  0.00    +0.000 A 
ATOM      6  C   UNL     1       3.428   3.506  19.653  0.00  0.00    +0.000 A 
ATOM      7  C   UNL     1       4.459   6.797  17.983  0.00  0.00    +0.000 C 
ATOM      8  N   UNL     1       5.727   6.968  17.246  0.00  0.00    +0.000 N 
ATOM      9  C   UNL     1       6.599   7.985  17.553  0.00  0.00    +0.000 C 
ATOM     10  O   UNL     1       7.694   8.170  17.038  0.00  0.00    +0.000 OA
ATOM     11  C   UNL     1       6.143   5.960  16.262  0.00  0.00    +0.000 C 
ATOM     12  C   UNL     1       5.073   4.920  15.922  0.00  0.00    +0.000 C 
ENDROOT
BRANCH   1  14
ATOM     13  C   UNL     1       4.459   0.438  19.064  0.00  0.00    +0.000 C 
ATOM     14  O   UNL     1       3.374   1.250  18.626  0.00  0.00    +0.000 OA
ENDBRANCH   1  14
BRANCH   6  15
ATOM     15  O   UNL     1       3.006   2.998  20.847  0.00  0.00    +0.000 OA
ATOM     16  C   UNL     1       1.854   3.539  21.468  0.00  0.00    +0.000 C 
ENDBRANCH   6  15
BRANCH   7  17
ATOM     17  C   UNL     1       3.285   7.466  17.223  0.00  0.00    +0.000 C 
BRANCH  17  18
ATOM     18  C   UNL     1       2.525   8.491  18.015  0.00  0.00    +0.000 A 
ATOM     19  C   UNL     1       2.275   9.792  17.627  0.00  0.00    +0.000 A 
ATOM     20  N   UNL     1       1.630  10.439  18.644  0.00  0.00    +0.000 N 
ATOM     21  C   UNL     1       1.297  11.844  18.641  0.00  0.00    +0.000 C 
ATOM     22  C   UNL     1       1.350   9.554  19.662  0.00  0.00    +0.000 A 
ATOM     23  C   UNL     1       0.657   9.731  20.870  0.00  0.00    +0.000 A 
ATOM     24  C   UNL     1       0.508   8.625  21.712  0.00  0.00    +0.000 A 
ATOM     25  C   UNL     1       1.051   7.390  21.370  0.00  0.00    +0.000 A 
ATOM     26  C   UNL     1       1.762   7.228  20.176  0.00  0.00    +0.000 A 
ATOM     27  C   UNL     1       1.906   8.323  19.297  0.00  0.00    +0.000 A 
ENDBRANCH  17  18
ENDBRANCH   7  17
TORSDOF 4
ENDMDL
MODEL 8
REMARK VINA RESULT:      -6.5      3.702      6.904
REMARK  Name = 
REMARK  7 active torsions:
REMARK  status: ('A' for Active; 'I' for Inactive)
REMARK    1  A    between atoms: C_1  and  O_2
REMARK    2  A    between atoms: O_2  and  C_3
REMARK    3  A    between atoms: C_8  and  O_9
REMARK    4  A    between atoms: O_9  and  C_10
REMARK    5  A    between atoms: C_11  and  C_12
REMARK    6  A    between atoms: C_12  and  C_13
REMARK    7  A    between atoms: N_15  and  C_16
REMARK                            x       y       z     vdW  Elec       q    Type
REMARK                         _______ _______ _______ _____ _____    ______ ____
ROOT
ATOM      1  C   UNL     1       2.212   3.458  19.914  0.00  0.00    +0.000 A 
ATOM      2  C   UNL     1       2.169   4.667  20.625  0.00  0.00    +0.000 A 
ATOM      3  C   UNL     1       2.319   5.882  19.954  0.00  0.00    +0.000 A 
ATOM      4  C   UNL     1       2.565   5.887  18.571  0.00  0.00    +0.000 A 
ATOM      5  C   UNL     1       2.583   4.678  17.861  0.00  0.00    +0.000 A 
ATOM      6  C   UNL     1       2.384   3.461  18.523  0.00  0.00    +0.000 A 
ATOM      7  C   UNL     1       2.831   7.210  17.869  0.00  0.00    +0.000 C 
ATOM      8  N   UNL     1       1.896   8.237  18.373  0.00  0.00    +0.000 N 
ATOM      9  C   UNL     1       1.319   9.153  17.526  0.00  0.00    +0.000 C 
ATOM     10  O   UNL     1       0.493  10.000  17.842  0.00  0.00    +0.000 OA
ATOM     11  C   UNL     1       1.457   8.201  19.774  0.00  0.00    +0.000 C 
ATOM     12  C   UNL     1       2.217   7.210  20.657  0.00  0.00    +0.000 C 
ENDROOT
BRANCH   1  14
ATOM     13  C   UNL     1       1.514   2.599  22.017  0.00  0.00    +0.000 C 
ATOM     14  O   UNL     1       2.017   2.349  20.708  0.00  0.00    +0.000 OA
ENDBRANCH   1  14
BRANCH   6  15
ATOM     15  O   UNL     1       2.326   2.262  17.876  0.00  0.00    +0.000 OA
ATOM     16  C   UNL     1       3.488   1.458  17.787  0.00  0.00    +0.000 C 
ENDBRANCH   6  15
BRANCH   7  17
ATOM     17  C   UNL     1       4.301   7.670  18.045  0.00  0.00    +0.000 C 
BRANCH  17  18
ATOM     18  C   UNL     1       5.329   6.615  17.752  0.00  0.00    +0.000 A 
ATOM     19  C   UNL     1       6.228   6.087  18.658  0.00  0.00    +0.000 A 
ATOM     20  N   UNL     1       7.054   5.218  18.002  0.00  0.00    +0.000 N 
ATOM     21  C   UNL     1       8.185   4.551  18.603  0.00  0.00    +0.000 C 
ATOM     22  C   UNL     1       6.647   5.078  16.693  0.00  0.00    +0.000 A 
ATOM     23  C   UNL     1       7.136   4.262  15.661  0.00  0.00    +0.000 A 
ATOM     24  C   UNL     1       6.495   4.317  14.419  0.00  0.00    +0.000 A 
ATOM     25  C   UNL     1       5.419   5.175  14.209  0.00  0.00    +0.000 A 
ATOM     26  C   UNL     1       4.956   6.004  15.236  0.00  0.00    +0.000 A 
ATOM     27  C   UNL     1       5.568   5.949  16.506  0.00  0.00    +0.000 A 
ENDBRANCH  17  18
ENDBRANCH   7  17
TORSDOF 4
ENDMDL
MODEL 9
REMARK VINA RESULT:      -6.4      3.998      6.122
REMARK  Name = 
REMARK  7 active torsions:
REMARK  status: ('A' for Active; 'I' for Inactive)
REMARK    1  A    between atoms: C_1  and  O_2
REMARK    2  A    between atoms: O_2  and  C_3
REMARK    3  A    between atoms: C_8  and  O_9
REMARK    4  A    between atoms: O_9  and  C_10
REMARK    5  A    between atoms: C_11  and  C_12
REMARK    6  A    between atoms: C_12  and  C_13
REMARK    7  A    between atoms: N_15  and  C_16
REMARK                            x       y       z     vdW  Elec       q    Type
REMARK                         _______ _______ _______ _____ _____    ______ ____
ROOT
ATOM      1  C   UNL     1      -6.501  11.550  20.181  0.00  0.00    +0.000 A 
ATOM      2  C   UNL     1      -6.645  11.928  21.524  0.00  0.00    +0.000 A 
ATOM      3  C   UNL     1      -5.742  12.822  22.102  0.00  0.00    +0.000 A 
ATOM      4  C   UNL     1      -4.658  13.301  21.349  0.00  0.00    +0.000 A 
ATOM      5  C   UNL     1      -4.532  12.939  20.000  0.00  0.00    +0.000 A 
ATOM      6  C   UNL     1      -5.463  12.082  19.403  0.00  0.00    +0.000 A 
ATOM      7  C   UNL     1      -3.623  14.191  22.020  0.00  0.00    +0.000 C 
ATOM      8  N   UNL     1      -4.301  15.172  22.891  0.00  0.00    +0.000 N 
ATOM      9  C   UNL     1      -3.872  16.476  22.966  0.00  0.00    +0.000 C 
ATOM     10  O   UNL     1      -4.404  17.370  23.613  0.00  0.00    +0.000 OA
ATOM     11  C   UNL     1      -5.540  14.799  23.587  0.00  0.00    +0.000 C 
ATOM     12  C   UNL     1      -5.887  13.311  23.519  0.00  0.00    +0.000 C 
ENDROOT
BRANCH   1  14
ATOM     13  C   UNL     1      -7.539   9.423  20.396  0.00  0.00    +0.000 C 
ATOM     14  O   UNL     1      -7.485  10.689  19.745  0.00  0.00    +0.000 OA
ENDBRANCH   1  14
BRANCH   6  15
ATOM     15  O   UNL     1      -5.428  11.749  18.081  0.00  0.00    +0.000 OA
ATOM     16  C   UNL     1      -6.056  12.591  17.131  0.00  0.00    +0.000 C 
ENDBRANCH   6  15
BRANCH   7  17
ATOM     17  C   UNL     1      -2.588  13.363  22.824  0.00  0.00    +0.000 C 
BRANCH  17  18
ATOM     18  C   UNL     1      -1.500  12.741  21.996  0.00  0.00    +0.000 A 
ATOM     19  C   UNL     1      -0.918  13.297  20.874  0.00  0.00    +0.000 A 
ATOM     20  N   UNL     1      -0.031  12.400  20.348  0.00  0.00    +0.000 N 
ATOM     21  C   UNL     1       0.693  12.591  19.114  0.00  0.00    +0.000 C 
ATOM     22  C   UNL     1       0.066  11.297  21.169  0.00  0.00    +0.000 A 
ATOM     23  C   UNL     1       0.878  10.155  21.083  0.00  0.00    +0.000 A 
ATOM     24  C   UNL     1       0.772   9.194  22.093  0.00  0.00    +0.000 A 
ATOM     25  C   UNL     1      -0.132   9.355  23.139  0.00  0.00    +0.000 A 
ATOM     26  C   UNL     1      -0.957  10.483  23.202  0.00  0.00    +0.000 A 
ATOM     27  C   UNL     1      -0.852  11.481  22.209  0.00  0.00    +0.000 A 
ENDBRANCH  17  18
ENDBRANCH   7  17
TORSDOF 4
ENDMDL
