MODEL 1
REMARK VINA RESULT:      -8.3      0.000      0.000
REMARK  Name = 
REMARK  4 active torsions:
REMARK  status: ('A' for Active; 'I' for Inactive)
REMARK    1  A    between atoms: N_11  and  C_12
REMARK    2  A    between atoms: C_12  and  C_13
REMARK    3  A    between atoms: C_15  and  C_16
REMARK    4  A    between atoms: C_16  and  N_17
REMARK                            x       y       z     vdW  Elec       q    Type
REMARK                         _______ _______ _______ _____ _____    ______ ____
ROOT
ATOM      1  C   UNL     1       1.822   7.238  18.888  0.00  0.00    +0.000 C 
ENDROOT
BRANCH   1   2
ATOM      2  N   UNL     1       2.154   8.607  19.301  0.00  0.00    +0.000 NA
ATOM      3  C   UNL     1       1.782   9.640  18.300  0.00  0.00    +0.000 C 
ATOM      4  C   UNL     1       0.269   9.959  18.165  0.00  0.00    +0.000 C 
ATOM      5  N   UNL     1      -0.284  10.235  19.496  0.00  0.00    +0.000 N 
ATOM      6  C   UNL     1      -1.375  11.043  19.631  0.00  0.00    +0.000 A 
ATOM      7  N   UNL     1      -2.289  11.236  18.683  0.00  0.00    +0.000 NA
ATOM      8  S   UNL     1      -3.437  12.290  19.231  0.00  0.00    +0.000 S 
ATOM      9  C   UNL     1      -2.718  12.593  20.760  0.00  0.00    +0.000 A 
ATOM     10  C   UNL     1      -3.135  13.442  21.801  0.00  0.00    +0.000 A 
ATOM     11  C   UNL     1      -2.343  13.521  22.952  0.00  0.00    +0.000 A 
ATOM     12  C   UNL     1      -1.165  12.797  23.059  0.00  0.00    +0.000 A 
ATOM     13  C   UNL     1      -0.757  11.973  22.010  0.00  0.00    +0.000 A 
ATOM     14  C   UNL     1      -1.551  11.834  20.841  0.00  0.00    +0.000 A 
ATOM     15  C   UNL     1      -0.046   9.152  20.461  0.00  0.00    +0.000 C 
ATOM     16  C   UNL     1       1.480   8.933  20.585  0.00  0.00    +0.000 C 
ENDBRANCH   1   2
BRANCH   1  19
ATOM     17  C   UNL     1       2.180   4.738  19.602  0.00  0.00    +0.000 C 
ATOM     18  C   UNL     1       1.556   5.455  20.772  0.00  0.00    +0.000 C 
ATOM     19  C   UNL     1       2.429   6.224  19.812  0.00  0.00    +0.000 C 
BRANCH  17  20
ATOM     20  C   UNL     1       3.333   3.790  19.738  0.00  0.00    +0.000 C 
BRANCH  20  31
ATOM     21  O   UNL     1       2.818   3.244  16.860  0.00  0.00    +0.000 OA
ATOM     22  C   UNL     1       3.880   3.632  17.309  0.00  0.00    +0.000 C 
ATOM     23  C   UNL     1       5.023   4.035  16.480  0.00  0.00    +0.000 A 
ATOM     24  C   UNL     1       5.176   4.085  15.107  0.00  0.00    +0.000 A 
ATOM     25  C   UNL     1       6.380   4.604  14.613  0.00  0.00    +0.000 A 
ATOM     26  C   UNL     1       7.386   5.060  15.488  0.00  0.00    +0.000 A 
ATOM     27  C   UNL     1       7.208   5.004  16.872  0.00  0.00    +0.000 A 
ATOM     28  C   UNL     1       6.012   4.483  17.336  0.00  0.00    +0.000 A 
ATOM     29  C   UNL     1       5.505   4.368  18.701  0.00  0.00    +0.000 C 
ATOM     30  O   UNL     1       6.119   4.744  19.682  0.00  0.00    +0.000 OA
ATOM     31  N   UNL     1       4.245   3.844  18.612  0.00  0.00    +0.000 N 
ENDBRANCH  20  31
ENDBRANCH  17  20
ENDBRANCH   1  19
TORSDOF 4
ENDMDL
MODEL 2
REMARK VINA RESULT:      -8.3      4.360     10.811
REMARK  Name = 
REMARK  4 active torsions:
REMARK  status: ('A' for Active; 'I' for Inactive)
REMARK    1  A    between atoms: N_11  and  C_12
REMARK    2  A    between atoms: C_12  and  C_13
REMARK    3  A    between atoms: C_15  and  C_16
REMARK    4  A    between atoms: C_16  and  N_17
REMARK                            x       y       z     vdW  Elec       q    Type
REMARK                         _______ _______ _______ _____ _____    ______ ____
ROOT
ATOM      1  C   UNL     1      -0.636   9.744  19.271  0.00  0.00    +0.000 C 
ENDROOT
BRANCH   1   2
ATOM      2  N   UNL     1       0.817   9.949  19.251  0.00  0.00    +0.000 NA
ATOM      3  C   UNL     1       1.523   9.337  20.407  0.00  0.00    +0.000 C 
ATOM      4  C   UNL     1       1.656   7.791  20.397  0.00  0.00    +0.000 C 
ATOM      5  N   UNL     1       2.211   7.366  19.106  0.00  0.00    +0.000 N 
ATOM      6  C   UNL     1       2.923   6.205  19.015  0.00  0.00    +0.000 A 
ATOM      7  N   UNL     1       2.783   5.170  19.841  0.00  0.00    +0.000 NA
ATOM      8  S   UNL     1       3.831   3.971  19.404  0.00  0.00    +0.000 S 
ATOM      9  C   UNL     1       4.579   4.819  18.112  0.00  0.00    +0.000 A 
ATOM     10  C   UNL     1       5.623   4.423  17.257  0.00  0.00    +0.000 A 
ATOM     11  C   UNL     1       6.065   5.327  16.284  0.00  0.00    +0.000 A 
ATOM     12  C   UNL     1       5.503   6.590  16.176  0.00  0.00    +0.000 A 
ATOM     13  C   UNL     1       4.481   6.973  17.044  0.00  0.00    +0.000 A 
ATOM     14  C   UNL     1       3.976   6.073  18.019  0.00  0.00    +0.000 A 
ATOM     15  C   UNL     1       1.436   7.846  17.954  0.00  0.00    +0.000 C 
ATOM     16  C   UNL     1       1.396   9.392  18.001  0.00  0.00    +0.000 C 
ENDBRANCH   1   2
BRANCH   1  19
ATOM     17  C   UNL     1      -2.828  10.488  18.035  0.00  0.00    +0.000 C 
ATOM     18  C   UNL     1      -1.932   9.841  17.010  0.00  0.00    +0.000 C 
ATOM     19  C   UNL     1      -1.316  10.539  18.197  0.00  0.00    +0.000 C 
BRANCH  17  20
ATOM     20  C   UNL     1      -3.568  11.768  17.789  0.00  0.00    +0.000 C 
BRANCH  20  31
ATOM     21  O   UNL     1      -6.387  10.841  17.996  0.00  0.00    +0.000 OA
ATOM     22  C   UNL     1      -5.820  11.516  18.834  0.00  0.00    +0.000 C 
ATOM     23  C   UNL     1      -6.391  11.847  20.146  0.00  0.00    +0.000 A 
ATOM     24  C   UNL     1      -7.600  11.505  20.721  0.00  0.00    +0.000 A 
ATOM     25  C   UNL     1      -7.821  11.912  22.044  0.00  0.00    +0.000 A 
ATOM     26  C   UNL     1      -6.841  12.636  22.753  0.00  0.00    +0.000 A 
ATOM     27  C   UNL     1      -5.624  12.965  22.153  0.00  0.00    +0.000 A 
ATOM     28  C   UNL     1      -5.431  12.556  20.844  0.00  0.00    +0.000 A 
ATOM     29  C   UNL     1      -4.255  12.678  19.987  0.00  0.00    +0.000 C 
ATOM     30  O   UNL     1      -3.213  13.197  20.340  0.00  0.00    +0.000 OA
ATOM     31  N   UNL     1      -4.560  12.053  18.808  0.00  0.00    +0.000 N 
ENDBRANCH  20  31
ENDBRANCH  17  20
ENDBRANCH   1  19
TORSDOF 4
ENDMDL
MODEL 3
REMARK VINA RESULT:      -8.2      4.416     11.178
REMARK  Name = 
REMARK  4 active torsions:
REMARK  status: ('A' for Active; 'I' for Inactive)
REMARK    1  A    between atoms: N_11  and  C_12
REMARK    2  A    between atoms: C_12  and  C_13
REMARK    3  A    between atoms: C_15  and  C_16
REMARK    4  A    between atoms: C_16  and  N_17
REMARK                            x       y       z     vdW  Elec       q    Type
REMARK                         _______ _______ _______ _____ _____    ______ ____
ROOT
ATOM      1  C   UNL     1       0.627  11.582  19.723  0.00  0.00    +0.000 C 
ENDROOT
BRANCH   1   2
ATOM      2  N   UNL     1      -0.079  10.320  19.470  0.00  0.00    +0.000 NA
ATOM      3  C   UNL     1       0.159   9.765  18.112  0.00  0.00    +0.000 C 
ATOM      4  C   UNL     1       1.553   9.133  17.857  0.00  0.00    +0.000 C 
ATOM      5  N   UNL     1       1.844   8.167  18.923  0.00  0.00    +0.000 N 
ATOM      6  C   UNL     1       2.680   7.114  18.685  0.00  0.00    +0.000 A 
ATOM      7  N   UNL     1       3.635   7.108  17.757  0.00  0.00    +0.000 NA
ATOM      8  S   UNL     1       4.411   5.650  17.777  0.00  0.00    +0.000 S 
ATOM      9  C   UNL     1       3.448   4.926  18.999  0.00  0.00    +0.000 A 
ATOM     10  C   UNL     1       3.507   3.632  19.547  0.00  0.00    +0.000 A 
ATOM     11  C   UNL     1       2.577   3.283  20.532  0.00  0.00    +0.000 A 
ATOM     12  C   UNL     1       1.607   4.183  20.948  0.00  0.00    +0.000 A 
ATOM     13  C   UNL     1       1.551   5.456  20.382  0.00  0.00    +0.000 A 
ATOM     14  C   UNL     1       2.500   5.864  19.407  0.00  0.00    +0.000 A 
ATOM     15  C   UNL     1       1.754   8.744  20.271  0.00  0.00    +0.000 C 
ATOM     16  C   UNL     1       0.324   9.299  20.471  0.00  0.00    +0.000 C 
ENDBRANCH   1   2
BRANCH   1  19
ATOM     17  C   UNL     1      -0.835  12.637  21.629  0.00  0.00    +0.000 C 
ATOM     18  C   UNL     1       0.400  13.491  21.485  0.00  0.00    +0.000 C 
ATOM     19  C   UNL     1       0.470  12.022  21.148  0.00  0.00    +0.000 C 
BRANCH  17  20
ATOM     20  C   UNL     1      -1.386  12.207  22.955  0.00  0.00    +0.000 C 
BRANCH  20  31
ATOM     21  O   UNL     1      -0.903  14.699  24.507  0.00  0.00    +0.000 OA
ATOM     22  C   UNL     1      -2.000  14.308  24.153  0.00  0.00    +0.000 C 
ATOM     23  C   UNL     1      -3.237  15.085  24.306  0.00  0.00    +0.000 A 
ATOM     24  C   UNL     1      -3.458  16.344  24.830  0.00  0.00    +0.000 A 
ATOM     25  C   UNL     1      -4.762  16.852  24.756  0.00  0.00    +0.000 A 
ATOM     26  C   UNL     1      -5.798  16.103  24.162  0.00  0.00    +0.000 A 
ATOM     27  C   UNL     1      -5.550  14.834  23.634  0.00  0.00    +0.000 A 
ATOM     28  C   UNL     1      -4.255  14.353  23.724  0.00  0.00    +0.000 A 
ATOM     29  C   UNL     1      -3.675  13.119  23.202  0.00  0.00    +0.000 C 
ATOM     30  O   UNL     1      -4.306  12.289  22.574  0.00  0.00    +0.000 OA
ATOM     31  N   UNL     1      -2.340  13.151  23.504  0.00  0.00    +0.000 N 
ENDBRANCH  20  31
ENDBRANCH  17  20
ENDBRANCH   1  19
TORSDOF 4
ENDMDL
MODEL 4
REMARK VINA RESULT:      -8.1      1.166      2.043
REMARK  Name = 
REMARK  4 active torsions:
REMARK  status: ('A' for Active; 'I' for Inactive)
REMARK    1  A    between atoms: N_11  and  C_12
REMARK    2  A    between atoms: C_12  and  C_13
REMARK    3  A    between atoms: C_15  and  C_16
REMARK    4  A    between atoms: C_16  and  N_17
REMARK                            x       y       z     vdW  Elec       q    Type
REMARK                         _______ _______ _______ _____ _____    ______ ____
ROOT
ATOM      1  C   UNL     1       1.360   6.062  20.616  0.00  0.00    +0.000 C 
ENDROOT
BRANCH   1   2
ATOM      2  N   UNL     1       2.070   7.344  20.702  0.00  0.00    +0.000 NA
ATOM      3  C   UNL     1       2.260   8.011  19.388  0.00  0.00    +0.000 C 
ATOM      4  C   UNL     1       1.001   8.656  18.750  0.00  0.00    +0.000 C 
ATOM      5  N   UNL     1       0.355   9.527  19.739  0.00  0.00    +0.000 N 
ATOM      6  C   UNL     1      -0.394  10.592  19.329  0.00  0.00    +0.000 A 
ATOM      7  N   UNL     1      -1.004  10.672  18.148  0.00  0.00    +0.000 NA
ATOM      8  S   UNL     1      -1.791  12.119  18.033  0.00  0.00    +0.000 S 
ATOM      9  C   UNL     1      -1.290  12.743  19.552  0.00  0.00    +0.000 A 
ATOM     10  C   UNL     1      -1.561  13.986  20.151  0.00  0.00    +0.000 A 
ATOM     11  C   UNL     1      -1.005  14.255  21.407  0.00  0.00    +0.000 A 
ATOM     12  C   UNL     1      -0.190  13.327  22.039  0.00  0.00    +0.000 A 
ATOM     13  C   UNL     1       0.083  12.106  21.423  0.00  0.00    +0.000 A 
ATOM     14  C   UNL     1      -0.493  11.778  20.167  0.00  0.00    +0.000 A 
ATOM     15  C   UNL     1       0.029   8.839  20.996  0.00  0.00    +0.000 C 
ATOM     16  C   UNL     1       1.337   8.276  21.599  0.00  0.00    +0.000 C 
ENDBRANCH   1   2
BRANCH   1  19
ATOM     17  C   UNL     1       2.347   3.696  20.057  0.00  0.00    +0.000 C 
ATOM     18  C   UNL     1       1.671   3.595  21.401  0.00  0.00    +0.000 C 
ATOM     19  C   UNL     1       2.259   4.914  20.964  0.00  0.00    +0.000 C 
BRANCH  17  20
ATOM     20  C   UNL     1       3.696   3.109  19.769  0.00  0.00    +0.000 C 
BRANCH  20  31
ATOM     21  O   UNL     1       6.221   4.678  19.676  0.00  0.00    +0.000 OA
ATOM     22  C   UNL     1       5.557   4.382  18.701  0.00  0.00    +0.000 C 
ATOM     23  C   UNL     1       5.979   4.623  17.316  0.00  0.00    +0.000 A 
ATOM     24  C   UNL     1       7.134   5.185  16.805  0.00  0.00    +0.000 A 
ATOM     25  C   UNL     1       7.281   5.198  15.411  0.00  0.00    +0.000 A 
ATOM     26  C   UNL     1       6.287   4.652  14.573  0.00  0.00    +0.000 A 
ATOM     27  C   UNL     1       5.131   4.085  15.112  0.00  0.00    +0.000 A 
ATOM     28  C   UNL     1       5.008   4.088  16.491  0.00  0.00    +0.000 A 
ATOM     29  C   UNL     1       3.971   3.509  17.342  0.00  0.00    +0.000 C 
ATOM     30  O   UNL     1       3.007   2.903  16.912  0.00  0.00    +0.000 OA
ATOM     31  N   UNL     1       4.353   3.732  18.636  0.00  0.00    +0.000 N 
ENDBRANCH  20  31
ENDBRANCH  17  20
ENDBRANCH   1  19
TORSDOF 4
ENDMDL
MODEL 5
REMARK VINA RESULT:      -8.1      3.997     10.699
REMARK  Name = 
REMARK  4 active torsions:
REMARK  status: ('A' for Active; 'I' for Inactive)
REMARK    1  A    between atoms: N_11  and  C_12
REMARK    2  A    between atoms: C_12  and  C_13
REMARK    3  A    between atoms: C_15  and  C_16
REMARK    4  A    between atoms: C_16  and  N_17
REMARK                            x       y       z     vdW  Elec       q    Type
REMARK                         _______ _______ _______ _____ _____    ______ ____
ROOT
ATOM      1  C   UNL     1      -0.040   9.197  19.856  0.00  0.00    +0.000 C 
ENDROOT
BRANCH   1   2
ATOM      2  N   UNL     1       1.421   9.100  19.957  0.00  0.00    +0.000 NA
ATOM      3  C   UNL     1       1.887   7.964  20.795  0.00  0.00    +0.000 C 
ATOM      4  C   UNL     1       1.751   6.547  20.178  0.00  0.00    +0.000 C 
ATOM      5  N   UNL     1       2.353   6.547  18.839  0.00  0.00    +0.000 N 
ATOM      6  C   UNL     1       2.858   5.393  18.314  0.00  0.00    +0.000 A 
ATOM      7  N   UNL     1       2.457   4.171  18.660  0.00  0.00    +0.000 NA
ATOM      8  S   UNL     1       3.321   3.048  17.811  0.00  0.00    +0.000 S 
ATOM      9  C   UNL     1       4.333   4.158  16.980  0.00  0.00    +0.000 A 
ATOM     10  C   UNL     1       5.374   3.920  16.065  0.00  0.00    +0.000 A 
ATOM     11  C   UNL     1       6.064   5.019  15.542  0.00  0.00    +0.000 A 
ATOM     12  C   UNL     1       5.743   6.312  15.928  0.00  0.00    +0.000 A 
ATOM     13  C   UNL     1       4.719   6.530  16.849  0.00  0.00    +0.000 A 
ATOM     14  C   UNL     1       3.969   5.445  17.375  0.00  0.00    +0.000 A 
ATOM     15  C   UNL     1       1.795   7.577  17.951  0.00  0.00    +0.000 C 
ATOM     16  C   UNL     1       2.019   8.960  18.604  0.00  0.00    +0.000 C 
ENDBRANCH   1   2
BRANCH   1  19
ATOM     17  C   UNL     1      -1.917  10.806  18.974  0.00  0.00    +0.000 C 
ATOM     18  C   UNL     1      -1.235  10.207  17.770  0.00  0.00    +0.000 C 
ATOM     19  C   UNL     1      -0.455  10.391  19.048  0.00  0.00    +0.000 C 
BRANCH  17  20
ATOM     20  C   UNL     1      -2.257  12.261  19.087  0.00  0.00    +0.000 C 
BRANCH  20  31
ATOM     21  O   UNL     1      -5.151  12.840  19.457  0.00  0.00    +0.000 OA
ATOM     22  C   UNL     1      -4.341  12.767  20.362  0.00  0.00    +0.000 C 
ATOM     23  C   UNL     1      -4.695  12.803  21.787  0.00  0.00    +0.000 A 
ATOM     24  C   UNL     1      -5.923  12.907  22.413  0.00  0.00    +0.000 A 
ATOM     25  C   UNL     1      -5.940  12.826  23.812  0.00  0.00    +0.000 A 
ATOM     26  C   UNL     1      -4.748  12.639  24.541  0.00  0.00    +0.000 A 
ATOM     27  C   UNL     1      -3.520  12.530  23.886  0.00  0.00    +0.000 A 
ATOM     28  C   UNL     1      -3.529  12.618  22.505  0.00  0.00    +0.000 A 
ATOM     29  C   UNL     1      -2.436  12.466  21.547  0.00  0.00    +0.000 C 
ATOM     30  O   UNL     1      -1.287  12.225  21.868  0.00  0.00    +0.000 OA
ATOM     31  N   UNL     1      -2.986  12.579  20.299  0.00  0.00    +0.000 N 
ENDBRANCH  20  31
ENDBRANCH  17  20
ENDBRANCH   1  19
TORSDOF 4
ENDMDL
MODEL 6
REMARK VINA RESULT:      -8.0      7.571      9.160
REMARK  Name = 
REMARK  4 active torsions:
REMARK  status: ('A' for Active; 'I' for Inactive)
REMARK    1  A    between atoms: N_11  and  C_12
REMARK    2  A    between atoms: C_12  and  C_13
REMARK    3  A    between atoms: C_15  and  C_16
REMARK    4  A    between atoms: C_16  and  N_17
REMARK                            x       y       z     vdW  Elec       q    Type
REMARK                         _______ _______ _______ _____ _____    ______ ____
ROOT
ATOM      1  C   UNL     1       8.373  10.264  18.044  0.00  0.00    +0.000 C 
ENDROOT
BRANCH   1   2
ATOM      2  N   UNL     1       9.587  10.658  18.769  0.00  0.00    +0.000 NA
ATOM      3  C   UNL     1      10.631  11.264  17.902  0.00  0.00    +0.000 C 
ATOM      4  C   UNL     1      10.361  12.707  17.400  0.00  0.00    +0.000 C 
ATOM      5  N   UNL     1      10.014  13.556  18.546  0.00  0.00    +0.000 N 
ATOM      6  C   UNL     1      10.261  14.898  18.504  0.00  0.00    +0.000 A 
ATOM      7  N   UNL     1      10.343  15.613  17.384  0.00  0.00    +0.000 NA
ATOM      8  S   UNL     1      10.667  17.188  17.759  0.00  0.00    +0.000 S 
ATOM      9  C   UNL     1      10.781  16.971  19.458  0.00  0.00    +0.000 A 
ATOM     10  C   UNL     1      11.070  17.904  20.470  0.00  0.00    +0.000 A 
ATOM     11  C   UNL     1      11.123  17.455  21.794  0.00  0.00    +0.000 A 
ATOM     12  C   UNL     1      10.914  16.119  22.103  0.00  0.00    +0.000 A 
ATOM     13  C   UNL     1      10.646  15.203  21.085  0.00  0.00    +0.000 A 
ATOM     14  C   UNL     1      10.546  15.624  19.733  0.00  0.00    +0.000 A 
ATOM     15  C   UNL     1       8.884  13.041  19.331  0.00  0.00    +0.000 C 
ATOM     16  C   UNL     1       9.249  11.628  19.843  0.00  0.00    +0.000 C 
ENDBRANCH   1   2
BRANCH   1  19
ATOM     17  C   UNL     1       7.197   7.920  17.961  0.00  0.00    +0.000 C 
ATOM     18  C   UNL     1       8.463   7.760  18.764  0.00  0.00    +0.000 C 
ATOM     19  C   UNL     1       8.399   8.809  17.682  0.00  0.00    +0.000 C 
BRANCH  17  20
ATOM     20  C   UNL     1       6.763   6.946  16.908  0.00  0.00    +0.000 C 
BRANCH  20  31
ATOM     21  O   UNL     1       7.132   4.332  18.277  0.00  0.00    +0.000 OA
ATOM     22  C   UNL     1       6.053   4.851  18.062  0.00  0.00    +0.000 C 
ATOM     23  C   UNL     1       4.777   4.340  18.580  0.00  0.00    +0.000 A 
ATOM     24  C   UNL     1       4.496   3.248  19.380  0.00  0.00    +0.000 A 
ATOM     25  C   UNL     1       3.164   3.072  19.780  0.00  0.00    +0.000 A 
ATOM     26  C   UNL     1       2.162   3.979  19.383  0.00  0.00    +0.000 A 
ATOM     27  C   UNL     1       2.471   5.079  18.580  0.00  0.00    +0.000 A 
ATOM     28  C   UNL     1       3.792   5.229  18.194  0.00  0.00    +0.000 A 
ATOM     29  C   UNL     1       4.431   6.301  17.435  0.00  0.00    +0.000 C 
ATOM     30  O   UNL     1       3.837   7.273  17.009  0.00  0.00    +0.000 OA
ATOM     31  N   UNL     1       5.766   6.006  17.383  0.00  0.00    +0.000 N 
ENDBRANCH  20  31
ENDBRANCH  17  20
ENDBRANCH   1  19
TORSDOF 4
ENDMDL
MODEL 7
REMARK VINA RESULT:      -8.0      7.597      9.073
REMARK  Name = 
REMARK  4 active torsions:
REMARK  status: ('A' for Active; 'I' for Inactive)
REMARK    1  A    between atoms: N_11  and  C_12
REMARK    2  A    between atoms: C_12  and  C_13
REMARK    3  A    between atoms: C_15  and  C_16
REMARK    4  A    between atoms: C_16  and  N_17
REMARK                            x       y       z     vdW  Elec       q    Type
REMARK                         _______ _______ _______ _____ _____    ______ ____
ROOT
ATOM      1  C   UNL     1       8.239  10.318  18.068  0.00  0.00    +0.000 C 
ENDROOT
BRANCH   1   2
ATOM      2  N   UNL     1       9.478  10.690  18.761  0.00  0.00    +0.000 NA
ATOM      3  C   UNL     1      10.510  11.276  17.867  0.00  0.00    +0.000 C 
ATOM      4  C   UNL     1      10.254  12.724  17.372  0.00  0.00    +0.000 C 
ATOM      5  N   UNL     1       9.952  13.580  18.526  0.00  0.00    +0.000 N 
ATOM      6  C   UNL     1      10.223  14.917  18.478  0.00  0.00    +0.000 A 
ATOM      7  N   UNL     1      10.288  15.630  17.356  0.00  0.00    +0.000 NA
ATOM      8  S   UNL     1      10.651  17.199  17.723  0.00  0.00    +0.000 S 
ATOM      9  C   UNL     1      10.806  16.980  19.418  0.00  0.00    +0.000 A 
ATOM     10  C   UNL     1      11.139  17.906  20.422  0.00  0.00    +0.000 A 
ATOM     11  C   UNL     1      11.218  17.456  21.744  0.00  0.00    +0.000 A 
ATOM     12  C   UNL     1      10.993  16.123  22.058  0.00  0.00    +0.000 A 
ATOM     13  C   UNL     1      10.681  15.214  21.048  0.00  0.00    +0.000 A 
ATOM     14  C   UNL     1      10.553  15.637  19.699  0.00  0.00    +0.000 A 
ATOM     15  C   UNL     1       8.835  13.084  19.341  0.00  0.00    +0.000 C 
ATOM     16  C   UNL     1       9.187  11.665  19.844  0.00  0.00    +0.000 C 
ENDBRANCH   1   2
BRANCH   1  19
ATOM     17  C   UNL     1       7.119   7.945  18.045  0.00  0.00    +0.000 C 
ATOM     18  C   UNL     1       8.480   7.794  18.677  0.00  0.00    +0.000 C 
ATOM     19  C   UNL     1       8.255   8.878  17.652  0.00  0.00    +0.000 C 
BRANCH  17  20
ATOM     20  C   UNL     1       6.580   6.996  17.018  0.00  0.00    +0.000 C 
BRANCH  20  31
ATOM     21  O   UNL     1       3.653   7.516  17.128  0.00  0.00    +0.000 OA
ATOM     22  C   UNL     1       4.182   6.475  17.470  0.00  0.00    +0.000 C 
ATOM     23  C   UNL     1       3.443   5.263  17.846  0.00  0.00    +0.000 A 
ATOM     24  C   UNL     1       2.085   5.007  17.895  0.00  0.00    +0.000 A 
ATOM     25  C   UNL     1       1.689   3.702  18.217  0.00  0.00    +0.000 A 
ATOM     26  C   UNL     1       2.643   2.697  18.473  0.00  0.00    +0.000 A 
ATOM     27  C   UNL     1       4.009   2.977  18.411  0.00  0.00    +0.000 A 
ATOM     28  C   UNL     1       4.376   4.274  18.096  0.00  0.00    +0.000 A 
ATOM     29  C   UNL     1       5.702   4.848  17.882  0.00  0.00    +0.000 C 
ATOM     30  O   UNL     1       6.734   4.210  17.962  0.00  0.00    +0.000 OA
ATOM     31  N   UNL     1       5.513   6.157  17.528  0.00  0.00    +0.000 N 
ENDBRANCH  20  31
ENDBRANCH  17  20
ENDBRANCH   1  19
TORSDOF 4
ENDMDL
MODEL 8
REMARK VINA RESULT:      -8.0      1.969      4.375
REMARK  Name = 
REMARK  4 active torsions:
REMARK  status: ('A' for Active; 'I' for Inactive)
REMARK    1  A    between atoms: N_11  and  C_12
REMARK    2  A    between atoms: C_12  and  C_13
REMARK    3  A    between atoms: C_15  and  C_16
REMARK    4  A    between atoms: C_16  and  N_17
REMARK                            x       y       z     vdW  Elec       q    Type
REMARK                         _______ _______ _______ _____ _____    ______ ____
ROOT
ATOM      1  C   UNL     1       3.952   7.776  17.379  0.00  0.00    +0.000 C 
ENDROOT
BRANCH   1   2
ATOM      2  N   UNL     1       2.485   7.799  17.343  0.00  0.00    +0.000 NA
ATOM      3  C   UNL     1       1.848   6.919  18.357  0.00  0.00    +0.000 C 
ATOM      4  C   UNL     1       1.903   7.408  19.829  0.00  0.00    +0.000 C 
ATOM      5  N   UNL     1       1.417   8.791  19.894  0.00  0.00    +0.000 N 
ATOM      6  C   UNL     1       0.851   9.267  21.042  0.00  0.00    +0.000 A 
ATOM      7  N   UNL     1       1.108   8.791  22.258  0.00  0.00    +0.000 NA
ATOM      8  S   UNL     1       0.217   9.622  23.373  0.00  0.00    +0.000 S 
ATOM      9  C   UNL     1      -0.616  10.626  22.257  0.00  0.00    +0.000 A 
ATOM     10  C   UNL     1      -1.596  11.609  22.484  0.00  0.00    +0.000 A 
ATOM     11  C   UNL     1      -2.136  12.278  21.380  0.00  0.00    +0.000 A 
ATOM     12  C   UNL     1      -1.730  11.968  20.090  0.00  0.00    +0.000 A 
ATOM     13  C   UNL     1      -0.770  10.978  19.882  0.00  0.00    +0.000 A 
ATOM     14  C   UNL     1      -0.169  10.303  20.976  0.00  0.00    +0.000 A 
ATOM     15  C   UNL     1       2.138   9.704  18.996  0.00  0.00    +0.000 C 
ATOM     16  C   UNL     1       1.990   9.185  17.547  0.00  0.00    +0.000 C 
ENDBRANCH   1   2
BRANCH   1  19
ATOM     17  C   UNL     1       5.454   5.624  17.331  0.00  0.00    +0.000 C 
ATOM     18  C   UNL     1       5.955   6.547  16.249  0.00  0.00    +0.000 C 
ATOM     19  C   UNL     1       4.500   6.590  16.643  0.00  0.00    +0.000 C 
BRANCH  17  20
ATOM     20  C   UNL     1       5.256   4.152  17.128  0.00  0.00    +0.000 C 
BRANCH  20  31
ATOM     21  O   UNL     1       5.480   3.538  20.030  0.00  0.00    +0.000 OA
ATOM     22  C   UNL     1       4.465   3.403  19.373  0.00  0.00    +0.000 C 
ATOM     23  C   UNL     1       3.156   3.061  19.944  0.00  0.00    +0.000 A 
ATOM     24  C   UNL     1       2.768   2.836  21.252  0.00  0.00    +0.000 A 
ATOM     25  C   UNL     1       1.405   2.610  21.488  0.00  0.00    +0.000 A 
ATOM     26  C   UNL     1       0.475   2.620  20.429  0.00  0.00    +0.000 A 
ATOM     27  C   UNL     1       0.889   2.856  19.116  0.00  0.00    +0.000 A 
ATOM     28  C   UNL     1       2.241   3.072  18.908  0.00  0.00    +0.000 A 
ATOM     29  C   UNL     1       2.958   3.418  17.684  0.00  0.00    +0.000 C 
ATOM     30  O   UNL     1       2.416   3.570  16.605  0.00  0.00    +0.000 OA
ATOM     31  N   UNL     1       4.271   3.585  18.029  0.00  0.00    +0.000 N 
ENDBRANCH  20  31
ENDBRANCH  17  20
ENDBRANCH   1  19
TORSDOF 4
ENDMDL
MODEL 9
REMARK VINA RESULT:      -7.9      4.483     11.157
REMARK  Name = 
REMARK  4 active torsions:
REMARK  status: ('A' for Active; 'I' for Inactive)
REMARK    1  A    between atoms: N_11  and  C_12
REMARK    2  A    between atoms: C_12  and  C_13
REMARK    3  A    between atoms: C_15  and  C_16
REMARK    4  A    between atoms: C_16  and  N_17
REMARK                            x       y       z     vdW  Elec       q    Type
REMARK                         _______ _______ _______ _____ _____    ______ ____
ROOT
ATOM      1  C   UNL     1       0.991  11.146  20.526  0.00  0.00    +0.000 C 
ENDROOT
BRANCH   1   2
ATOM      2  N   UNL     1       0.192  10.014  20.042  0.00  0.00    +0.000 NA
ATOM      3  C   UNL     1       0.495   9.626  18.640  0.00  0.00    +0.000 C 
ATOM      4  C   UNL     1       1.839   8.887  18.402  0.00  0.00    +0.000 C 
ATOM      5  N   UNL     1       1.938   7.759  19.336  0.00  0.00    +0.000 N 
ATOM      6  C   UNL     1       2.686   6.664  19.012  0.00  0.00    +0.000 A 
ATOM      7  N   UNL     1       3.715   6.680  18.168  0.00  0.00    +0.000 NA
ATOM      8  S   UNL     1       4.341   5.157  18.036  0.00  0.00    +0.000 S 
ATOM      9  C   UNL     1       3.207   4.382  19.065  0.00  0.00    +0.000 A 
ATOM     10  C   UNL     1       3.090   3.027  19.423  0.00  0.00    +0.000 A 
ATOM     11  C   UNL     1       2.046   2.651  20.275  0.00  0.00    +0.000 A 
ATOM     12  C   UNL     1       1.135   3.587  20.742  0.00  0.00    +0.000 A 
ATOM     13  C   UNL     1       1.254   4.924  20.363  0.00  0.00    +0.000 A 
ATOM     14  C   UNL     1       2.321   5.354  19.531  0.00  0.00    +0.000 A 
ATOM     15  C   UNL     1       1.783   8.154  20.743  0.00  0.00    +0.000 C 
ATOM     16  C   UNL     1       0.402   8.829  20.913  0.00  0.00    +0.000 C 
ENDBRANCH   1   2
BRANCH   1  19
ATOM     17  C   UNL     1      -1.292  11.773  21.657  0.00  0.00    +0.000 C 
ATOM     18  C   UNL     1      -0.880  12.941  20.797  0.00  0.00    +0.000 C 
ATOM     19  C   UNL     1       0.181  12.055  21.401  0.00  0.00    +0.000 C 
BRANCH  17  20
ATOM     20  C   UNL     1      -1.821  11.924  23.051  0.00  0.00    +0.000 C 
BRANCH  20  31
ATOM     21  O   UNL     1      -4.701  12.391  22.473  0.00  0.00    +0.000 OA
ATOM     22  C   UNL     1      -3.959  13.209  22.984  0.00  0.00    +0.000 C 
ATOM     23  C   UNL     1      -4.407  14.495  23.533  0.00  0.00    +0.000 A 
ATOM     24  C   UNL     1      -5.668  15.056  23.615  0.00  0.00    +0.000 A 
ATOM     25  C   UNL     1      -5.783  16.283  24.283  0.00  0.00    +0.000 A 
ATOM     26  C   UNL     1      -4.654  16.908  24.850  0.00  0.00    +0.000 A 
ATOM     27  C   UNL     1      -3.391  16.319  24.760  0.00  0.00    +0.000 A 
ATOM     28  C   UNL     1      -3.303  15.110  24.091  0.00  0.00    +0.000 A 
ATOM     29  C   UNL     1      -2.156  14.225  23.902  0.00  0.00    +0.000 C 
ATOM     30  O   UNL     1      -1.045  14.457  24.341  0.00  0.00    +0.000 OA
ATOM     31  N   UNL     1      -2.614  13.126  23.228  0.00  0.00    +0.000 N 
ENDBRANCH  20  31
ENDBRANCH  17  20
ENDBRANCH   1  19
TORSDOF 4
ENDMDL
