MODEL 1
REMARK VINA RESULT:      -9.0      0.000      0.000
REMARK  Name = 
REMARK  9 active torsions:
REMARK  status: ('A' for Active; 'I' for Inactive)
REMARK    1  A    between atoms: C_1  and  C_2
REMARK    2  A    between atoms: C_2  and  O_3
REMARK    3  A    between atoms: O_3  and  C_4
REMARK    4  A    between atoms: C_4  and  C_6
REMARK    5  A    between atoms: C_7  and  C_8
REMARK    6  A    between atoms: N_9  and  C_10
REMARK    7  A    between atoms: C_19  and  O_20
REMARK    8  A    between atoms: O_20  and  C_21
REMARK    9  A    between atoms: C_21  and  C_23
REMARK                            x       y       z     vdW  Elec       q    Type
REMARK                         _______ _______ _______ _____ _____    ______ ____
ROOT
ATOM      1  C   UNL     1       3.455   4.077  19.106  0.00  0.00    +0.000 A 
ATOM      2  C   UNL     1       2.618   5.099  19.561  0.00  0.00    +0.000 A 
ATOM      3  C   UNL     1       1.534   5.017  20.594  0.00  0.00    +0.000 C 
ATOM      4  N   UNL     1       2.891   6.258  18.825  0.00  0.00    +0.000 N 
ATOM      5  C   UNL     1       3.895   5.963  17.892  0.00  0.00    +0.000 A 
ATOM      6  C   UNL     1       4.595   6.794  16.987  0.00  0.00    +0.000 A 
ATOM      7  C   UNL     1       5.555   6.242  16.139  0.00  0.00    +0.000 A 
ATOM      8  C   UNL     1       5.830   4.889  16.191  0.00  0.00    +0.000 A 
ATOM      9  C   UNL     1       5.205   4.075  17.141  0.00  0.00    +0.000 A 
ATOM     10  C   UNL     1       4.221   4.612  18.018  0.00  0.00    +0.000 A 
ENDROOT
BRANCH   4  11
ATOM     11  C   UNL     1       2.251   7.535  18.972  0.00  0.00    +0.000 A 
ATOM     12  C   UNL     1       1.825   7.991  20.226  0.00  0.00    +0.000 A 
ATOM     13  C   UNL     1       1.166   9.216  20.350  0.00  0.00    +0.000 A 
ATOM     14  C   UNL     1       0.961  10.017  19.230  0.00  0.00    +0.000 A 
ATOM     15  C   UNL     1       1.409   9.590  17.983  0.00  0.00    +0.000 A 
ATOM     16  C   UNL     1       2.037   8.348  17.851  0.00  0.00    +0.000 A 
ENDBRANCH   4  11
BRANCH   1  17
ATOM     17  C   UNL     1       3.543   2.732  19.691  0.00  0.00    +0.000 C 
ATOM     18  O   UNL     1       4.027   2.490  20.791  0.00  0.00    +0.000 OA
BRANCH  17  19
ATOM     19  O   UNL     1       3.144   1.760  18.822  0.00  0.00    +0.000 OA
BRANCH  19  21
ATOM     20  C   UNL     1       0.773   2.026  18.811  0.00  0.00    +0.000 C 
ATOM     21  C   UNL     1       2.041   2.107  17.978  0.00  0.00    +0.000 C 
ENDBRANCH  19  21
ENDBRANCH  17  19
ENDBRANCH   1  17
BRANCH   8  22
ATOM     22  O   UNL     1       6.813   4.273  15.387  0.00  0.00    +0.000 OA
BRANCH  22  23
ATOM     23  C   UNL     1       7.083   4.723  14.089  0.00  0.00    +0.000 C 
ATOM     24  O   UNL     1       7.871   5.613  13.791  0.00  0.00    +0.000 OA
BRANCH  23  25
ATOM     25  C   UNL     1       6.290   3.973  13.137  0.00  0.00    +0.000 A 
ATOM     26  C   UNL     1       4.935   4.028  12.852  0.00  0.00    +0.000 A 
ATOM     27  C   UNL     1       4.688   3.077  11.831  0.00  0.00    +0.000 A 
ATOM     28  C   UNL     1       5.898   2.492  11.559  0.00  0.00    +0.000 A 
ATOM     29  O   UNL     1       6.875   3.024  12.337  0.00  0.00    +0.000 OA
ENDBRANCH  23  25
ENDBRANCH  22  23
ENDBRANCH   8  22
TORSDOF 7
ENDMDL
MODEL 2
REMARK VINA RESULT:      -9.0      3.498      7.135
REMARK  Name = 
REMARK  9 active torsions:
REMARK  status: ('A' for Active; 'I' for Inactive)
REMARK    1  A    between atoms: C_1  and  C_2
REMARK    2  A    between atoms: C_2  and  O_3
REMARK    3  A    between atoms: O_3  and  C_4
REMARK    4  A    between atoms: C_4  and  C_6
REMARK    5  A    between atoms: C_7  and  C_8
REMARK    6  A    between atoms: N_9  and  C_10
REMARK    7  A    between atoms: C_19  and  O_20
REMARK    8  A    between atoms: O_20  and  C_21
REMARK    9  A    between atoms: C_21  and  C_23
REMARK                            x       y       z     vdW  Elec       q    Type
REMARK                         _______ _______ _______ _____ _____    ______ ____
ROOT
ATOM      1  C   UNL     1       2.827   4.847  20.081  0.00  0.00    +0.000 A 
ATOM      2  C   UNL     1       3.807   4.308  19.244  0.00  0.00    +0.000 A 
ATOM      3  C   UNL     1       4.503   2.985  19.366  0.00  0.00    +0.000 C 
ATOM      4  N   UNL     1       4.127   5.256  18.266  0.00  0.00    +0.000 N 
ATOM      5  C   UNL     1       3.355   6.404  18.493  0.00  0.00    +0.000 A 
ATOM      6  C   UNL     1       3.222   7.597  17.745  0.00  0.00    +0.000 A 
ATOM      7  C   UNL     1       2.383   8.614  18.203  0.00  0.00    +0.000 A 
ATOM      8  C   UNL     1       1.675   8.450  19.379  0.00  0.00    +0.000 A 
ATOM      9  C   UNL     1       1.735   7.241  20.080  0.00  0.00    +0.000 A 
ATOM     10  C   UNL     1       2.583   6.189  19.635  0.00  0.00    +0.000 A 
ENDROOT
BRANCH   4  11
ATOM     11  C   UNL     1       5.090   5.106  17.212  0.00  0.00    +0.000 A 
ATOM     12  C   UNL     1       4.786   4.387  16.049  0.00  0.00    +0.000 A 
ATOM     13  C   UNL     1       5.746   4.211  15.050  0.00  0.00    +0.000 A 
ATOM     14  C   UNL     1       7.007   4.787  15.182  0.00  0.00    +0.000 A 
ATOM     15  C   UNL     1       7.311   5.532  16.318  0.00  0.00    +0.000 A 
ATOM     16  C   UNL     1       6.364   5.678  17.336  0.00  0.00    +0.000 A 
ENDBRANCH   4  11
BRANCH   1  17
ATOM     17  C   UNL     1       2.155   4.127  21.172  0.00  0.00    +0.000 C 
ATOM     18  O   UNL     1       2.666   3.901  22.263  0.00  0.00    +0.000 OA
BRANCH  17  19
ATOM     19  O   UNL     1       0.945   3.625  20.796  0.00  0.00    +0.000 OA
BRANCH  19  21
ATOM     20  C   UNL     1       0.647   2.460  18.736  0.00  0.00    +0.000 C 
ATOM     21  C   UNL     1       0.977   2.319  20.212  0.00  0.00    +0.000 C 
ENDBRANCH  19  21
ENDBRANCH  17  19
ENDBRANCH   1  17
BRANCH   8  22
ATOM     22  O   UNL     1       0.784   9.423  19.881  0.00  0.00    +0.000 OA
BRANCH  22  23
ATOM     23  C   UNL     1       0.569  10.632  19.209  0.00  0.00    +0.000 C 
ATOM     24  O   UNL     1       1.358  11.568  19.152  0.00  0.00    +0.000 OA
BRANCH  23  25
ATOM     25  C   UNL     1      -0.735  10.616  18.580  0.00  0.00    +0.000 A 
ATOM     26  C   UNL     1      -1.217   9.858  17.526  0.00  0.00    +0.000 A 
ATOM     27  C   UNL     1      -2.565  10.244  17.320  0.00  0.00    +0.000 A 
ATOM     28  C   UNL     1      -2.824  11.219  18.249  0.00  0.00    +0.000 A 
ATOM     29  O   UNL     1      -1.731  11.452  19.018  0.00  0.00    +0.000 OA
ENDBRANCH  23  25
ENDBRANCH  22  23
ENDBRANCH   8  22
TORSDOF 7
ENDMDL
MODEL 3
REMARK VINA RESULT:      -8.9      0.510      1.135
REMARK  Name = 
REMARK  9 active torsions:
REMARK  status: ('A' for Active; 'I' for Inactive)
REMARK    1  A    between atoms: C_1  and  C_2
REMARK    2  A    between atoms: C_2  and  O_3
REMARK    3  A    between atoms: O_3  and  C_4
REMARK    4  A    between atoms: C_4  and  C_6
REMARK    5  A    between atoms: C_7  and  C_8
REMARK    6  A    between atoms: N_9  and  C_10
REMARK    7  A    between atoms: C_19  and  O_20
REMARK    8  A    between atoms: O_20  and  C_21
REMARK    9  A    between atoms: C_21  and  C_23
REMARK                            x       y       z     vdW  Elec       q    Type
REMARK                         _______ _______ _______ _____ _____    ______ ____
ROOT
ATOM      1  C   UNL     1       3.351   4.122  19.166  0.00  0.00    +0.000 A 
ATOM      2  C   UNL     1       2.519   5.157  19.600  0.00  0.00    +0.000 A 
ATOM      3  C   UNL     1       1.420   5.096  20.618  0.00  0.00    +0.000 C 
ATOM      4  N   UNL     1       2.815   6.306  18.857  0.00  0.00    +0.000 N 
ATOM      5  C   UNL     1       3.829   5.992  17.941  0.00  0.00    +0.000 A 
ATOM      6  C   UNL     1       4.550   6.807  17.039  0.00  0.00    +0.000 A 
ATOM      7  C   UNL     1       5.517   6.237  16.209  0.00  0.00    +0.000 A 
ATOM      8  C   UNL     1       5.776   4.881  16.278  0.00  0.00    +0.000 A 
ATOM      9  C   UNL     1       5.129   4.083  17.227  0.00  0.00    +0.000 A 
ATOM     10  C   UNL     1       4.139   4.639  18.084  0.00  0.00    +0.000 A 
ENDROOT
BRANCH   4  11
ATOM     11  C   UNL     1       2.187   7.591  18.984  0.00  0.00    +0.000 A 
ATOM     12  C   UNL     1       1.980   8.409  17.865  0.00  0.00    +0.000 A 
ATOM     13  C   UNL     1       1.407   9.675  18.007  0.00  0.00    +0.000 A 
ATOM     14  C   UNL     1       0.997  10.121  19.260  0.00  0.00    +0.000 A 
ATOM     15  C   UNL     1       1.167   9.304  20.374  0.00  0.00    +0.000 A 
ATOM     16  C   UNL     1       1.774   8.052  20.241  0.00  0.00    +0.000 A 
ENDBRANCH   4  11
BRANCH   1  17
ATOM     17  C   UNL     1       3.417   2.782  19.764  0.00  0.00    +0.000 C 
ATOM     18  O   UNL     1       3.807   2.555  20.904  0.00  0.00    +0.000 OA
BRANCH  17  19
ATOM     19  O   UNL     1       3.117   1.798  18.870  0.00  0.00    +0.000 OA
BRANCH  19  21
ATOM     20  C   UNL     1       0.743   2.036  18.871  0.00  0.00    +0.000 C 
ATOM     21  C   UNL     1       1.999   2.065  18.016  0.00  0.00    +0.000 C 
ENDBRANCH  19  21
ENDBRANCH  17  19
ENDBRANCH   1  17
BRANCH   8  22
ATOM     22  O   UNL     1       6.764   4.248  15.494  0.00  0.00    +0.000 OA
BRANCH  22  23
ATOM     23  C   UNL     1       7.102   4.722  14.221  0.00  0.00    +0.000 C 
ATOM     24  O   UNL     1       7.899   5.621  13.982  0.00  0.00    +0.000 OA
BRANCH  23  25
ATOM     25  C   UNL     1       6.368   3.985  13.214  0.00  0.00    +0.000 A 
ATOM     26  C   UNL     1       6.818   3.183  12.178  0.00  0.00    +0.000 A 
ATOM     27  C   UNL     1       5.672   2.704  11.496  0.00  0.00    +0.000 A 
ATOM     28  C   UNL     1       4.592   3.246  12.146  0.00  0.00    +0.000 A 
ATOM     29  O   UNL     1       4.996   4.019  13.186  0.00  0.00    +0.000 OA
ENDBRANCH  23  25
ENDBRANCH  22  23
ENDBRANCH   8  22
TORSDOF 7
ENDMDL
MODEL 4
REMARK VINA RESULT:      -8.8      3.610      7.947
REMARK  Name = 
REMARK  9 active torsions:
REMARK  status: ('A' for Active; 'I' for Inactive)
REMARK    1  A    between atoms: C_1  and  C_2
REMARK    2  A    between atoms: C_2  and  O_3
REMARK    3  A    between atoms: O_3  and  C_4
REMARK    4  A    between atoms: C_4  and  C_6
REMARK    5  A    between atoms: C_7  and  C_8
REMARK    6  A    between atoms: N_9  and  C_10
REMARK    7  A    between atoms: C_19  and  O_20
REMARK    8  A    between atoms: O_20  and  C_21
REMARK    9  A    between atoms: C_21  and  C_23
REMARK                            x       y       z     vdW  Elec       q    Type
REMARK                         _______ _______ _______ _____ _____    ______ ____
ROOT
ATOM      1  C   UNL     1       2.698   4.578  20.349  0.00  0.00    +0.000 A 
ATOM      2  C   UNL     1       3.720   4.177  19.486  0.00  0.00    +0.000 A 
ATOM      3  C   UNL     1       4.480   2.884  19.489  0.00  0.00    +0.000 C 
ATOM      4  N   UNL     1       4.009   5.235  18.617  0.00  0.00    +0.000 N 
ATOM      5  C   UNL     1       3.177   6.314  18.942  0.00  0.00    +0.000 A 
ATOM      6  C   UNL     1       2.997   7.570  18.316  0.00  0.00    +0.000 A 
ATOM      7  C   UNL     1       2.099   8.492  18.856  0.00  0.00    +0.000 A 
ATOM      8  C   UNL     1       1.379   8.174  19.992  0.00  0.00    +0.000 A 
ATOM      9  C   UNL     1       1.486   6.904  20.567  0.00  0.00    +0.000 A 
ATOM     10  C   UNL     1       2.394   5.946  20.037  0.00  0.00    +0.000 A 
ENDROOT
BRANCH   4  11
ATOM     11  C   UNL     1       4.999   5.241  17.577  0.00  0.00    +0.000 A 
ATOM     12  C   UNL     1       6.252   5.837  17.773  0.00  0.00    +0.000 A 
ATOM     13  C   UNL     1       7.190   5.874  16.739  0.00  0.00    +0.000 A 
ATOM     14  C   UNL     1       6.905   5.281  15.512  0.00  0.00    +0.000 A 
ATOM     15  C   UNL     1       5.676   4.656  15.317  0.00  0.00    +0.000 A 
ATOM     16  C   UNL     1       4.721   4.650  16.337  0.00  0.00    +0.000 A 
ENDBRANCH   4  11
BRANCH   1  17
ATOM     17  C   UNL     1       2.044   3.718  21.345  0.00  0.00    +0.000 C 
ATOM     18  O   UNL     1       2.542   3.409  22.421  0.00  0.00    +0.000 OA
BRANCH  17  19
ATOM     19  O   UNL     1       0.870   3.195  20.889  0.00  0.00    +0.000 OA
BRANCH  19  21
ATOM     20  C   UNL     1       0.528   2.547  18.619  0.00  0.00    +0.000 C 
ATOM     21  C   UNL     1       1.000   2.090  19.988  0.00  0.00    +0.000 C 
ENDBRANCH  19  21
ENDBRANCH  17  19
ENDBRANCH   1  17
BRANCH   8  22
ATOM     22  O   UNL     1       0.430   9.046  20.569  0.00  0.00    +0.000 OA
BRANCH  22  23
ATOM     23  C   UNL     1       0.708   9.755  21.743  0.00  0.00    +0.000 C 
ATOM     24  O   UNL     1       1.715   9.632  22.430  0.00  0.00    +0.000 OA
BRANCH  23  25
ATOM     25  C   UNL     1      -0.376  10.670  22.030  0.00  0.00    +0.000 A 
ATOM     26  C   UNL     1      -1.176  10.793  23.154  0.00  0.00    +0.000 A 
ATOM     27  C   UNL     1      -2.080  11.856  22.905  0.00  0.00    +0.000 A 
ATOM     28  C   UNL     1      -1.788  12.313  21.645  0.00  0.00    +0.000 A 
ATOM     29  O   UNL     1      -0.760  11.609  21.106  0.00  0.00    +0.000 OA
ENDBRANCH  23  25
ENDBRANCH  22  23
ENDBRANCH   8  22
TORSDOF 7
ENDMDL
MODEL 5
REMARK VINA RESULT:      -8.8      3.556      7.518
REMARK  Name = 
REMARK  9 active torsions:
REMARK  status: ('A' for Active; 'I' for Inactive)
REMARK    1  A    between atoms: C_1  and  C_2
REMARK    2  A    between atoms: C_2  and  O_3
REMARK    3  A    between atoms: O_3  and  C_4
REMARK    4  A    between atoms: C_4  and  C_6
REMARK    5  A    between atoms: C_7  and  C_8
REMARK    6  A    between atoms: N_9  and  C_10
REMARK    7  A    between atoms: C_19  and  O_20
REMARK    8  A    between atoms: O_20  and  C_21
REMARK    9  A    between atoms: C_21  and  C_23
REMARK                            x       y       z     vdW  Elec       q    Type
REMARK                         _______ _______ _______ _____ _____    ______ ____
ROOT
ATOM      1  C   UNL     1       2.734   4.387  20.359  0.00  0.00    +0.000 A 
ATOM      2  C   UNL     1       3.725   3.945  19.480  0.00  0.00    +0.000 A 
ATOM      3  C   UNL     1       4.457   2.636  19.492  0.00  0.00    +0.000 C 
ATOM      4  N   UNL     1       4.015   4.978  18.581  0.00  0.00    +0.000 N 
ATOM      5  C   UNL     1       3.214   6.082  18.903  0.00  0.00    +0.000 A 
ATOM      6  C   UNL     1       3.046   7.328  18.255  0.00  0.00    +0.000 A 
ATOM      7  C   UNL     1       2.182   8.281  18.797  0.00  0.00    +0.000 A 
ATOM      8  C   UNL     1       1.484   8.003  19.957  0.00  0.00    +0.000 A 
ATOM      9  C   UNL     1       1.578   6.743  20.556  0.00  0.00    +0.000 A 
ATOM     10  C   UNL     1       2.452   5.754  20.025  0.00  0.00    +0.000 A 
ENDROOT
BRANCH   4  11
ATOM     11  C   UNL     1       4.979   4.941  17.517  0.00  0.00    +0.000 A 
ATOM     12  C   UNL     1       4.702   4.279  16.313  0.00  0.00    +0.000 A 
ATOM     13  C   UNL     1       5.664   4.213  15.302  0.00  0.00    +0.000 A 
ATOM     14  C   UNL     1       6.895   4.841  15.465  0.00  0.00    +0.000 A 
ATOM     15  C   UNL     1       7.169   5.530  16.643  0.00  0.00    +0.000 A 
ATOM     16  C   UNL     1       6.223   5.566  17.671  0.00  0.00    +0.000 A 
ENDBRANCH   4  11
BRANCH   1  17
ATOM     17  C   UNL     1       2.087   3.563  21.389  0.00  0.00    +0.000 C 
ATOM     18  O   UNL     1       2.459   3.501  22.555  0.00  0.00    +0.000 OA
BRANCH  17  19
ATOM     19  O   UNL     1       1.099   2.774  20.878  0.00  0.00    +0.000 OA
BRANCH  19  21
ATOM     20  C   UNL     1       0.700   2.127  18.617  0.00  0.00    +0.000 C 
ATOM     21  C   UNL     1       0.524   3.228  19.649  0.00  0.00    +0.000 C 
ENDBRANCH  19  21
ENDBRANCH  17  19
ENDBRANCH   1  17
BRANCH   8  22
ATOM     22  O   UNL     1       0.569   8.907  20.538  0.00  0.00    +0.000 OA
BRANCH  22  23
ATOM     23  C   UNL     1       0.991   9.905  21.425  0.00  0.00    +0.000 C 
ATOM     24  O   UNL     1       1.409   9.720  22.562  0.00  0.00    +0.000 OA
BRANCH  23  25
ATOM     25  C   UNL     1       0.865  11.203  20.796  0.00  0.00    +0.000 A 
ATOM     26  C   UNL     1       0.175  11.589  19.659  0.00  0.00    +0.000 A 
ATOM     27  C   UNL     1       0.388  12.981  19.498  0.00  0.00    +0.000 A 
ATOM     28  C   UNL     1       1.200  13.362  20.537  0.00  0.00    +0.000 A 
ATOM     29  O   UNL     1       1.493  12.300  21.330  0.00  0.00    +0.000 OA
ENDBRANCH  23  25
ENDBRANCH  22  23
ENDBRANCH   8  22
TORSDOF 7
ENDMDL
MODEL 6
REMARK VINA RESULT:      -8.7      3.496      7.271
REMARK  Name = 
REMARK  9 active torsions:
REMARK  status: ('A' for Active; 'I' for Inactive)
REMARK    1  A    between atoms: C_1  and  C_2
REMARK    2  A    between atoms: C_2  and  O_3
REMARK    3  A    between atoms: O_3  and  C_4
REMARK    4  A    between atoms: C_4  and  C_6
REMARK    5  A    between atoms: C_7  and  C_8
REMARK    6  A    between atoms: N_9  and  C_10
REMARK    7  A    between atoms: C_19  and  O_20
REMARK    8  A    between atoms: O_20  and  C_21
REMARK    9  A    between atoms: C_21  and  C_23
REMARK                            x       y       z     vdW  Elec       q    Type
REMARK                         _______ _______ _______ _____ _____    ______ ____
ROOT
ATOM      1  C   UNL     1       2.792   4.423  20.363  0.00  0.00    +0.000 A 
ATOM      2  C   UNL     1       3.794   4.037  19.469  0.00  0.00    +0.000 A 
ATOM      3  C   UNL     1       4.575   2.757  19.449  0.00  0.00    +0.000 C 
ATOM      4  N   UNL     1       4.038   5.099  18.591  0.00  0.00    +0.000 N 
ATOM      5  C   UNL     1       3.198   6.165  18.941  0.00  0.00    +0.000 A 
ATOM      6  C   UNL     1       2.979   7.417  18.320  0.00  0.00    +0.000 A 
ATOM      7  C   UNL     1       2.083   8.325  18.887  0.00  0.00    +0.000 A 
ATOM      8  C   UNL     1       1.404   7.996  20.045  0.00  0.00    +0.000 A 
ATOM      9  C   UNL     1       1.550   6.728  20.618  0.00  0.00    +0.000 A 
ATOM     10  C   UNL     1       2.457   5.785  20.060  0.00  0.00    +0.000 A 
ENDROOT
BRANCH   4  11
ATOM     11  C   UNL     1       4.995   5.120  17.520  0.00  0.00    +0.000 A 
ATOM     12  C   UNL     1       4.732   4.483  16.301  0.00  0.00    +0.000 A 
ATOM     13  C   UNL     1       5.688   4.474  15.283  0.00  0.00    +0.000 A 
ATOM     14  C   UNL     1       6.900   5.136  15.455  0.00  0.00    +0.000 A 
ATOM     15  C   UNL     1       7.160   5.802  16.649  0.00  0.00    +0.000 A 
ATOM     16  C   UNL     1       6.220   5.781  17.684  0.00  0.00    +0.000 A 
ENDBRANCH   4  11
BRANCH   1  17
ATOM     17  C   UNL     1       2.184   3.553  21.379  0.00  0.00    +0.000 C 
ATOM     18  O   UNL     1       2.435   3.614  22.578  0.00  0.00    +0.000 OA
BRANCH  17  19
ATOM     19  O   UNL     1       1.400   2.582  20.830  0.00  0.00    +0.000 OA
BRANCH  19  21
ATOM     20  C   UNL     1       0.720   2.201  18.576  0.00  0.00    +0.000 C 
ATOM     21  C   UNL     1       0.482   3.028  19.828  0.00  0.00    +0.000 C 
ENDBRANCH  19  21
ENDBRANCH  17  19
ENDBRANCH   1  17
BRANCH   8  22
ATOM     22  O   UNL     1       0.459   8.852  20.651  0.00  0.00    +0.000 OA
BRANCH  22  23
ATOM     23  C   UNL     1       0.647  10.239  20.686  0.00  0.00    +0.000 C 
ATOM     24  O   UNL     1       1.389  10.841  21.453  0.00  0.00    +0.000 OA
BRANCH  23  25
ATOM     25  C   UNL     1      -0.169  10.869  19.668  0.00  0.00    +0.000 A 
ATOM     26  C   UNL     1      -1.131  10.333  18.827  0.00  0.00    +0.000 A 
ATOM     27  C   UNL     1      -1.621  11.397  18.029  0.00  0.00    +0.000 A 
ATOM     28  C   UNL     1      -0.927  12.513  18.420  0.00  0.00    +0.000 A 
ATOM     29  O   UNL     1      -0.050  12.211  19.410  0.00  0.00    +0.000 OA
ENDBRANCH  23  25
ENDBRANCH  22  23
ENDBRANCH   8  22
TORSDOF 7
ENDMDL
MODEL 7
REMARK VINA RESULT:      -8.7      3.512      7.234
REMARK  Name = 
REMARK  9 active torsions:
REMARK  status: ('A' for Active; 'I' for Inactive)
REMARK    1  A    between atoms: C_1  and  C_2
REMARK    2  A    between atoms: C_2  and  O_3
REMARK    3  A    between atoms: O_3  and  C_4
REMARK    4  A    between atoms: C_4  and  C_6
REMARK    5  A    between atoms: C_7  and  C_8
REMARK    6  A    between atoms: N_9  and  C_10
REMARK    7  A    between atoms: C_19  and  O_20
REMARK    8  A    between atoms: O_20  and  C_21
REMARK    9  A    between atoms: C_21  and  C_23
REMARK                            x       y       z     vdW  Elec       q    Type
REMARK                         _______ _______ _______ _____ _____    ______ ____
ROOT
ATOM      1  C   UNL     1       2.764   4.416  20.382  0.00  0.00    +0.000 A 
ATOM      2  C   UNL     1       3.770   4.032  19.492  0.00  0.00    +0.000 A 
ATOM      3  C   UNL     1       4.548   2.750  19.470  0.00  0.00    +0.000 C 
ATOM      4  N   UNL     1       4.023   5.098  18.621  0.00  0.00    +0.000 N 
ATOM      5  C   UNL     1       3.183   6.164  18.971  0.00  0.00    +0.000 A 
ATOM      6  C   UNL     1       2.970   7.420  18.356  0.00  0.00    +0.000 A 
ATOM      7  C   UNL     1       2.073   8.327  18.922  0.00  0.00    +0.000 A 
ATOM      8  C   UNL     1       1.386   7.994  20.074  0.00  0.00    +0.000 A 
ATOM      9  C   UNL     1       1.525   6.723  20.641  0.00  0.00    +0.000 A 
ATOM     10  C   UNL     1       2.434   5.780  20.084  0.00  0.00    +0.000 A 
ENDROOT
BRANCH   4  11
ATOM     11  C   UNL     1       4.986   5.123  17.557  0.00  0.00    +0.000 A 
ATOM     12  C   UNL     1       6.229   5.749  17.719  0.00  0.00    +0.000 A 
ATOM     13  C   UNL     1       7.140   5.804  16.662  0.00  0.00    +0.000 A 
ATOM     14  C   UNL     1       6.839   5.198  15.445  0.00  0.00    +0.000 A 
ATOM     15  C   UNL     1       5.621   4.543  15.283  0.00  0.00    +0.000 A 
ATOM     16  C   UNL     1       4.692   4.519  16.326  0.00  0.00    +0.000 A 
ENDBRANCH   4  11
BRANCH   1  17
ATOM     17  C   UNL     1       2.147   3.542  21.390  0.00  0.00    +0.000 C 
ATOM     18  O   UNL     1       2.419   3.571  22.585  0.00  0.00    +0.000 OA
BRANCH  17  19
ATOM     19  O   UNL     1       1.327   2.605  20.834  0.00  0.00    +0.000 OA
BRANCH  19  21
ATOM     20  C   UNL     1       0.746   2.201  18.556  0.00  0.00    +0.000 C 
ATOM     21  C   UNL     1       0.490   3.075  19.772  0.00  0.00    +0.000 C 
ENDBRANCH  19  21
ENDBRANCH  17  19
ENDBRANCH   1  17
BRANCH   8  22
ATOM     22  O   UNL     1       0.439   8.849  20.678  0.00  0.00    +0.000 OA
BRANCH  22  23
ATOM     23  C   UNL     1       0.629  10.236  20.719  0.00  0.00    +0.000 C 
ATOM     24  O   UNL     1       1.380  10.832  21.483  0.00  0.00    +0.000 OA
BRANCH  23  25
ATOM     25  C   UNL     1      -0.196  10.872  19.714  0.00  0.00    +0.000 A 
ATOM     26  C   UNL     1      -0.199  12.175  19.245  0.00  0.00    +0.000 A 
ATOM     27  C   UNL     1      -1.212  12.258  18.257  0.00  0.00    +0.000 A 
ATOM     28  C   UNL     1      -1.774  11.009  18.188  0.00  0.00    +0.000 A 
ATOM     29  O   UNL     1      -1.170  10.161  19.059  0.00  0.00    +0.000 OA
ENDBRANCH  23  25
ENDBRANCH  22  23
ENDBRANCH   8  22
TORSDOF 7
ENDMDL
MODEL 8
REMARK VINA RESULT:      -8.6      3.547      7.389
REMARK  Name = 
REMARK  9 active torsions:
REMARK  status: ('A' for Active; 'I' for Inactive)
REMARK    1  A    between atoms: C_1  and  C_2
REMARK    2  A    between atoms: C_2  and  O_3
REMARK    3  A    between atoms: O_3  and  C_4
REMARK    4  A    between atoms: C_4  and  C_6
REMARK    5  A    between atoms: C_7  and  C_8
REMARK    6  A    between atoms: N_9  and  C_10
REMARK    7  A    between atoms: C_19  and  O_20
REMARK    8  A    between atoms: O_20  and  C_21
REMARK    9  A    between atoms: C_21  and  C_23
REMARK                            x       y       z     vdW  Elec       q    Type
REMARK                         _______ _______ _______ _____ _____    ______ ____
ROOT
ATOM      1  C   UNL     1       2.768   4.836  20.180  0.00  0.00    +0.000 A 
ATOM      2  C   UNL     1       3.791   4.352  19.361  0.00  0.00    +0.000 A 
ATOM      3  C   UNL     1       4.541   3.059  19.484  0.00  0.00    +0.000 C 
ATOM      4  N   UNL     1       4.092   5.326  18.402  0.00  0.00    +0.000 N 
ATOM      5  C   UNL     1       3.266   6.436  18.625  0.00  0.00    +0.000 A 
ATOM      6  C   UNL     1       3.098   7.631  17.888  0.00  0.00    +0.000 A 
ATOM      7  C   UNL     1       2.205   8.605  18.339  0.00  0.00    +0.000 A 
ATOM      8  C   UNL     1       1.478   8.395  19.495  0.00  0.00    +0.000 A 
ATOM      9  C   UNL     1       1.573   7.181  20.183  0.00  0.00    +0.000 A 
ATOM     10  C   UNL     1       2.476   6.172  19.745  0.00  0.00    +0.000 A 
ENDROOT
BRANCH   4  11
ATOM     11  C   UNL     1       5.086   5.232  17.371  0.00  0.00    +0.000 A 
ATOM     12  C   UNL     1       6.331   5.860  17.505  0.00  0.00    +0.000 A 
ATOM     13  C   UNL     1       7.274   5.797  16.476  0.00  0.00    +0.000 A 
ATOM     14  C   UNL     1       7.000   5.071  15.320  0.00  0.00    +0.000 A 
ATOM     15  C   UNL     1       5.780   4.414  15.189  0.00  0.00    +0.000 A 
ATOM     16  C   UNL     1       4.820   4.507  16.201  0.00  0.00    +0.000 A 
ENDBRANCH   4  11
BRANCH   1  17
ATOM     17  C   UNL     1       2.104   4.074  21.245  0.00  0.00    +0.000 C 
ATOM     18  O   UNL     1       2.596   3.857  22.347  0.00  0.00    +0.000 OA
BRANCH  17  19
ATOM     19  O   UNL     1       0.926   3.523  20.834  0.00  0.00    +0.000 OA
BRANCH  19  21
ATOM     20  C   UNL     1       0.626   2.499  18.700  0.00  0.00    +0.000 C 
ATOM     21  C   UNL     1       1.042   2.274  20.144  0.00  0.00    +0.000 C 
ENDBRANCH  19  21
ENDBRANCH  17  19
ENDBRANCH   1  17
BRANCH   8  22
ATOM     22  O   UNL     1       0.533   9.322  19.987  0.00  0.00    +0.000 OA
BRANCH  22  23
ATOM     23  C   UNL     1       0.927  10.449  20.718  0.00  0.00    +0.000 C 
ATOM     24  O   UNL     1       1.327  10.445  21.876  0.00  0.00    +0.000 OA
BRANCH  23  25
ATOM     25  C   UNL     1       0.798  11.634  19.896  0.00  0.00    +0.000 A 
ATOM     26  C   UNL     1       1.703  12.239  19.040  0.00  0.00    +0.000 A 
ATOM     27  C   UNL     1       1.056  13.372  18.486  0.00  0.00    +0.000 A 
ATOM     28  C   UNL     1      -0.198  13.398  19.040  0.00  0.00    +0.000 A 
ATOM     29  O   UNL     1      -0.370  12.355  19.891  0.00  0.00    +0.000 OA
ENDBRANCH  23  25
ENDBRANCH  22  23
ENDBRANCH   8  22
TORSDOF 7
ENDMDL
MODEL 9
REMARK VINA RESULT:      -8.6      3.473      7.348
REMARK  Name = 
REMARK  9 active torsions:
REMARK  status: ('A' for Active; 'I' for Inactive)
REMARK    1  A    between atoms: C_1  and  C_2
REMARK    2  A    between atoms: C_2  and  O_3
REMARK    3  A    between atoms: O_3  and  C_4
REMARK    4  A    between atoms: C_4  and  C_6
REMARK    5  A    between atoms: C_7  and  C_8
REMARK    6  A    between atoms: N_9  and  C_10
REMARK    7  A    between atoms: C_19  and  O_20
REMARK    8  A    between atoms: O_20  and  C_21
REMARK    9  A    between atoms: C_21  and  C_23
REMARK                            x       y       z     vdW  Elec       q    Type
REMARK                         _______ _______ _______ _____ _____    ______ ____
ROOT
ATOM      1  C   UNL     1       2.811   5.024  19.968  0.00  0.00    +0.000 A 
ATOM      2  C   UNL     1       3.796   4.441  19.167  0.00  0.00    +0.000 A 
ATOM      3  C   UNL     1       4.463   3.109  19.342  0.00  0.00    +0.000 C 
ATOM      4  N   UNL     1       4.153   5.354  18.167  0.00  0.00    +0.000 N 
ATOM      5  C   UNL     1       3.400   6.523  18.345  0.00  0.00    +0.000 A 
ATOM      6  C   UNL     1       3.305   7.695  17.560  0.00  0.00    +0.000 A 
ATOM      7  C   UNL     1       2.478   8.741  17.972  0.00  0.00    +0.000 A 
ATOM      8  C   UNL     1       1.745   8.626  19.139  0.00  0.00    +0.000 A 
ATOM      9  C   UNL     1       1.767   7.438  19.876  0.00  0.00    +0.000 A 
ATOM     10  C   UNL     1       2.602   6.357  19.478  0.00  0.00    +0.000 A 
ENDROOT
BRANCH   4  11
ATOM     11  C   UNL     1       5.133   5.153  17.137  0.00  0.00    +0.000 A 
ATOM     12  C   UNL     1       6.412   5.718  17.235  0.00  0.00    +0.000 A 
ATOM     13  C   UNL     1       7.342   5.551  16.206  0.00  0.00    +0.000 A 
ATOM     14  C   UNL     1       7.021   4.785  15.089  0.00  0.00    +0.000 A 
ATOM     15  C   UNL     1       5.765   4.191  14.996  0.00  0.00    +0.000 A 
ATOM     16  C   UNL     1       4.820   4.387  16.006  0.00  0.00    +0.000 A 
ENDBRANCH   4  11
BRANCH   1  17
ATOM     17  C   UNL     1       2.105   4.351  21.066  0.00  0.00    +0.000 C 
ATOM     18  O   UNL     1       2.584   4.161  22.179  0.00  0.00    +0.000 OA
BRANCH  17  19
ATOM     19  O   UNL     1       0.900   3.844  20.677  0.00  0.00    +0.000 OA
BRANCH  19  21
ATOM     20  C   UNL     1       0.678   2.477  18.735  0.00  0.00    +0.000 C 
ATOM     21  C   UNL     1       0.922   2.483  20.234  0.00  0.00    +0.000 C 
ENDBRANCH  19  21
ENDBRANCH  17  19
ENDBRANCH   1  17
BRANCH   8  22
ATOM     22  O   UNL     1       0.865   9.631  19.594  0.00  0.00    +0.000 OA
BRANCH  22  23
ATOM     23  C   UNL     1       0.069  10.363  18.705  0.00  0.00    +0.000 C 
ATOM     24  O   UNL     1      -0.721   9.889  17.897  0.00  0.00    +0.000 OA
BRANCH  23  25
ATOM     25  C   UNL     1       0.313  11.779  18.883  0.00  0.00    +0.000 A 
ATOM     26  C   UNL     1      -0.365  12.879  18.384  0.00  0.00    +0.000 A 
ATOM     27  C   UNL     1       0.299  14.032  18.874  0.00  0.00    +0.000 A 
ATOM     28  C   UNL     1       1.344  13.572  19.633  0.00  0.00    +0.000 A 
ATOM     29  O   UNL     1       1.365  12.215  19.650  0.00  0.00    +0.000 OA
ENDBRANCH  23  25
ENDBRANCH  22  23
ENDBRANCH   8  22
TORSDOF 7
ENDMDL
