MODEL 1
REMARK VINA RESULT:      -8.4      0.000      0.000
REMARK  Name = 
REMARK  6 active torsions:
REMARK  status: ('A' for Active; 'I' for Inactive)
REMARK    1  A    between atoms: C_1  and  C_2
REMARK    2  A    between atoms: C_2  and  C_3
REMARK    3  A    between atoms: C_2  and  C_4
REMARK    4  A    between atoms: C_4  and  C_5
REMARK    5  A    between atoms: C_5  and  N_6
REMARK    6  A    between atoms: C_7  and  C_9
REMARK                            x       y       z     vdW  Elec       q    Type
REMARK                         _______ _______ _______ _____ _____    ______ ____
ROOT
ATOM      1  C   UNL     1       5.349   4.656  16.575  0.00  0.00    +0.000 A 
ATOM      2  C   UNL     1       4.032   4.420  16.738  0.00  0.00    +0.000 A 
ATOM      3  C   UNL     1       3.517   3.742  17.912  0.00  0.00    +0.000 A 
ATOM      4  C   UNL     1       4.360   3.334  18.877  0.00  0.00    +0.000 A 
ATOM      5  N   UNL     1       5.708   3.599  18.746  0.00  0.00    +0.000 N 
ATOM      6  C   UNL     1       6.277   4.241  17.669  0.00  0.00    +0.000 A 
ATOM      7  O   UNL     1       7.486   4.447  17.624  0.00  0.00    +0.000 OA
ATOM      8  C   UNL     1       3.940   2.591  20.118  0.00  0.00    +0.000 C 
ATOM      9  C   UNL     1       2.433   2.659  20.356  0.00  0.00    +0.000 C 
ATOM     10  C   UNL     1       1.674   2.380  19.069  0.00  0.00    +0.000 C 
ATOM     11  C   UNL     1       2.063   3.404  18.028  0.00  0.00    +0.000 C 
ATOM     12  O   UNL     1       1.234   3.891  17.263  0.00  0.00    +0.000 OA
ATOM     13  H   UNL     1       6.358   3.313  19.471  0.00  0.00    +0.000 HD
ENDROOT
BRANCH   1  15
ATOM     14  N   UNL     1       6.542   4.468  14.475  0.00  0.00    +0.000 N 
ATOM     15  C   UNL     1       5.799   5.277  15.294  0.00  0.00    +0.000 C 
ATOM     16  O   UNL     1       5.495   6.429  14.995  0.00  0.00    +0.000 OA
ATOM     17  H   UNL     1       6.796   3.536  14.801  0.00  0.00    +0.000 HD
BRANCH  14  18
ATOM     18  C   UNL     1       7.023   4.903  13.182  0.00  0.00    +0.000 C 
BRANCH  18  19
ATOM     19  C   UNL     1       6.969   3.796  12.129  0.00  0.00    +0.000 C 
BRANCH  19  21
ATOM     20  C   UNL     1       4.477   3.583  11.627  0.00  0.00    +0.000 C 
ATOM     21  C   UNL     1       5.718   2.898  12.204  0.00  0.00    +0.000 C 
ATOM     22  C   UNL     1       5.967   1.584  11.457  0.00  0.00    +0.000 C 
ENDBRANCH  19  21
ENDBRANCH  18  19
ENDBRANCH  14  18
ENDBRANCH   1  15
TORSDOF 4
ENDMDL
MODEL 2
REMARK VINA RESULT:      -7.9      1.510      2.013
REMARK  Name = 
REMARK  6 active torsions:
REMARK  status: ('A' for Active; 'I' for Inactive)
REMARK    1  A    between atoms: C_1  and  C_2
REMARK    2  A    between atoms: C_2  and  C_3
REMARK    3  A    between atoms: C_2  and  C_4
REMARK    4  A    between atoms: C_4  and  C_5
REMARK    5  A    between atoms: C_5  and  N_6
REMARK    6  A    between atoms: C_7  and  C_9
REMARK                            x       y       z     vdW  Elec       q    Type
REMARK                         _______ _______ _______ _____ _____    ______ ____
ROOT
ATOM      1  C   UNL     1       5.133   4.616  16.603  0.00  0.00    +0.000 A 
ATOM      2  C   UNL     1       4.665   3.490  17.178  0.00  0.00    +0.000 A 
ATOM      3  C   UNL     1       3.551   3.514  18.106  0.00  0.00    +0.000 A 
ATOM      4  C   UNL     1       2.952   4.680  18.410  0.00  0.00    +0.000 A 
ATOM      5  N   UNL     1       3.393   5.838  17.802  0.00  0.00    +0.000 N 
ATOM      6  C   UNL     1       4.438   5.902  16.907  0.00  0.00    +0.000 A 
ATOM      7  O   UNL     1       4.771   6.969  16.402  0.00  0.00    +0.000 OA
ATOM      8  C   UNL     1       1.813   4.825  19.384  0.00  0.00    +0.000 C 
ATOM      9  C   UNL     1       1.163   3.486  19.725  0.00  0.00    +0.000 C 
ATOM     10  C   UNL     1       2.221   2.436  20.020  0.00  0.00    +0.000 C 
ATOM     11  C   UNL     1       3.109   2.268  18.808  0.00  0.00    +0.000 C 
ATOM     12  O   UNL     1       3.508   1.161  18.452  0.00  0.00    +0.000 OA
ATOM     13  H   UNL     1       2.944   6.725  18.006  0.00  0.00    +0.000 HD
ENDROOT
BRANCH   1  15
ATOM     14  N   UNL     1       6.102   4.542  14.384  0.00  0.00    +0.000 N 
ATOM     15  C   UNL     1       6.341   4.510  15.733  0.00  0.00    +0.000 C 
ATOM     16  O   UNL     1       7.472   4.425  16.208  0.00  0.00    +0.000 OA
ATOM     17  H   UNL     1       5.138   4.570  14.055  0.00  0.00    +0.000 HD
BRANCH  14  18
ATOM     18  C   UNL     1       7.166   4.487  13.405  0.00  0.00    +0.000 C 
BRANCH  18  19
ATOM     19  C   UNL     1       6.684   4.003  12.037  0.00  0.00    +0.000 C 
BRANCH  19  21
ATOM     20  C   UNL     1       4.300   3.314  11.448  0.00  0.00    +0.000 C 
ATOM     21  C   UNL     1       5.622   2.886  12.087  0.00  0.00    +0.000 C 
ATOM     22  C   UNL     1       6.145   1.630  11.384  0.00  0.00    +0.000 C 
ENDBRANCH  19  21
ENDBRANCH  18  19
ENDBRANCH  14  18
ENDBRANCH   1  15
TORSDOF 4
ENDMDL
MODEL 3
REMARK VINA RESULT:      -7.8      0.943      1.382
REMARK  Name = 
REMARK  6 active torsions:
REMARK  status: ('A' for Active; 'I' for Inactive)
REMARK    1  A    between atoms: C_1  and  C_2
REMARK    2  A    between atoms: C_2  and  C_3
REMARK    3  A    between atoms: C_2  and  C_4
REMARK    4  A    between atoms: C_4  and  C_5
REMARK    5  A    between atoms: C_5  and  N_6
REMARK    6  A    between atoms: C_7  and  C_9
REMARK                            x       y       z     vdW  Elec       q    Type
REMARK                         _______ _______ _______ _____ _____    ______ ____
ROOT
ATOM      1  C   UNL     1       5.741   4.272  16.208  0.00  0.00    +0.000 A 
ATOM      2  C   UNL     1       4.430   4.045  16.428  0.00  0.00    +0.000 A 
ATOM      3  C   UNL     1       3.918   3.752  17.753  0.00  0.00    +0.000 A 
ATOM      4  C   UNL     1       4.757   3.706  18.804  0.00  0.00    +0.000 A 
ATOM      5  N   UNL     1       6.096   3.973  18.605  0.00  0.00    +0.000 N 
ATOM      6  C   UNL     1       6.661   4.265  17.383  0.00  0.00    +0.000 A 
ATOM      7  O   UNL     1       7.862   4.497  17.283  0.00  0.00    +0.000 OA
ATOM      8  C   UNL     1       4.341   3.377  20.213  0.00  0.00    +0.000 C 
ATOM      9  C   UNL     1       2.828   3.454  20.407  0.00  0.00    +0.000 C 
ATOM     10  C   UNL     1       2.106   2.750  19.270  0.00  0.00    +0.000 C 
ATOM     11  C   UNL     1       2.476   3.407  17.960  0.00  0.00    +0.000 C 
ATOM     12  O   UNL     1       1.644   3.591  17.074  0.00  0.00    +0.000 OA
ATOM     13  H   UNL     1       6.742   3.959  19.387  0.00  0.00    +0.000 HD
ENDROOT
BRANCH   1  15
ATOM     14  N   UNL     1       5.948   3.429  13.946  0.00  0.00    +0.000 N 
ATOM     15  C   UNL     1       6.191   4.474  14.800  0.00  0.00    +0.000 C 
ATOM     16  O   UNL     1       6.721   5.521  14.436  0.00  0.00    +0.000 OA
ATOM     17  H   UNL     1       5.545   2.571  14.321  0.00  0.00    +0.000 HD
BRANCH  14  18
ATOM     18  C   UNL     1       6.289   3.478  12.542  0.00  0.00    +0.000 C 
BRANCH  18  19
ATOM     19  C   UNL     1       5.488   2.479  11.705  0.00  0.00    +0.000 C 
BRANCH  19  21
ATOM     20  C   UNL     1       7.836   1.848  10.934  0.00  0.00    +0.000 C 
ATOM     21  C   UNL     1       6.345   1.514  10.861  0.00  0.00    +0.000 C 
ATOM     22  C   UNL     1       6.122   0.071  11.323  0.00  0.00    +0.000 C 
ENDBRANCH  19  21
ENDBRANCH  18  19
ENDBRANCH  14  18
ENDBRANCH   1  15
TORSDOF 4
ENDMDL
MODEL 4
REMARK VINA RESULT:      -7.6      1.008      1.293
REMARK  Name = 
REMARK  6 active torsions:
REMARK  status: ('A' for Active; 'I' for Inactive)
REMARK    1  A    between atoms: C_1  and  C_2
REMARK    2  A    between atoms: C_2  and  C_3
REMARK    3  A    between atoms: C_2  and  C_4
REMARK    4  A    between atoms: C_4  and  C_5
REMARK    5  A    between atoms: C_5  and  N_6
REMARK    6  A    between atoms: C_7  and  C_9
REMARK                            x       y       z     vdW  Elec       q    Type
REMARK                         _______ _______ _______ _____ _____    ______ ____
ROOT
ATOM      1  C   UNL     1       5.134   4.464  17.114  0.00  0.00    +0.000 A 
ATOM      2  C   UNL     1       3.791   4.347  17.116  0.00  0.00    +0.000 A 
ATOM      3  C   UNL     1       3.056   4.024  18.324  0.00  0.00    +0.000 A 
ATOM      4  C   UNL     1       3.712   3.837  19.483  0.00  0.00    +0.000 A 
ATOM      5  N   UNL     1       5.084   3.990  19.508  0.00  0.00    +0.000 N 
ATOM      6  C   UNL     1       5.856   4.301  18.411  0.00  0.00    +0.000 A 
ATOM      7  O   UNL     1       7.073   4.426  18.510  0.00  0.00    +0.000 OA
ATOM      8  C   UNL     1       3.055   3.464  20.786  0.00  0.00    +0.000 C 
ATOM      9  C   UNL     1       1.542   3.669  20.754  0.00  0.00    +0.000 C 
ATOM     10  C   UNL     1       0.952   3.105  19.473  0.00  0.00    +0.000 C 
ATOM     11  C   UNL     1       1.575   3.803  18.286  0.00  0.00    +0.000 C 
ATOM     12  O   UNL     1       0.911   4.116  17.301  0.00  0.00    +0.000 OA
ATOM     13  H   UNL     1       5.596   3.868  20.376  0.00  0.00    +0.000 HD
ENDROOT
BRANCH   1  15
ATOM     14  N   UNL     1       5.660   3.722  14.869  0.00  0.00    +0.000 N 
ATOM     15  C   UNL     1       5.815   4.708  15.809  0.00  0.00    +0.000 C 
ATOM     16  O   UNL     1       6.449   5.738  15.594  0.00  0.00    +0.000 OA
ATOM     17  H   UNL     1       5.158   2.872  15.124  0.00  0.00    +0.000 HD
BRANCH  14  18
ATOM     18  C   UNL     1       6.224   3.819  13.540  0.00  0.00    +0.000 C 
BRANCH  18  19
ATOM     19  C   UNL     1       5.181   4.179  12.481  0.00  0.00    +0.000 C 
BRANCH  19  21
ATOM     20  C   UNL     1       5.792   1.866  11.596  0.00  0.00    +0.000 C 
ATOM     21  C   UNL     1       5.111   3.201  11.290  0.00  0.00    +0.000 C 
ATOM     22  C   UNL     1       3.651   2.951  10.900  0.00  0.00    +0.000 C 
ENDBRANCH  19  21
ENDBRANCH  18  19
ENDBRANCH  14  18
ENDBRANCH   1  15
TORSDOF 4
ENDMDL
MODEL 5
REMARK VINA RESULT:      -7.4      3.522      3.885
REMARK  Name = 
REMARK  6 active torsions:
REMARK  status: ('A' for Active; 'I' for Inactive)
REMARK    1  A    between atoms: C_1  and  C_2
REMARK    2  A    between atoms: C_2  and  C_3
REMARK    3  A    between atoms: C_2  and  C_4
REMARK    4  A    between atoms: C_4  and  C_5
REMARK    5  A    between atoms: C_5  and  N_6
REMARK    6  A    between atoms: C_7  and  C_9
REMARK                            x       y       z     vdW  Elec       q    Type
REMARK                         _______ _______ _______ _____ _____    ______ ____
ROOT
ATOM      1  C   UNL     1       4.303   6.245  17.746  0.00  0.00    +0.000 A 
ATOM      2  C   UNL     1       3.608   7.389  17.579  0.00  0.00    +0.000 A 
ATOM      3  C   UNL     1       2.646   7.848  18.562  0.00  0.00    +0.000 A 
ATOM      4  C   UNL     1       2.431   7.131  19.680  0.00  0.00    +0.000 A 
ATOM      5  N   UNL     1       3.159   5.977  19.886  0.00  0.00    +0.000 N 
ATOM      6  C   UNL     1       4.094   5.475  19.008  0.00  0.00    +0.000 A 
ATOM      7  O   UNL     1       4.708   4.443  19.262  0.00  0.00    +0.000 OA
ATOM      8  C   UNL     1       1.432   7.494  20.747  0.00  0.00    +0.000 C 
ATOM      9  C   UNL     1       0.946   8.936  20.623  0.00  0.00    +0.000 C 
ATOM     10  C   UNL     1       0.593   9.260  19.180  0.00  0.00    +0.000 C 
ATOM     11  C   UNL     1       1.816   9.068  18.313  0.00  0.00    +0.000 C 
ATOM     12  O   UNL     1       2.083   9.843  17.396  0.00  0.00    +0.000 OA
ATOM     13  H   UNL     1       3.022   5.430  20.730  0.00  0.00    +0.000 HD
ENDROOT
BRANCH   1  15
ATOM     14  N   UNL     1       5.124   4.475  16.311  0.00  0.00    +0.000 N 
ATOM     15  C   UNL     1       5.203   5.803  16.641  0.00  0.00    +0.000 C 
ATOM     16  O   UNL     1       5.943   6.591  16.058  0.00  0.00    +0.000 OA
ATOM     17  H   UNL     1       4.522   3.864  16.864  0.00  0.00    +0.000 HD
BRANCH  14  18
ATOM     18  C   UNL     1       5.901   3.892  15.239  0.00  0.00    +0.000 C 
BRANCH  18  19
ATOM     19  C   UNL     1       5.411   4.320  13.855  0.00  0.00    +0.000 C 
BRANCH  19  21
ATOM     20  C   UNL     1       4.711   3.176  11.686  0.00  0.00    +0.000 C 
ATOM     21  C   UNL     1       5.832   3.383  12.705  0.00  0.00    +0.000 C 
ATOM     22  C   UNL     1       7.068   3.944  11.996  0.00  0.00    +0.000 C 
ENDBRANCH  19  21
ENDBRANCH  18  19
ENDBRANCH  14  18
ENDBRANCH   1  15
TORSDOF 4
ENDMDL
MODEL 6
REMARK VINA RESULT:      -7.3      4.089      5.774
REMARK  Name = 
REMARK  6 active torsions:
REMARK  status: ('A' for Active; 'I' for Inactive)
REMARK    1  A    between atoms: C_1  and  C_2
REMARK    2  A    between atoms: C_2  and  C_3
REMARK    3  A    between atoms: C_2  and  C_4
REMARK    4  A    between atoms: C_4  and  C_5
REMARK    5  A    between atoms: C_5  and  N_6
REMARK    6  A    between atoms: C_7  and  C_9
REMARK                            x       y       z     vdW  Elec       q    Type
REMARK                         _______ _______ _______ _____ _____    ______ ____
ROOT
ATOM      1  C   UNL     1       6.309   5.964  17.753  0.00  0.00    +0.000 A 
ATOM      2  C   UNL     1       4.984   6.213  17.779  0.00  0.00    +0.000 A 
ATOM      3  C   UNL     1       4.023   5.191  18.144  0.00  0.00    +0.000 A 
ATOM      4  C   UNL     1       4.444   3.957  18.473  0.00  0.00    +0.000 A 
ATOM      5  N   UNL     1       5.799   3.692  18.488  0.00  0.00    +0.000 N 
ATOM      6  C   UNL     1       6.776   4.606  18.161  0.00  0.00    +0.000 A 
ATOM      7  O   UNL     1       7.964   4.300  18.202  0.00  0.00    +0.000 OA
ATOM      8  C   UNL     1       3.534   2.812  18.832  0.00  0.00    +0.000 C 
ATOM      9  C   UNL     1       2.111   3.274  19.141  0.00  0.00    +0.000 C 
ATOM     10  C   UNL     1       1.630   4.262  18.092  0.00  0.00    +0.000 C 
ATOM     11  C   UNL     1       2.552   5.460  18.074  0.00  0.00    +0.000 C 
ATOM     12  O   UNL     1       2.120   6.603  17.940  0.00  0.00    +0.000 OA
ATOM     13  H   UNL     1       6.137   2.772  18.748  0.00  0.00    +0.000 HD
ENDROOT
BRANCH   1  15
ATOM     14  N   UNL     1       7.312   8.142  18.096  0.00  0.00    +0.000 N 
ATOM     15  C   UNL     1       7.218   7.047  17.276  0.00  0.00    +0.000 C 
ATOM     16  O   UNL     1       7.854   6.942  16.230  0.00  0.00    +0.000 OA
ATOM     17  H   UNL     1       6.725   8.187  18.928  0.00  0.00    +0.000 HD
BRANCH  14  18
ATOM     18  C   UNL     1       8.176   9.264  17.798  0.00  0.00    +0.000 C 
BRANCH  18  19
ATOM     19  C   UNL     1       9.111   9.612  18.958  0.00  0.00    +0.000 C 
BRANCH  19  21
ATOM     20  C   UNL     1       9.954  11.479  20.477  0.00  0.00    +0.000 C 
ATOM     21  C   UNL     1       9.456  11.110  19.078  0.00  0.00    +0.000 C 
ATOM     22  C   UNL     1      10.517  11.490  18.042  0.00  0.00    +0.000 C 
ENDBRANCH  19  21
ENDBRANCH  18  19
ENDBRANCH  14  18
ENDBRANCH   1  15
TORSDOF 4
ENDMDL
MODEL 7
REMARK VINA RESULT:      -7.3      3.669      5.292
REMARK  Name = 
REMARK  6 active torsions:
REMARK  status: ('A' for Active; 'I' for Inactive)
REMARK    1  A    between atoms: C_1  and  C_2
REMARK    2  A    between atoms: C_2  and  C_3
REMARK    3  A    between atoms: C_2  and  C_4
REMARK    4  A    between atoms: C_4  and  C_5
REMARK    5  A    between atoms: C_5  and  N_6
REMARK    6  A    between atoms: C_7  and  C_9
REMARK                            x       y       z     vdW  Elec       q    Type
REMARK                         _______ _______ _______ _____ _____    ______ ____
ROOT
ATOM      1  C   UNL     1       5.704   5.679  17.866  0.00  0.00    +0.000 A 
ATOM      2  C   UNL     1       4.363   5.563  17.783  0.00  0.00    +0.000 A 
ATOM      3  C   UNL     1       3.666   4.391  18.277  0.00  0.00    +0.000 A 
ATOM      4  C   UNL     1       4.357   3.385  18.841  0.00  0.00    +0.000 A 
ATOM      5  N   UNL     1       5.727   3.501  18.969  0.00  0.00    +0.000 N 
ATOM      6  C   UNL     1       6.463   4.579  18.533  0.00  0.00    +0.000 A 
ATOM      7  O   UNL     1       7.680   4.616  18.686  0.00  0.00    +0.000 OA
ATOM      8  C   UNL     1       3.741   2.109  19.353  0.00  0.00    +0.000 C 
ATOM      9  C   UNL     1       2.225   2.214  19.504  0.00  0.00    +0.000 C 
ATOM     10  C   UNL     1       1.608   2.857  18.273  0.00  0.00    +0.000 C 
ATOM     11  C   UNL     1       2.189   4.240  18.088  0.00  0.00    +0.000 C 
ATOM     12  O   UNL     1       1.492   5.188  17.731  0.00  0.00    +0.000 OA
ATOM     13  H   UNL     1       6.264   2.759  19.405  0.00  0.00    +0.000 HD
ENDROOT
BRANCH   1  15
ATOM     14  N   UNL     1       7.380   7.425  17.961  0.00  0.00    +0.000 N 
ATOM     15  C   UNL     1       6.345   6.877  17.250  0.00  0.00    +0.000 C 
ATOM     16  O   UNL     1       5.976   7.318  16.164  0.00  0.00    +0.000 OA
ATOM     17  H   UNL     1       7.609   7.038  18.877  0.00  0.00    +0.000 HD
BRANCH  14  18
ATOM     18  C   UNL     1       8.132   8.566  17.486  0.00  0.00    +0.000 C 
BRANCH  18  19
ATOM     19  C   UNL     1       8.545   9.512  18.615  0.00  0.00    +0.000 C 
BRANCH  19  21
ATOM     20  C   UNL     1       8.570  11.918  17.769  0.00  0.00    +0.000 C 
ATOM     21  C   UNL     1       9.413  10.705  18.168  0.00  0.00    +0.000 C 
ATOM     22  C   UNL     1      10.378  11.102  19.289  0.00  0.00    +0.000 C 
ENDBRANCH  19  21
ENDBRANCH  18  19
ENDBRANCH  14  18
ENDBRANCH   1  15
TORSDOF 4
ENDMDL
MODEL 8
REMARK VINA RESULT:      -7.3      1.642      2.132
REMARK  Name = 
REMARK  6 active torsions:
REMARK  status: ('A' for Active; 'I' for Inactive)
REMARK    1  A    between atoms: C_1  and  C_2
REMARK    2  A    between atoms: C_2  and  C_3
REMARK    3  A    between atoms: C_2  and  C_4
REMARK    4  A    between atoms: C_4  and  C_5
REMARK    5  A    between atoms: C_5  and  N_6
REMARK    6  A    between atoms: C_7  and  C_9
REMARK                            x       y       z     vdW  Elec       q    Type
REMARK                         _______ _______ _______ _____ _____    ______ ____
ROOT
ATOM      1  C   UNL     1       5.326   4.857  16.046  0.00  0.00    +0.000 A 
ATOM      2  C   UNL     1       4.456   3.939  16.515  0.00  0.00    +0.000 A 
ATOM      3  C   UNL     1       3.642   4.191  17.689  0.00  0.00    +0.000 A 
ATOM      4  C   UNL     1       3.738   5.366  18.336  0.00  0.00    +0.000 A 
ATOM      5  N   UNL     1       4.595   6.331  17.849  0.00  0.00    +0.000 N 
ATOM      6  C   UNL     1       5.398   6.176  16.741  0.00  0.00    +0.000 A 
ATOM      7  O   UNL     1       6.133   7.083  16.362  0.00  0.00    +0.000 OA
ATOM      8  C   UNL     1       2.968   5.719  19.582  0.00  0.00    +0.000 C 
ATOM      9  C   UNL     1       1.804   4.764  19.838  0.00  0.00    +0.000 C 
ATOM     10  C   UNL     1       2.246   3.321  19.660  0.00  0.00    +0.000 C 
ATOM     11  C   UNL     1       2.754   3.124  18.250  0.00  0.00    +0.000 C 
ATOM     12  O   UNL     1       2.507   2.102  17.614  0.00  0.00    +0.000 OA
ATOM     13  H   UNL     1       4.671   7.230  18.315  0.00  0.00    +0.000 HD
ENDROOT
BRANCH   1  15
ATOM     14  N   UNL     1       5.538   3.898  13.831  0.00  0.00    +0.000 N 
ATOM     15  C   UNL     1       6.189   4.478  14.889  0.00  0.00    +0.000 C 
ATOM     16  O   UNL     1       7.398   4.699  14.888  0.00  0.00    +0.000 OA
ATOM     17  H   UNL     1       4.541   3.702  13.913  0.00  0.00    +0.000 HD
BRANCH  14  18
ATOM     18  C   UNL     1       6.223   3.506  12.619  0.00  0.00    +0.000 C 
BRANCH  18  19
ATOM     19  C   UNL     1       5.437   2.476  11.805  0.00  0.00    +0.000 C 
BRANCH  19  21
ATOM     20  C   UNL     1       7.788   1.931  10.978  0.00  0.00    +0.000 C 
ATOM     21  C   UNL     1       6.305   1.560  10.918  0.00  0.00    +0.000 C 
ATOM     22  C   UNL     1       6.128   0.099  11.340  0.00  0.00    +0.000 C 
ENDBRANCH  19  21
ENDBRANCH  18  19
ENDBRANCH  14  18
ENDBRANCH   1  15
TORSDOF 4
ENDMDL
MODEL 9
REMARK VINA RESULT:      -7.3      1.692      2.257
REMARK  Name = 
REMARK  6 active torsions:
REMARK  status: ('A' for Active; 'I' for Inactive)
REMARK    1  A    between atoms: C_1  and  C_2
REMARK    2  A    between atoms: C_2  and  C_3
REMARK    3  A    between atoms: C_2  and  C_4
REMARK    4  A    between atoms: C_4  and  C_5
REMARK    5  A    between atoms: C_5  and  N_6
REMARK    6  A    between atoms: C_7  and  C_9
REMARK                            x       y       z     vdW  Elec       q    Type
REMARK                         _______ _______ _______ _____ _____    ______ ____
ROOT
ATOM      1  C   UNL     1       4.714   4.795  17.102  0.00  0.00    +0.000 A 
ATOM      2  C   UNL     1       4.121   3.715  17.652  0.00  0.00    +0.000 A 
ATOM      3  C   UNL     1       3.145   3.841  18.717  0.00  0.00    +0.000 A 
ATOM      4  C   UNL     1       2.805   5.057  19.179  0.00  0.00    +0.000 A 
ATOM      5  N   UNL     1       3.373   6.176  18.604  0.00  0.00    +0.000 N 
ATOM      6  C   UNL     1       4.301   6.145  17.587  0.00  0.00    +0.000 A 
ATOM      7  O   UNL     1       4.760   7.184  17.121  0.00  0.00    +0.000 OA
ATOM      8  C   UNL     1       1.832   5.301  20.303  0.00  0.00    +0.000 C 
ATOM      9  C   UNL     1       0.996   4.065  20.628  0.00  0.00    +0.000 C 
ATOM     10  C   UNL     1       1.875   2.828  20.705  0.00  0.00    +0.000 C 
ATOM     11  C   UNL     1       2.571   2.626  19.379  0.00  0.00    +0.000 C 
ATOM     12  O   UNL     1       2.721   1.507  18.894  0.00  0.00    +0.000 OA
ATOM     13  H   UNL     1       3.118   7.102  18.929  0.00  0.00    +0.000 HD
ENDROOT
BRANCH   1  15
ATOM     14  N   UNL     1       5.396   4.791  14.778  0.00  0.00    +0.000 N 
ATOM     15  C   UNL     1       5.774   4.568  16.077  0.00  0.00    +0.000 C 
ATOM     16  O   UNL     1       6.912   4.228  16.390  0.00  0.00    +0.000 OA
ATOM     17  H   UNL     1       4.425   5.029  14.581  0.00  0.00    +0.000 HD
BRANCH  14  18
ATOM     18  C   UNL     1       6.313   4.652  13.668  0.00  0.00    +0.000 C 
BRANCH  18  19
ATOM     19  C   UNL     1       6.415   3.212  13.163  0.00  0.00    +0.000 C 
BRANCH  19  21
ATOM     20  C   UNL     1       6.120   1.563  11.239  0.00  0.00    +0.000 C 
ATOM     21  C   UNL     1       5.894   2.995  11.728  0.00  0.00    +0.000 C 
ATOM     22  C   UNL     1       4.401   3.329  11.654  0.00  0.00    +0.000 C 
ENDBRANCH  19  21
ENDBRANCH  18  19
ENDBRANCH  14  18
ENDBRANCH   1  15
TORSDOF 4
ENDMDL
