MODEL 1
REMARK VINA RESULT:      -8.5      0.000      0.000
REMARK  Name = 
REMARK  2 active torsions:
REMARK  status: ('A' for Active; 'I' for Inactive)
REMARK    1  A    between atoms: C_1  and  N_2
REMARK    2  A    between atoms: C_10  and  C_11
REMARK                            x       y       z     vdW  Elec       q    Type
REMARK                         _______ _______ _______ _____ _____    ______ ____
ROOT
ATOM      1  C   UNL     1       2.937   2.931  19.496  0.00  0.00    +0.000 C 
ATOM      2  N   UNL     1       3.587   4.181  19.131  0.00  0.00    +0.000 NA
ATOM      3  C   UNL     1       5.040   4.127  19.346  0.00  0.00    +0.000 C 
ATOM      4  C   UNL     1       5.814   5.295  18.761  0.00  0.00    +0.000 A 
ATOM      5  C   UNL     1       7.153   5.488  19.137  0.00  0.00    +0.000 A 
ATOM      6  C   UNL     1       7.915   6.503  18.558  0.00  0.00    +0.000 A 
ATOM      7  C   UNL     1       7.357   7.330  17.587  0.00  0.00    +0.000 A 
ATOM      8  C   UNL     1       6.025   7.163  17.214  0.00  0.00    +0.000 A 
ATOM      9  C   UNL     1       5.244   6.154  17.801  0.00  0.00    +0.000 A 
ATOM     10  C   UNL     1       3.770   6.025  17.447  0.00  0.00    +0.000 C 
ATOM     11  C   UNL     1       3.267   4.587  17.753  0.00  0.00    +0.000 C 
ENDROOT
BRANCH  10  12
ATOM     12  C   UNL     1       2.913   7.094  18.135  0.00  0.00    +0.000 A 
ATOM     13  C   UNL     1       2.520   8.257  17.454  0.00  0.00    +0.000 A 
ATOM     14  C   UNL     1       1.779   9.270  18.067  0.00  0.00    +0.000 A 
ATOM     15  C   UNL     1       1.413   9.076  19.395  0.00  0.00    +0.000 A 
ATOM     16  N   UNL     1       0.697   9.891  20.240  0.00  0.00    +0.000 N 
ATOM     17  C   UNL     1       0.554   9.291  21.460  0.00  0.00    +0.000 A 
ATOM     18  C   UNL     1       1.195   8.077  21.413  0.00  0.00    +0.000 A 
ATOM     19  C   UNL     1       1.751   7.927  20.112  0.00  0.00    +0.000 A 
ATOM     20  C   UNL     1       2.514   6.924  19.475  0.00  0.00    +0.000 A 
ATOM     21  H   UNL     1       0.331  10.797  19.983  0.00  0.00    +0.000 HD
ENDBRANCH  10  12
TORSDOF 1
ENDMDL
MODEL 2
REMARK VINA RESULT:      -8.4      1.653      3.861
REMARK  Name = 
REMARK  2 active torsions:
REMARK  status: ('A' for Active; 'I' for Inactive)
REMARK    1  A    between atoms: C_1  and  N_2
REMARK    2  A    between atoms: C_10  and  C_11
REMARK                            x       y       z     vdW  Elec       q    Type
REMARK                         _______ _______ _______ _____ _____    ______ ____
ROOT
ATOM      1  C   UNL     1       5.395   5.684  16.361  0.00  0.00    +0.000 C 
ATOM      2  N   UNL     1       4.250   5.535  17.248  0.00  0.00    +0.000 NA
ATOM      3  C   UNL     1       3.629   4.209  17.123  0.00  0.00    +0.000 C 
ATOM      4  C   UNL     1       2.591   3.890  18.185  0.00  0.00    +0.000 A 
ATOM      5  C   UNL     1       1.748   2.782  18.007  0.00  0.00    +0.000 A 
ATOM      6  C   UNL     1       0.837   2.414  19.000  0.00  0.00    +0.000 A 
ATOM      7  C   UNL     1       0.766   3.139  20.187  0.00  0.00    +0.000 A 
ATOM      8  C   UNL     1       1.584   4.252  20.371  0.00  0.00    +0.000 A 
ATOM      9  C   UNL     1       2.493   4.640  19.373  0.00  0.00    +0.000 A 
ATOM     10  C   UNL     1       3.329   5.898  19.548  0.00  0.00    +0.000 C 
ATOM     11  C   UNL     1       4.594   5.834  18.648  0.00  0.00    +0.000 C 
ENDROOT
BRANCH  10  12
ATOM     12  C   UNL     1       2.513   7.174  19.305  0.00  0.00    +0.000 A 
ATOM     13  C   UNL     1       2.466   7.774  18.037  0.00  0.00    +0.000 A 
ATOM     14  C   UNL     1       1.770   8.960  17.795  0.00  0.00    +0.000 A 
ATOM     15  C   UNL     1       1.089   9.529  18.868  0.00  0.00    +0.000 A 
ATOM     16  N   UNL     1       0.334  10.677  18.924  0.00  0.00    +0.000 N 
ATOM     17  C   UNL     1      -0.169  10.846  20.183  0.00  0.00    +0.000 A 
ATOM     18  C   UNL     1       0.274   9.802  20.960  0.00  0.00    +0.000 A 
ATOM     19  C   UNL     1       1.078   8.961  20.142  0.00  0.00    +0.000 A 
ATOM     20  C   UNL     1       1.802   7.769  20.365  0.00  0.00    +0.000 A 
ATOM     21  H   UNL     1       0.179  11.295  18.140  0.00  0.00    +0.000 HD
ENDBRANCH  10  12
TORSDOF 1
ENDMDL
MODEL 3
REMARK VINA RESULT:      -8.2      0.609      1.529
REMARK  Name = 
REMARK  2 active torsions:
REMARK  status: ('A' for Active; 'I' for Inactive)
REMARK    1  A    between atoms: C_1  and  N_2
REMARK    2  A    between atoms: C_10  and  C_11
REMARK                            x       y       z     vdW  Elec       q    Type
REMARK                         _______ _______ _______ _____ _____    ______ ____
ROOT
ATOM      1  C   UNL     1       2.891   2.739  19.184  0.00  0.00    +0.000 C 
ATOM      2  N   UNL     1       3.538   4.019  18.935  0.00  0.00    +0.000 NA
ATOM      3  C   UNL     1       4.999   3.931  19.074  0.00  0.00    +0.000 C 
ATOM      4  C   UNL     1       5.759   5.154  18.591  0.00  0.00    +0.000 A 
ATOM      5  C   UNL     1       7.116   5.294  18.924  0.00  0.00    +0.000 A 
ATOM      6  C   UNL     1       7.863   6.364  18.430  0.00  0.00    +0.000 A 
ATOM      7  C   UNL     1       7.270   7.301  17.588  0.00  0.00    +0.000 A 
ATOM      8  C   UNL     1       5.920   7.187  17.261  0.00  0.00    +0.000 A 
ATOM      9  C   UNL     1       5.155   6.122  17.764  0.00  0.00    +0.000 A 
ATOM     10  C   UNL     1       3.665   6.044  17.468  0.00  0.00    +0.000 C 
ATOM     11  C   UNL     1       3.160   4.584  17.630  0.00  0.00    +0.000 C 
ENDROOT
BRANCH  10  12
ATOM     12  C   UNL     1       2.854   7.032  18.313  0.00  0.00    +0.000 A 
ATOM     13  C   UNL     1       2.515   6.740  19.644  0.00  0.00    +0.000 A 
ATOM     14  C   UNL     1       1.738   7.599  20.425  0.00  0.00    +0.000 A 
ATOM     15  C   UNL     1       1.320   8.790  19.839  0.00  0.00    +0.000 A 
ATOM     16  N   UNL     1       0.557   9.808  20.359  0.00  0.00    +0.000 N 
ATOM     17  C   UNL     1       0.407  10.802  19.433  0.00  0.00    +0.000 A 
ATOM     18  C   UNL     1       1.072  10.421  18.292  0.00  0.00    +0.000 A 
ATOM     19  C   UNL     1       1.651   9.144  18.530  0.00  0.00    +0.000 A 
ATOM     20  C   UNL     1       2.425   8.253  17.756  0.00  0.00    +0.000 A 
ATOM     21  H   UNL     1       0.171   9.811  21.293  0.00  0.00    +0.000 HD
ENDBRANCH  10  12
TORSDOF 1
ENDMDL
MODEL 4
REMARK VINA RESULT:      -7.6      1.761      3.845
REMARK  Name = 
REMARK  2 active torsions:
REMARK  status: ('A' for Active; 'I' for Inactive)
REMARK    1  A    between atoms: C_1  and  N_2
REMARK    2  A    between atoms: C_10  and  C_11
REMARK                            x       y       z     vdW  Elec       q    Type
REMARK                         _______ _______ _______ _____ _____    ______ ____
ROOT
ATOM      1  C   UNL     1       5.410   4.016  16.164  0.00  0.00    +0.000 C 
ATOM      2  N   UNL     1       4.443   4.279  17.220  0.00  0.00    +0.000 NA
ATOM      3  C   UNL     1       3.681   3.074  17.578  0.00  0.00    +0.000 C 
ATOM      4  C   UNL     1       2.834   3.206  18.832  0.00  0.00    +0.000 A 
ATOM      5  C   UNL     1       1.867   2.227  19.112  0.00  0.00    +0.000 A 
ATOM      6  C   UNL     1       1.128   2.276  20.295  0.00  0.00    +0.000 A 
ATOM      7  C   UNL     1       1.352   3.293  21.219  0.00  0.00    +0.000 A 
ATOM      8  C   UNL     1       2.296   4.281  20.949  0.00  0.00    +0.000 A 
ATOM      9  C   UNL     1       3.036   4.251  19.755  0.00  0.00    +0.000 A 
ATOM     10  C   UNL     1       4.010   5.373  19.430  0.00  0.00    +0.000 C 
ATOM     11  C   UNL     1       5.070   4.885  18.405  0.00  0.00    +0.000 C 
ENDROOT
BRANCH  10  12
ATOM     12  C   UNL     1       3.293   6.643  18.958  0.00  0.00    +0.000 A 
ATOM     13  C   UNL     1       3.585   7.220  17.712  0.00  0.00    +0.000 A 
ATOM     14  C   UNL     1       2.983   8.402  17.274  0.00  0.00    +0.000 A 
ATOM     15  C   UNL     1       2.046   8.990  18.118  0.00  0.00    +0.000 A 
ATOM     16  N   UNL     1       1.309  10.139  17.953  0.00  0.00    +0.000 N 
ATOM     17  C   UNL     1       0.491  10.331  19.032  0.00  0.00    +0.000 A 
ATOM     18  C   UNL     1       0.709   9.301  19.916  0.00  0.00    +0.000 A 
ATOM     19  C   UNL     1       1.696   8.445  19.355  0.00  0.00    +0.000 A 
ATOM     20  C   UNL     1       2.330   7.258  19.782  0.00  0.00    +0.000 A 
ATOM     21  H   UNL     1       1.368  10.742  17.144  0.00  0.00    +0.000 HD
ENDBRANCH  10  12
TORSDOF 1
ENDMDL
MODEL 5
REMARK VINA RESULT:      -7.6      1.661      4.216
REMARK  Name = 
REMARK  2 active torsions:
REMARK  status: ('A' for Active; 'I' for Inactive)
REMARK    1  A    between atoms: C_1  and  N_2
REMARK    2  A    between atoms: C_10  and  C_11
REMARK                            x       y       z     vdW  Elec       q    Type
REMARK                         _______ _______ _______ _____ _____    ______ ____
ROOT
ATOM      1  C   UNL     1       5.112   6.015  16.556  0.00  0.00    +0.000 C 
ATOM      2  N   UNL     1       4.035   5.703  17.483  0.00  0.00    +0.000 NA
ATOM      3  C   UNL     1       3.414   4.404  17.184  0.00  0.00    +0.000 C 
ATOM      4  C   UNL     1       2.456   3.897  18.248  0.00  0.00    +0.000 A 
ATOM      5  C   UNL     1       1.608   2.819  17.949  0.00  0.00    +0.000 A 
ATOM      6  C   UNL     1       0.773   2.277  18.928  0.00  0.00    +0.000 A 
ATOM      7  C   UNL     1       0.783   2.796  20.220  0.00  0.00    +0.000 A 
ATOM      8  C   UNL     1       1.606   3.876  20.529  0.00  0.00    +0.000 A 
ATOM      9  C   UNL     1       2.439   4.439  19.548  0.00  0.00    +0.000 A 
ATOM     10  C   UNL     1       3.279   5.666  19.869  0.00  0.00    +0.000 C 
ATOM     11  C   UNL     1       4.476   5.772  18.885  0.00  0.00    +0.000 C 
ENDROOT
BRANCH  10  12
ATOM     12  C   UNL     1       2.440   6.950  19.899  0.00  0.00    +0.000 A 
ATOM     13  C   UNL     1       1.725   7.323  21.047  0.00  0.00    +0.000 A 
ATOM     14  C   UNL     1       0.916   8.460  21.089  0.00  0.00    +0.000 A 
ATOM     15  C   UNL     1       0.859   9.244  19.941  0.00  0.00    +0.000 A 
ATOM     16  N   UNL     1       0.156  10.400  19.697  0.00  0.00    +0.000 N 
ATOM     17  C   UNL     1       0.412  10.846  18.430  0.00  0.00    +0.000 A 
ATOM     18  C   UNL     1       1.283   9.962  17.838  0.00  0.00    +0.000 A 
ATOM     19  C   UNL     1       1.572   8.937  18.781  0.00  0.00    +0.000 A 
ATOM     20  C   UNL     1       2.370   7.773  18.758  0.00  0.00    +0.000 A 
ATOM     21  H   UNL     1      -0.455  10.848  20.366  0.00  0.00    +0.000 HD
ENDBRANCH  10  12
TORSDOF 1
ENDMDL
MODEL 6
REMARK VINA RESULT:      -7.5      2.329      5.983
REMARK  Name = 
REMARK  2 active torsions:
REMARK  status: ('A' for Active; 'I' for Inactive)
REMARK    1  A    between atoms: C_1  and  N_2
REMARK    2  A    between atoms: C_10  and  C_11
REMARK                            x       y       z     vdW  Elec       q    Type
REMARK                         _______ _______ _______ _____ _____    ______ ____
ROOT
ATOM      1  C   UNL     1       1.822   8.499  19.741  0.00  0.00    +0.000 C 
ATOM      2  N   UNL     1       2.231   7.120  19.517  0.00  0.00    +0.000 NA
ATOM      3  C   UNL     1       1.947   6.269  20.682  0.00  0.00    +0.000 C 
ATOM      4  C   UNL     1       2.116   4.779  20.437  0.00  0.00    +0.000 A 
ATOM      5  C   UNL     1       2.138   3.903  21.533  0.00  0.00    +0.000 A 
ATOM      6  C   UNL     1       2.212   2.523  21.339  0.00  0.00    +0.000 A 
ATOM      7  C   UNL     1       2.250   1.999  20.050  0.00  0.00    +0.000 A 
ATOM      8  C   UNL     1       2.245   2.856  18.951  0.00  0.00    +0.000 A 
ATOM      9  C   UNL     1       2.186   4.247  19.135  0.00  0.00    +0.000 A 
ATOM     10  C   UNL     1       2.258   5.180  17.936  0.00  0.00    +0.000 C 
ATOM     11  C   UNL     1       1.642   6.561  18.291  0.00  0.00    +0.000 C 
ENDROOT
BRANCH  10  12
ATOM     12  C   UNL     1       3.684   5.309  17.387  0.00  0.00    +0.000 A 
ATOM     13  C   UNL     1       4.603   6.204  17.958  0.00  0.00    +0.000 A 
ATOM     14  C   UNL     1       5.893   6.377  17.452  0.00  0.00    +0.000 A 
ATOM     15  C   UNL     1       6.256   5.601  16.355  0.00  0.00    +0.000 A 
ATOM     16  N   UNL     1       7.440   5.562  15.656  0.00  0.00    +0.000 N 
ATOM     17  C   UNL     1       7.364   4.632  14.657  0.00  0.00    +0.000 A 
ATOM     18  C   UNL     1       6.111   4.068  14.698  0.00  0.00    +0.000 A 
ATOM     19  C   UNL     1       5.394   4.676  15.765  0.00  0.00    +0.000 A 
ATOM     20  C   UNL     1       4.090   4.530  16.286  0.00  0.00    +0.000 A 
ATOM     21  H   UNL     1       8.244   6.139  15.864  0.00  0.00    +0.000 HD
ENDBRANCH  10  12
TORSDOF 1
ENDMDL
MODEL 7
REMARK VINA RESULT:      -7.4      1.882      5.524
REMARK  Name = 
REMARK  2 active torsions:
REMARK  status: ('A' for Active; 'I' for Inactive)
REMARK    1  A    between atoms: C_1  and  N_2
REMARK    2  A    between atoms: C_10  and  C_11
REMARK                            x       y       z     vdW  Elec       q    Type
REMARK                         _______ _______ _______ _____ _____    ______ ____
ROOT
ATOM      1  C   UNL     1       1.528   8.403  20.867  0.00  0.00    +0.000 C 
ATOM      2  N   UNL     1       1.927   7.168  20.207  0.00  0.00    +0.000 NA
ATOM      3  C   UNL     1       1.312   5.989  20.833  0.00  0.00    +0.000 C 
ATOM      4  C   UNL     1       1.481   4.695  20.056  0.00  0.00    +0.000 A 
ATOM      5  C   UNL     1       1.179   3.475  20.681  0.00  0.00    +0.000 A 
ATOM      6  C   UNL     1       1.247   2.275  19.971  0.00  0.00    +0.000 A 
ATOM      7  C   UNL     1       1.603   2.279  18.625  0.00  0.00    +0.000 A 
ATOM      8  C   UNL     1       1.921   3.480  17.993  0.00  0.00    +0.000 A 
ATOM      9  C   UNL     1       1.871   4.691  18.702  0.00  0.00    +0.000 A 
ATOM     10  C   UNL     1       2.293   5.989  18.030  0.00  0.00    +0.000 C 
ATOM     11  C   UNL     1       1.660   7.204  18.761  0.00  0.00    +0.000 C 
ENDROOT
BRANCH  10  12
ATOM     12  C   UNL     1       3.817   6.114  17.917  0.00  0.00    +0.000 A 
ATOM     13  C   UNL     1       4.415   6.690  16.785  0.00  0.00    +0.000 A 
ATOM     14  C   UNL     1       5.800   6.775  16.632  0.00  0.00    +0.000 A 
ATOM     15  C   UNL     1       6.587   6.284  17.669  0.00  0.00    +0.000 A 
ATOM     16  N   UNL     1       7.956   6.235  17.791  0.00  0.00    +0.000 N 
ATOM     17  C   UNL     1       8.301   5.684  18.993  0.00  0.00    +0.000 A 
ATOM     18  C   UNL     1       7.142   5.359  19.657  0.00  0.00    +0.000 A 
ATOM     19  C   UNL     1       6.046   5.727  18.829  0.00  0.00    +0.000 A 
ATOM     20  C   UNL     1       4.643   5.638  18.953  0.00  0.00    +0.000 A 
ATOM     21  H   UNL     1       8.602   6.566  17.087  0.00  0.00    +0.000 HD
ENDBRANCH  10  12
TORSDOF 1
ENDMDL
MODEL 8
REMARK VINA RESULT:      -7.2      2.064      2.963
REMARK  Name = 
REMARK  2 active torsions:
REMARK  status: ('A' for Active; 'I' for Inactive)
REMARK    1  A    between atoms: C_1  and  N_2
REMARK    2  A    between atoms: C_10  and  C_11
REMARK                            x       y       z     vdW  Elec       q    Type
REMARK                         _______ _______ _______ _____ _____    ______ ____
ROOT
ATOM      1  C   UNL     1       7.886   5.482  20.184  0.00  0.00    +0.000 C 
ATOM      2  N   UNL     1       6.963   5.430  19.060  0.00  0.00    +0.000 NA
ATOM      3  C   UNL     1       7.664   5.213  17.786  0.00  0.00    +0.000 C 
ATOM      4  C   UNL     1       6.759   4.902  16.606  0.00  0.00    +0.000 A 
ATOM      5  C   UNL     1       7.287   4.948  15.307  0.00  0.00    +0.000 A 
ATOM      6  C   UNL     1       6.504   4.590  14.208  0.00  0.00    +0.000 A 
ATOM      7  C   UNL     1       5.190   4.168  14.393  0.00  0.00    +0.000 A 
ATOM      8  C   UNL     1       4.646   4.132  15.675  0.00  0.00    +0.000 A 
ATOM      9  C   UNL     1       5.420   4.505  16.786  0.00  0.00    +0.000 A 
ATOM     10  C   UNL     1       4.798   4.537  18.174  0.00  0.00    +0.000 C 
ATOM     11  C   UNL     1       5.903   4.430  19.261  0.00  0.00    +0.000 C 
ENDROOT
BRANCH  10  12
ATOM     12  C   UNL     1       3.904   5.766  18.380  0.00  0.00    +0.000 A 
ATOM     13  C   UNL     1       3.838   6.784  17.416  0.00  0.00    +0.000 A 
ATOM     14  C   UNL     1       3.069   7.936  17.595  0.00  0.00    +0.000 A 
ATOM     15  C   UNL     1       2.336   8.036  18.774  0.00  0.00    +0.000 A 
ATOM     16  N   UNL     1       1.506   9.040  19.214  0.00  0.00    +0.000 N 
ATOM     17  C   UNL     1       0.973   8.710  20.429  0.00  0.00    +0.000 A 
ATOM     18  C   UNL     1       1.472   7.480  20.789  0.00  0.00    +0.000 A 
ATOM     19  C   UNL     1       2.342   7.041  19.754  0.00  0.00    +0.000 A 
ATOM     20  C   UNL     1       3.139   5.893  19.556  0.00  0.00    +0.000 A 
ATOM     21  H   UNL     1       1.323   9.892  18.702  0.00  0.00    +0.000 HD
ENDBRANCH  10  12
TORSDOF 1
ENDMDL
MODEL 9
REMARK VINA RESULT:      -7.1      3.981      7.146
REMARK  Name = 
REMARK  2 active torsions:
REMARK  status: ('A' for Active; 'I' for Inactive)
REMARK    1  A    between atoms: C_1  and  N_2
REMARK    2  A    between atoms: C_10  and  C_11
REMARK                            x       y       z     vdW  Elec       q    Type
REMARK                         _______ _______ _______ _____ _____    ______ ____
ROOT
ATOM      1  C   UNL     1       2.254   8.597  17.745  0.00  0.00    +0.000 C 
ATOM      2  N   UNL     1       1.258   9.175  18.635  0.00  0.00    +0.000 NA
ATOM      3  C   UNL     1       1.398   8.677  20.011  0.00  0.00    +0.000 C 
ATOM      4  C   UNL     1       0.561   9.414  21.043  0.00  0.00    +0.000 A 
ATOM      5  C   UNL     1       0.406   8.859  22.323  0.00  0.00    +0.000 A 
ATOM      6  C   UNL     1      -0.290   9.548  23.318  0.00  0.00    +0.000 A 
ATOM      7  C   UNL     1      -0.827  10.805  23.053  0.00  0.00    +0.000 A 
ATOM      8  C   UNL     1      -0.696  11.363  21.783  0.00  0.00    +0.000 A 
ATOM      9  C   UNL     1      -0.011  10.672  20.770  0.00  0.00    +0.000 A 
ATOM     10  C   UNL     1       0.063  11.251  19.365  0.00  0.00    +0.000 C 
ATOM     11  C   UNL     1       1.270  10.646  18.597  0.00  0.00    +0.000 C 
ENDROOT
BRANCH  10  12
ATOM     12  C   UNL     1      -1.253  11.079  18.597  0.00  0.00    +0.000 A 
ATOM     13  C   UNL     1      -1.326  10.265  17.456  0.00  0.00    +0.000 A 
ATOM     14  C   UNL     1      -2.498  10.125  16.710  0.00  0.00    +0.000 A 
ATOM     15  C   UNL     1      -3.623  10.814  17.155  0.00  0.00    +0.000 A 
ATOM     16  N   UNL     1      -4.891  10.864  16.627  0.00  0.00    +0.000 N 
ATOM     17  C   UNL     1      -5.692  11.653  17.405  0.00  0.00    +0.000 A 
ATOM     18  C   UNL     1      -4.931  12.132  18.445  0.00  0.00    +0.000 A 
ATOM     19  C   UNL     1      -3.615  11.614  18.298  0.00  0.00    +0.000 A 
ATOM     20  C   UNL     1      -2.414  11.751  19.027  0.00  0.00    +0.000 A 
ATOM     21  H   UNL     1      -5.179  10.380  15.788  0.00  0.00    +0.000 HD
ENDBRANCH  10  12
TORSDOF 1
ENDMDL
