MODEL 1
REMARK VINA RESULT:      -8.3      0.000      0.000
REMARK  Name = 
REMARK  4 active torsions:
REMARK  status: ('A' for Active; 'I' for Inactive)
REMARK    1  A    between atoms: C_1  and  C_2
REMARK    2  A    between atoms: C_2  and  N_3
REMARK    3  A    between atoms: C_2  and  C_20
REMARK    4  A    between atoms: C_7  and  C_8
REMARK                            x       y       z     vdW  Elec       q    Type
REMARK                         _______ _______ _______ _____ _____    ______ ____
ROOT
ATOM      1  N   UNL     1       1.836   7.908  20.152  0.00  0.00    +0.000 N 
ATOM      2  C   UNL     1       2.009   6.523  20.140  0.00  0.00    +0.000 A 
ATOM      3  C   UNL     1       3.107   6.058  19.417  0.00  0.00    +0.000 A 
ATOM      4  C   UNL     1       3.300   4.676  19.311  0.00  0.00    +0.000 A 
ATOM      5  C   UNL     1       4.179   3.786  18.623  0.00  0.00    +0.000 A 
ATOM      6  N   UNL     1       3.903   2.513  18.955  0.00  0.00    +0.000 NA
ATOM      7  O   UNL     1       2.810   2.559  19.811  0.00  0.00    +0.000 OA
ATOM      8  C   UNL     1       2.442   3.853  20.004  0.00  0.00    +0.000 A 
ATOM      9  C   UNL     1       1.392   4.335  20.765  0.00  0.00    +0.000 A 
ATOM     10  N   UNL     1       1.188   5.687  20.813  0.00  0.00    +0.000 NA
ATOM     11  H   UNL     1       1.825   8.283  19.210  0.00  0.00    +0.000 HD
ENDROOT
BRANCH   5  12
ATOM     12  C   UNL     1       5.220   4.135  17.651  0.00  0.00    +0.000 A 
ATOM     13  C   UNL     1       6.435   4.710  18.051  0.00  0.00    +0.000 A 
ATOM     14  C   UNL     1       7.405   5.055  17.102  0.00  0.00    +0.000 A 
ATOM     15  C   UNL     1       7.172   4.834  15.744  0.00  0.00    +0.000 A 
ATOM     16  C   UNL     1       5.977   4.251  15.340  0.00  0.00    +0.000 A 
ATOM     17 CL   UNL     1       5.667   3.978  13.671  0.00  0.00    +0.000 Cl
ATOM     18  C   UNL     1       5.014   3.888  16.285  0.00  0.00    +0.000 A 
ENDBRANCH   5  12
BRANCH   1  20
ATOM     19  C   UNL     1       1.619   8.999  22.265  0.00  0.00    +0.000 C 
ATOM     20  C   UNL     1       0.850   8.530  21.019  0.00  0.00    +0.000 C 
BRANCH  20  21
ATOM     21  C   UNL     1       0.137   9.680  20.315  0.00  0.00    +0.000 A 
ATOM     22  C   UNL     1      -0.500  10.667  21.084  0.00  0.00    +0.000 A 
ATOM     23  C   UNL     1      -1.084  11.786  20.480  0.00  0.00    +0.000 A 
ATOM     24  C   UNL     1      -1.056  11.929  19.095  0.00  0.00    +0.000 A 
ATOM     25  C   UNL     1      -0.466  10.941  18.311  0.00  0.00    +0.000 A 
ATOM     26  C   UNL     1       0.116   9.821  18.916  0.00  0.00    +0.000 A 
ENDBRANCH  20  21
ENDBRANCH   1  20
TORSDOF 3
ENDMDL
MODEL 2
REMARK VINA RESULT:      -8.3      0.311      1.010
REMARK  Name = 
REMARK  4 active torsions:
REMARK  status: ('A' for Active; 'I' for Inactive)
REMARK    1  A    between atoms: C_1  and  C_2
REMARK    2  A    between atoms: C_2  and  N_3
REMARK    3  A    between atoms: C_2  and  C_20
REMARK    4  A    between atoms: C_7  and  C_8
REMARK                            x       y       z     vdW  Elec       q    Type
REMARK                         _______ _______ _______ _____ _____    ______ ____
ROOT
ATOM      1  N   UNL     1       1.751   8.056  20.094  0.00  0.00    +0.000 N 
ATOM      2  C   UNL     1       2.015   6.686  20.106  0.00  0.00    +0.000 A 
ATOM      3  C   UNL     1       3.107   6.275  19.341  0.00  0.00    +0.000 A 
ATOM      4  C   UNL     1       3.386   4.907  19.257  0.00  0.00    +0.000 A 
ATOM      5  C   UNL     1       4.289   4.059  18.548  0.00  0.00    +0.000 A 
ATOM      6  N   UNL     1       4.115   2.780  18.921  0.00  0.00    +0.000 NA
ATOM      7  O   UNL     1       3.062   2.776  19.828  0.00  0.00    +0.000 OA
ATOM      8  C   UNL     1       2.618   4.048  20.009  0.00  0.00    +0.000 A 
ATOM      9  C   UNL     1       1.575   4.478  20.809  0.00  0.00    +0.000 A 
ATOM     10  N   UNL     1       1.284   5.816  20.835  0.00  0.00    +0.000 NA
ATOM     11  H   UNL     1       1.671   8.406  19.146  0.00  0.00    +0.000 HD
ENDROOT
BRANCH   5  12
ATOM     12  C   UNL     1       5.259   4.450  17.519  0.00  0.00    +0.000 A 
ATOM     13  C   UNL     1       6.348   5.283  17.815  0.00  0.00    +0.000 A 
ATOM     14  C   UNL     1       7.247   5.661  16.811  0.00  0.00    +0.000 A 
ATOM     15  C   UNL     1       7.068   5.216  15.501  0.00  0.00    +0.000 A 
ATOM     16  C   UNL     1       6.001   4.378  15.202  0.00  0.00    +0.000 A 
ATOM     17 CL   UNL     1       5.759   3.824  13.592  0.00  0.00    +0.000 Cl
ATOM     18  C   UNL     1       5.111   3.982  16.204  0.00  0.00    +0.000 A 
ENDBRANCH   5  12
BRANCH   1  20
ATOM     19  C   UNL     1       1.542   9.060  22.252  0.00  0.00    +0.000 C 
ATOM     20  C   UNL     1       0.767   8.634  20.994  0.00  0.00    +0.000 C 
BRANCH  20  21
ATOM     21  C   UNL     1       0.039   9.805  20.342  0.00  0.00    +0.000 A 
ATOM     22  C   UNL     1      -0.079   9.849  18.943  0.00  0.00    +0.000 A 
ATOM     23  C   UNL     1      -0.819  10.854  18.313  0.00  0.00    +0.000 A 
ATOM     24  C   UNL     1      -1.440  11.845  19.068  0.00  0.00    +0.000 A 
ATOM     25  C   UNL     1      -1.302  11.844  20.454  0.00  0.00    +0.000 A 
ATOM     26  C   UNL     1      -0.560  10.839  21.084  0.00  0.00    +0.000 A 
ENDBRANCH  20  21
ENDBRANCH   1  20
TORSDOF 3
ENDMDL
MODEL 3
REMARK VINA RESULT:      -8.2      3.761      6.313
REMARK  Name = 
REMARK  4 active torsions:
REMARK  status: ('A' for Active; 'I' for Inactive)
REMARK    1  A    between atoms: C_1  and  C_2
REMARK    2  A    between atoms: C_2  and  N_3
REMARK    3  A    between atoms: C_2  and  C_20
REMARK    4  A    between atoms: C_7  and  C_8
REMARK                            x       y       z     vdW  Elec       q    Type
REMARK                         _______ _______ _______ _____ _____    ______ ____
ROOT
ATOM      1  N   UNL     1       3.556   4.933  17.426  0.00  0.00    +0.000 N 
ATOM      2  C   UNL     1       4.768   5.226  16.798  0.00  0.00    +0.000 A 
ATOM      3  C   UNL     1       4.920   4.709  15.511  0.00  0.00    +0.000 A 
ATOM      4  C   UNL     1       6.137   4.910  14.851  0.00  0.00    +0.000 A 
ATOM      5  C   UNL     1       6.752   4.500  13.631  0.00  0.00    +0.000 A 
ATOM      6  N   UNL     1       7.965   5.065  13.509  0.00  0.00    +0.000 NA
ATOM      7  O   UNL     1       8.174   5.799  14.670  0.00  0.00    +0.000 OA
ATOM      8  C   UNL     1       7.086   5.686  15.477  0.00  0.00    +0.000 A 
ATOM      9  C   UNL     1       6.895   6.240  16.730  0.00  0.00    +0.000 A 
ATOM     10  N   UNL     1       5.718   5.987  17.381  0.00  0.00    +0.000 NA
ATOM     11  H   UNL     1       3.372   3.936  17.421  0.00  0.00    +0.000 HD
ENDROOT
BRANCH   5  12
ATOM     12  C   UNL     1       6.219   3.566  12.632  0.00  0.00    +0.000 A 
ATOM     13  C   UNL     1       6.988   2.502  12.139  0.00  0.00    +0.000 A 
ATOM     14  C   UNL     1       6.465   1.637  11.169  0.00  0.00    +0.000 A 
ATOM     15  C   UNL     1       5.174   1.828  10.678  0.00  0.00    +0.000 A 
ATOM     16  C   UNL     1       4.399   2.871  11.172  0.00  0.00    +0.000 A 
ATOM     17 CL   UNL     1       2.808   3.128  10.574  0.00  0.00    +0.000 Cl
ATOM     18  C   UNL     1       4.909   3.725  12.153  0.00  0.00    +0.000 A 
ENDBRANCH   5  12
BRANCH   1  20
ATOM     19  C   UNL     1       2.355   6.798  18.312  0.00  0.00    +0.000 C 
ATOM     20  C   UNL     1       3.196   5.566  18.684  0.00  0.00    +0.000 C 
BRANCH  20  21
ATOM     21  C   UNL     1       2.438   4.604  19.593  0.00  0.00    +0.000 A 
ATOM     22  C   UNL     1       1.413   3.810  19.052  0.00  0.00    +0.000 A 
ATOM     23  C   UNL     1       0.759   2.850  19.830  0.00  0.00    +0.000 A 
ATOM     24  C   UNL     1       1.104   2.677  21.167  0.00  0.00    +0.000 A 
ATOM     25  C   UNL     1       2.089   3.482  21.735  0.00  0.00    +0.000 A 
ATOM     26  C   UNL     1       2.742   4.444  20.957  0.00  0.00    +0.000 A 
ENDBRANCH  20  21
ENDBRANCH   1  20
TORSDOF 3
ENDMDL
MODEL 4
REMARK VINA RESULT:      -8.1      3.727      6.327
REMARK  Name = 
REMARK  4 active torsions:
REMARK  status: ('A' for Active; 'I' for Inactive)
REMARK    1  A    between atoms: C_1  and  C_2
REMARK    2  A    between atoms: C_2  and  N_3
REMARK    3  A    between atoms: C_2  and  C_20
REMARK    4  A    between atoms: C_7  and  C_8
REMARK                            x       y       z     vdW  Elec       q    Type
REMARK                         _______ _______ _______ _____ _____    ______ ____
ROOT
ATOM      1  N   UNL     1       3.549   4.898  17.652  0.00  0.00    +0.000 N 
ATOM      2  C   UNL     1       4.726   5.162  16.950  0.00  0.00    +0.000 A 
ATOM      3  C   UNL     1       4.756   4.708  15.632  0.00  0.00    +0.000 A 
ATOM      4  C   UNL     1       5.931   4.882  14.892  0.00  0.00    +0.000 A 
ATOM      5  C   UNL     1       6.432   4.507  13.610  0.00  0.00    +0.000 A 
ATOM      6  N   UNL     1       7.662   5.016  13.425  0.00  0.00    +0.000 NA
ATOM      7  O   UNL     1       7.994   5.676  14.602  0.00  0.00    +0.000 OA
ATOM      8  C   UNL     1       6.963   5.575  15.482  0.00  0.00    +0.000 A 
ATOM      9  C   UNL     1       6.894   6.071  16.771  0.00  0.00    +0.000 A 
ATOM     10  N   UNL     1       5.756   5.842  17.497  0.00  0.00    +0.000 NA
ATOM     11  H   UNL     1       3.311   3.913  17.612  0.00  0.00    +0.000 HD
ENDROOT
BRANCH   5  12
ATOM     12  C   UNL     1       5.778   3.655  12.610  0.00  0.00    +0.000 A 
ATOM     13  C   UNL     1       4.615   4.067  11.943  0.00  0.00    +0.000 A 
ATOM     14  C   UNL     1       3.996   3.228  11.009  0.00  0.00    +0.000 A 
ATOM     15  C   UNL     1       4.527   1.967  10.734  0.00  0.00    +0.000 A 
ATOM     16  C   UNL     1       5.688   1.557  11.379  0.00  0.00    +0.000 A 
ATOM     17 CL   UNL     1       6.354   0.005  11.060  0.00  0.00    +0.000 Cl
ATOM     18  C   UNL     1       6.320   2.399  12.298  0.00  0.00    +0.000 A 
ENDBRANCH   5  12
BRANCH   1  20
ATOM     19  C   UNL     1       2.581   6.808  18.712  0.00  0.00    +0.000 C 
ATOM     20  C   UNL     1       3.316   5.481  18.963  0.00  0.00    +0.000 C 
BRANCH  20  21
ATOM     21  C   UNL     1       2.514   4.538  19.856  0.00  0.00    +0.000 A 
ATOM     22  C   UNL     1       1.376   3.901  19.335  0.00  0.00    +0.000 A 
ATOM     23  C   UNL     1       0.669   2.959  20.089  0.00  0.00    +0.000 A 
ATOM     24  C   UNL     1       1.076   2.650  21.384  0.00  0.00    +0.000 A 
ATOM     25  C   UNL     1       2.178   3.301  21.935  0.00  0.00    +0.000 A 
ATOM     26  C   UNL     1       2.883   4.244  21.180  0.00  0.00    +0.000 A 
ENDBRANCH  20  21
ENDBRANCH   1  20
TORSDOF 3
ENDMDL
MODEL 5
REMARK VINA RESULT:      -7.9      1.178      1.468
REMARK  Name = 
REMARK  4 active torsions:
REMARK  status: ('A' for Active; 'I' for Inactive)
REMARK    1  A    between atoms: C_1  and  C_2
REMARK    2  A    between atoms: C_2  and  N_3
REMARK    3  A    between atoms: C_2  and  C_20
REMARK    4  A    between atoms: C_7  and  C_8
REMARK                            x       y       z     vdW  Elec       q    Type
REMARK                         _______ _______ _______ _____ _____    ______ ____
ROOT
ATOM      1  N   UNL     1       1.686   8.097  20.223  0.00  0.00    +0.000 N 
ATOM      2  C   UNL     1       1.893   6.720  20.143  0.00  0.00    +0.000 A 
ATOM      3  C   UNL     1       2.992   6.319  19.384  0.00  0.00    +0.000 A 
ATOM      4  C   UNL     1       3.218   4.949  19.209  0.00  0.00    +0.000 A 
ATOM      5  C   UNL     1       4.110   4.116  18.468  0.00  0.00    +0.000 A 
ATOM      6  N   UNL     1       3.871   2.822  18.741  0.00  0.00    +0.000 NA
ATOM      7  O   UNL     1       2.789   2.799  19.612  0.00  0.00    +0.000 OA
ATOM      8  C   UNL     1       2.391   4.072  19.872  0.00  0.00    +0.000 A 
ATOM      9  C   UNL     1       1.340   4.489  20.668  0.00  0.00    +0.000 A 
ATOM     10  N   UNL     1       1.103   5.832  20.784  0.00  0.00    +0.000 NA
ATOM     11  H   UNL     1       1.652   8.518  19.301  0.00  0.00    +0.000 HD
ENDROOT
BRANCH   5  12
ATOM     12  C   UNL     1       5.130   4.538  17.501  0.00  0.00    +0.000 A 
ATOM     13  C   UNL     1       5.360   3.820  16.318  0.00  0.00    +0.000 A 
ATOM     14  C   UNL     1       6.354   4.229  15.421  0.00  0.00    +0.000 A 
ATOM     15  C   UNL     1       7.132   5.354  15.696  0.00  0.00    +0.000 A 
ATOM     16  C   UNL     1       6.900   6.080  16.858  0.00  0.00    +0.000 A 
ATOM     17 CL   UNL     1       7.852   7.465  17.219  0.00  0.00    +0.000 Cl
ATOM     18  C   UNL     1       5.896   5.687  17.747  0.00  0.00    +0.000 A 
ENDBRANCH   5  12
BRANCH   1  20
ATOM     19  C   UNL     1       1.471   9.089  22.386  0.00  0.00    +0.000 C 
ATOM     20  C   UNL     1       0.696   8.651  21.132  0.00  0.00    +0.000 C 
BRANCH  20  21
ATOM     21  C   UNL     1      -0.063   9.809  20.489  0.00  0.00    +0.000 A 
ATOM     22  C   UNL     1      -0.651  10.785  21.310  0.00  0.00    +0.000 A 
ATOM     23  C   UNL     1      -1.273  11.909  20.759  0.00  0.00    +0.000 A 
ATOM     24  C   UNL     1      -1.334  12.071  19.378  0.00  0.00    +0.000 A 
ATOM     25  C   UNL     1      -0.793  11.094  18.545  0.00  0.00    +0.000 A 
ATOM     26  C   UNL     1      -0.173   9.968  19.097  0.00  0.00    +0.000 A 
ENDBRANCH  20  21
ENDBRANCH   1  20
TORSDOF 3
ENDMDL
MODEL 6
REMARK VINA RESULT:      -7.6      1.135      1.604
REMARK  Name = 
REMARK  4 active torsions:
REMARK  status: ('A' for Active; 'I' for Inactive)
REMARK    1  A    between atoms: C_1  and  C_2
REMARK    2  A    between atoms: C_2  and  N_3
REMARK    3  A    between atoms: C_2  and  C_20
REMARK    4  A    between atoms: C_7  and  C_8
REMARK                            x       y       z     vdW  Elec       q    Type
REMARK                         _______ _______ _______ _____ _____    ______ ____
ROOT
ATOM      1  N   UNL     1       1.483   8.833  19.375  0.00  0.00    +0.000 N 
ATOM      2  C   UNL     1       1.850   7.526  19.702  0.00  0.00    +0.000 A 
ATOM      3  C   UNL     1       2.960   7.024  19.022  0.00  0.00    +0.000 A 
ATOM      4  C   UNL     1       3.340   5.698  19.254  0.00  0.00    +0.000 A 
ATOM      5  C   UNL     1       4.296   4.772  18.738  0.00  0.00    +0.000 A 
ATOM      6  N   UNL     1       4.223   3.608  19.407  0.00  0.00    +0.000 NA
ATOM      7  O   UNL     1       3.186   3.746  20.321  0.00  0.00    +0.000 OA
ATOM      8  C   UNL     1       2.649   4.990  20.211  0.00  0.00    +0.000 A 
ATOM      9  C   UNL     1       1.587   5.524  20.918  0.00  0.00    +0.000 A 
ATOM     10  N   UNL     1       1.197   6.805  20.638  0.00  0.00    +0.000 NA
ATOM     11  H   UNL     1       1.365   8.941  18.374  0.00  0.00    +0.000 HD
ENDROOT
BRANCH   5  12
ATOM     12  C   UNL     1       5.220   4.974  17.617  0.00  0.00    +0.000 A 
ATOM     13  C   UNL     1       6.396   5.724  17.761  0.00  0.00    +0.000 A 
ATOM     14  C   UNL     1       7.251   5.923  16.670  0.00  0.00    +0.000 A 
ATOM     15  C   UNL     1       6.940   5.380  15.424  0.00  0.00    +0.000 A 
ATOM     16  C   UNL     1       5.784   4.623  15.275  0.00  0.00    +0.000 A 
ATOM     17 CL   UNL     1       5.379   3.952  13.745  0.00  0.00    +0.000 Cl
ATOM     18  C   UNL     1       4.937   4.406  16.365  0.00  0.00    +0.000 A 
ENDBRANCH   5  12
BRANCH   1  20
ATOM     19  C   UNL     1       1.230  10.543  21.024  0.00  0.00    +0.000 C 
ATOM     20  C   UNL     1       0.470   9.537  20.143  0.00  0.00    +0.000 C 
BRANCH  20  21
ATOM     21  C   UNL     1      -0.544  10.220  19.231  0.00  0.00    +0.000 A 
ATOM     22  C   UNL     1      -0.764   9.706  17.942  0.00  0.00    +0.000 A 
ATOM     23  C   UNL     1      -1.750  10.246  17.110  0.00  0.00    +0.000 A 
ATOM     24  C   UNL     1      -2.523  11.319  17.544  0.00  0.00    +0.000 A 
ATOM     25  C   UNL     1      -2.293  11.870  18.803  0.00  0.00    +0.000 A 
ATOM     26  C   UNL     1      -1.305  11.332  19.633  0.00  0.00    +0.000 A 
ENDBRANCH  20  21
ENDBRANCH   1  20
TORSDOF 3
ENDMDL
MODEL 7
REMARK VINA RESULT:      -7.6      1.364      1.728
REMARK  Name = 
REMARK  4 active torsions:
REMARK  status: ('A' for Active; 'I' for Inactive)
REMARK    1  A    between atoms: C_1  and  C_2
REMARK    2  A    between atoms: C_2  and  N_3
REMARK    3  A    between atoms: C_2  and  C_20
REMARK    4  A    between atoms: C_7  and  C_8
REMARK                            x       y       z     vdW  Elec       q    Type
REMARK                         _______ _______ _______ _____ _____    ______ ____
ROOT
ATOM      1  N   UNL     1       1.491   9.284  19.098  0.00  0.00    +0.000 N 
ATOM      2  C   UNL     1       1.797   7.986  19.510  0.00  0.00    +0.000 A 
ATOM      3  C   UNL     1       2.900   7.401  18.888  0.00  0.00    +0.000 A 
ATOM      4  C   UNL     1       3.221   6.077  19.208  0.00  0.00    +0.000 A 
ATOM      5  C   UNL     1       4.149   5.085  18.771  0.00  0.00    +0.000 A 
ATOM      6  N   UNL     1       4.015   3.967  19.507  0.00  0.00    +0.000 NA
ATOM      7  O   UNL     1       2.965   4.201  20.386  0.00  0.00    +0.000 OA
ATOM      8  C   UNL     1       2.482   5.456  20.189  0.00  0.00    +0.000 A 
ATOM      9  C   UNL     1       1.428   6.073  20.838  0.00  0.00    +0.000 A 
ATOM     10  N   UNL     1       1.095   7.350  20.472  0.00  0.00    +0.000 NA
ATOM     11  H   UNL     1       1.398   9.336  18.090  0.00  0.00    +0.000 HD
ENDROOT
BRANCH   5  12
ATOM     12  C   UNL     1       5.104   5.182  17.662  0.00  0.00    +0.000 A 
ATOM     13  C   UNL     1       6.318   5.873  17.797  0.00  0.00    +0.000 A 
ATOM     14  C   UNL     1       7.203   5.972  16.717  0.00  0.00    +0.000 A 
ATOM     15  C   UNL     1       6.886   5.388  15.490  0.00  0.00    +0.000 A 
ATOM     16  C   UNL     1       5.693   4.689  15.352  0.00  0.00    +0.000 A 
ATOM     17 CL   UNL     1       5.280   3.968  13.847  0.00  0.00    +0.000 Cl
ATOM     18  C   UNL     1       4.815   4.571  16.432  0.00  0.00    +0.000 A 
ENDBRANCH   5  12
BRANCH   1  20
ATOM     19  C   UNL     1       1.203  11.363  20.240  0.00  0.00    +0.000 C 
ATOM     20  C   UNL     1       0.491  10.073  19.798  0.00  0.00    +0.000 C 
BRANCH  20  21
ATOM     21  C   UNL     1      -0.716  10.356  18.909  0.00  0.00    +0.000 A 
ATOM     22  C   UNL     1      -1.629  11.354  19.287  0.00  0.00    +0.000 A 
ATOM     23  C   UNL     1      -2.695  11.708  18.454  0.00  0.00    +0.000 A 
ATOM     24  C   UNL     1      -2.878  11.059  17.236  0.00  0.00    +0.000 A 
ATOM     25  C   UNL     1      -2.008  10.038  16.861  0.00  0.00    +0.000 A 
ATOM     26  C   UNL     1      -0.943   9.684  17.695  0.00  0.00    +0.000 A 
ENDBRANCH  20  21
ENDBRANCH   1  20
TORSDOF 3
ENDMDL
MODEL 8
REMARK VINA RESULT:      -7.5      4.703      7.484
REMARK  Name = 
REMARK  4 active torsions:
REMARK  status: ('A' for Active; 'I' for Inactive)
REMARK    1  A    between atoms: C_1  and  C_2
REMARK    2  A    between atoms: C_2  and  N_3
REMARK    3  A    between atoms: C_2  and  C_20
REMARK    4  A    between atoms: C_7  and  C_8
REMARK                            x       y       z     vdW  Elec       q    Type
REMARK                         _______ _______ _______ _____ _____    ______ ____
ROOT
ATOM      1  N   UNL     1      -3.779  11.274  18.350  0.00  0.00    +0.000 N 
ATOM      2  C   UNL     1      -2.752  11.559  19.251  0.00  0.00    +0.000 A 
ATOM      3  C   UNL     1      -1.574  10.835  19.070  0.00  0.00    +0.000 A 
ATOM      4  C   UNL     1      -0.528  11.025  19.980  0.00  0.00    +0.000 A 
ATOM      5  C   UNL     1       0.756  10.459  20.239  0.00  0.00    +0.000 A 
ATOM      6  N   UNL     1       1.350  11.102  21.260  0.00  0.00    +0.000 NA
ATOM      7  O   UNL     1       0.437  12.048  21.710  0.00  0.00    +0.000 OA
ATOM      8  C   UNL     1      -0.690  11.984  20.954  0.00  0.00    +0.000 A 
ATOM      9  C   UNL     1      -1.845  12.734  21.083  0.00  0.00    +0.000 A 
ATOM     10  N   UNL     1      -2.877  12.496  20.215  0.00  0.00    +0.000 NA
ATOM     11  H   UNL     1      -3.975  10.280  18.319  0.00  0.00    +0.000 HD
ENDROOT
BRANCH   5  12
ATOM     12  C   UNL     1       1.382   9.316  19.564  0.00  0.00    +0.000 A 
ATOM     13  C   UNL     1       1.771   9.382  18.218  0.00  0.00    +0.000 A 
ATOM     14  C   UNL     1       2.345   8.271  17.589  0.00  0.00    +0.000 A 
ATOM     15  C   UNL     1       2.532   7.082  18.293  0.00  0.00    +0.000 A 
ATOM     16  C   UNL     1       2.163   7.012  19.631  0.00  0.00    +0.000 A 
ATOM     17 CL   UNL     1       2.379   5.553  20.515  0.00  0.00    +0.000 Cl
ATOM     18  C   UNL     1       1.608   8.124  20.269  0.00  0.00    +0.000 A 
ENDBRANCH   5  12
BRANCH   1  20
ATOM     19  C   UNL     1      -5.439  12.096  16.841  0.00  0.00    +0.000 C 
ATOM     20  C   UNL     1      -4.983  12.088  18.309  0.00  0.00    +0.000 C 
BRANCH  20  21
ATOM     21  C   UNL     1      -6.057  11.538  19.243  0.00  0.00    +0.000 A 
ATOM     22  C   UNL     1      -6.516  10.222  19.063  0.00  0.00    +0.000 A 
ATOM     23  C   UNL     1      -7.430   9.650  19.954  0.00  0.00    +0.000 A 
ATOM     24  C   UNL     1      -7.915  10.388  21.031  0.00  0.00    +0.000 A 
ATOM     25  C   UNL     1      -7.504  11.708  21.204  0.00  0.00    +0.000 A 
ATOM     26  C   UNL     1      -6.592  12.280  20.311  0.00  0.00    +0.000 A 
ENDBRANCH  20  21
ENDBRANCH   1  20
TORSDOF 3
ENDMDL
MODEL 9
REMARK VINA RESULT:      -7.5      2.016      3.132
REMARK  Name = 
REMARK  4 active torsions:
REMARK  status: ('A' for Active; 'I' for Inactive)
REMARK    1  A    between atoms: C_1  and  C_2
REMARK    2  A    between atoms: C_2  and  N_3
REMARK    3  A    between atoms: C_2  and  C_20
REMARK    4  A    between atoms: C_7  and  C_8
REMARK                            x       y       z     vdW  Elec       q    Type
REMARK                         _______ _______ _______ _____ _____    ______ ____
ROOT
ATOM      1  N   UNL     1       1.088  10.169  18.571  0.00  0.00    +0.000 N 
ATOM      2  C   UNL     1       1.268   9.003  19.317  0.00  0.00    +0.000 A 
ATOM      3  C   UNL     1       2.248   8.130  18.845  0.00  0.00    +0.000 A 
ATOM      4  C   UNL     1       2.433   6.912  19.509  0.00  0.00    +0.000 A 
ATOM      5  C   UNL     1       3.205   5.725  19.333  0.00  0.00    +0.000 A 
ATOM      6  N   UNL     1       2.992   4.877  20.354  0.00  0.00    +0.000 NA
ATOM      7  O   UNL     1       2.040   5.477  21.168  0.00  0.00    +0.000 OA
ATOM      8  C   UNL     1       1.695   6.684  20.647  0.00  0.00    +0.000 A 
ATOM      9  C   UNL     1       0.768   7.587  21.135  0.00  0.00    +0.000 A 
ATOM     10  N   UNL     1       0.564   8.749  20.440  0.00  0.00    +0.000 NA
ATOM     11  H   UNL     1       0.933   9.957  17.591  0.00  0.00    +0.000 HD
ENDROOT
BRANCH   5  12
ATOM     12  C   UNL     1       4.087   5.392  18.208  0.00  0.00    +0.000 A 
ATOM     13  C   UNL     1       3.784   4.346  17.324  0.00  0.00    +0.000 A 
ATOM     14  C   UNL     1       4.652   4.032  16.271  0.00  0.00    +0.000 A 
ATOM     15  C   UNL     1       5.833   4.753  16.093  0.00  0.00    +0.000 A 
ATOM     16  C   UNL     1       6.133   5.800  16.955  0.00  0.00    +0.000 A 
ATOM     17 CL   UNL     1       7.587   6.696  16.757  0.00  0.00    +0.000 Cl
ATOM     18  C   UNL     1       5.261   6.130  17.996  0.00  0.00    +0.000 A 
ENDBRANCH   5  12
BRANCH   1  20
ATOM     19  C   UNL     1       0.917  12.551  18.619  0.00  0.00    +0.000 C 
ATOM     20  C   UNL     1       0.239  11.243  19.058  0.00  0.00    +0.000 C 
BRANCH  20  21
ATOM     21  C   UNL     1      -1.181  11.119  18.513  0.00  0.00    +0.000 A 
ATOM     22  C   UNL     1      -1.454  10.166  17.519  0.00  0.00    +0.000 A 
ATOM     23  C   UNL     1      -2.759   9.957  17.061  0.00  0.00    +0.000 A 
ATOM     24  C   UNL     1      -3.812  10.708  17.576  0.00  0.00    +0.000 A 
ATOM     25  C   UNL     1      -3.556  11.687  18.533  0.00  0.00    +0.000 A 
ATOM     26  C   UNL     1      -2.251  11.897  18.989  0.00  0.00    +0.000 A 
ENDBRANCH  20  21
ENDBRANCH   1  20
TORSDOF 3
ENDMDL
