MODEL 1
REMARK VINA RESULT:      -9.6      0.000      0.000
REMARK  Name = 
REMARK  7 active torsions:
REMARK  status: ('A' for Active; 'I' for Inactive)
REMARK    1  A    between atoms: C_2  and  C_4
REMARK    2  A    between atoms: C_6  and  N_7
REMARK    3  A    between atoms: C_8  and  C_10
REMARK    4  A    between atoms: C_12  and  C_13
REMARK    5  A    between atoms: C_17  and  O_18
REMARK    6  A    between atoms: O_18  and  C_19
REMARK    7  A    between atoms: N_27  and  C_28
REMARK                            x       y       z     vdW  Elec       q    Type
REMARK                         _______ _______ _______ _____ _____    ______ ____
ROOT
ATOM      1  N   UNL     1       4.273   5.308  16.739  0.00  0.00    +0.000 N 
ATOM      2  C   UNL     1       4.115   4.563  17.954  0.00  0.00    +0.000 C 
ATOM      3  O   UNL     1       4.918   3.692  18.239  0.00  0.00    +0.000 OA
ATOM      4  H   UNL     1       3.726   6.149  16.582  0.00  0.00    +0.000 HD
ENDROOT
BRANCH   2   5
ATOM      5  C   UNL     1       3.043   4.996  18.888  0.00  0.00    +0.000 A 
ATOM      6  C   UNL     1       2.714   6.371  18.921  0.00  0.00    +0.000 A 
ATOM      7  C   UNL     1       1.755   6.884  19.819  0.00  0.00    +0.000 A 
ATOM      8  C   UNL     1       1.109   5.961  20.660  0.00  0.00    +0.000 A 
ATOM      9  C   UNL     1       1.417   4.600  20.628  0.00  0.00    +0.000 A 
ATOM     10  C   UNL     1       2.385   4.114  19.750  0.00  0.00    +0.000 A 
ATOM     11 CL   UNL     1       2.718   2.421  19.822  0.00  0.00    +0.000 Cl
BRANCH   7  12
ATOM     12  C   UNL     1       1.446   8.331  19.894  0.00  0.00    +0.000 A 
ATOM     13  C   UNL     1       1.454   9.152  18.766  0.00  0.00    +0.000 A 
ATOM     14  C   UNL     1       1.165  10.504  18.902  0.00  0.00    +0.000 A 
ATOM     15  C   UNL     1       0.867  11.012  20.160  0.00  0.00    +0.000 A 
ATOM     16  C   UNL     1       0.884  10.146  21.246  0.00  0.00    +0.000 A 
ATOM     17  N   UNL     1       1.158   8.823  21.124  0.00  0.00    +0.000 NA
BRANCH  16  18
ATOM     18  O   UNL     1       0.599  10.515  22.527  0.00  0.00    +0.000 OA
BRANCH  18  19
ATOM     19  C   UNL     1      -0.406   9.738  23.147  0.00  0.00    +0.000 C 
ATOM     20  F   UNL     1       0.078   9.251  24.318  0.00  0.00    +0.000 F 
ATOM     21  F   UNL     1      -1.428  10.571  23.468  0.00  0.00    +0.000 F 
ENDBRANCH  18  19
ENDBRANCH  16  18
ENDBRANCH   7  12
ENDBRANCH   2   5
BRANCH   1  24
ATOM     22  C   UNL     1       6.428   4.463  14.008  0.00  0.00    +0.000 A 
ATOM     23  C   UNL     1       5.173   4.321  14.659  0.00  0.00    +0.000 A 
ATOM     24  C   UNL     1       5.290   5.029  15.829  0.00  0.00    +0.000 A 
ATOM     25  N   UNL     1       6.588   5.515  15.864  0.00  0.00    +0.000 N 
ATOM     26  N   UNL     1       7.263   5.248  14.719  0.00  0.00    +0.000 NA
BRANCH  25  27
ATOM     27  C   UNL     1       7.217   6.183  16.947  0.00  0.00    +0.000 A 
ATOM     28  C   UNL     1       7.431   7.571  16.903  0.00  0.00    +0.000 A 
ATOM     29  C   UNL     1       8.090   8.211  17.949  0.00  0.00    +0.000 A 
ATOM     30  C   UNL     1       8.536   7.474  19.043  0.00  0.00    +0.000 A 
ATOM     31  C   UNL     1       8.292   6.101  19.108  0.00  0.00    +0.000 A 
ATOM     32  C   UNL     1       7.619   5.454  18.072  0.00  0.00    +0.000 A 
ENDBRANCH  25  27
BRANCH  22  34
ATOM     33  N   UNL     1       6.262   2.650  12.462  0.00  0.00    +0.000 N 
ATOM     34  C   UNL     1       6.813   3.875  12.718  0.00  0.00    +0.000 C 
ATOM     35  O   UNL     1       7.550   4.434  11.917  0.00  0.00    +0.000 OA
ATOM     36  H   UNL     1       6.431   2.209  11.570  0.00  0.00    +0.000 HD
ATOM     37  H   UNL     1       5.609   2.243  13.121  0.00  0.00    +0.000 HD
ENDBRANCH  22  34
ENDBRANCH   1  24
TORSDOF 7
ENDMDL
MODEL 2
REMARK VINA RESULT:      -9.5      0.499      1.032
REMARK  Name = 
REMARK  7 active torsions:
REMARK  status: ('A' for Active; 'I' for Inactive)
REMARK    1  A    between atoms: C_2  and  C_4
REMARK    2  A    between atoms: C_6  and  N_7
REMARK    3  A    between atoms: C_8  and  C_10
REMARK    4  A    between atoms: C_12  and  C_13
REMARK    5  A    between atoms: C_17  and  O_18
REMARK    6  A    between atoms: O_18  and  C_19
REMARK    7  A    between atoms: N_27  and  C_28
REMARK                            x       y       z     vdW  Elec       q    Type
REMARK                         _______ _______ _______ _____ _____    ______ ____
ROOT
ATOM      1  N   UNL     1       4.295   5.095  16.721  0.00  0.00    +0.000 N 
ATOM      2  C   UNL     1       4.194   4.315  17.919  0.00  0.00    +0.000 C 
ATOM      3  O   UNL     1       5.035   3.467  18.161  0.00  0.00    +0.000 OA
ATOM      4  H   UNL     1       3.713   5.919  16.599  0.00  0.00    +0.000 HD
ENDROOT
BRANCH   2   5
ATOM      5  C   UNL     1       3.130   4.683  18.889  0.00  0.00    +0.000 A 
ATOM      6  C   UNL     1       2.798   6.052  19.012  0.00  0.00    +0.000 A 
ATOM      7  C   UNL     1       1.847   6.504  19.951  0.00  0.00    +0.000 A 
ATOM      8  C   UNL     1       1.212   5.528  20.739  0.00  0.00    +0.000 A 
ATOM      9  C   UNL     1       1.525   4.173  20.619  0.00  0.00    +0.000 A 
ATOM     10  C   UNL     1       2.485   3.746  19.701  0.00  0.00    +0.000 A 
ATOM     11 CL   UNL     1       2.824   2.054  19.663  0.00  0.00    +0.000 Cl
BRANCH   7  12
ATOM     12  C   UNL     1       1.534   7.943  20.121  0.00  0.00    +0.000 A 
ATOM     13  C   UNL     1       1.451   8.817  19.037  0.00  0.00    +0.000 A 
ATOM     14  C   UNL     1       1.164  10.158  19.261  0.00  0.00    +0.000 A 
ATOM     15  C   UNL     1       0.957  10.601  20.561  0.00  0.00    +0.000 A 
ATOM     16  C   UNL     1       1.062   9.683  21.598  0.00  0.00    +0.000 A 
ATOM     17  N   UNL     1       1.336   8.371  21.392  0.00  0.00    +0.000 NA
BRANCH  16  18
ATOM     18  O   UNL     1       0.871   9.986  22.914  0.00  0.00    +0.000 OA
BRANCH  18  19
ATOM     19  C   UNL     1      -0.382   9.584  23.428  0.00  0.00    +0.000 C 
ATOM     20  F   UNL     1      -1.202  10.664  23.477  0.00  0.00    +0.000 F 
ATOM     21  F   UNL     1      -0.933   8.721  22.538  0.00  0.00    +0.000 F 
ENDBRANCH  18  19
ENDBRANCH  16  18
ENDBRANCH   7  12
ENDBRANCH   2   5
BRANCH   1  24
ATOM     22  C   UNL     1       6.409   4.412  13.914  0.00  0.00    +0.000 A 
ATOM     23  C   UNL     1       5.172   4.215  14.584  0.00  0.00    +0.000 A 
ATOM     24  C   UNL     1       5.297   4.877  15.779  0.00  0.00    +0.000 A 
ATOM     25  N   UNL     1       6.585   5.391  15.808  0.00  0.00    +0.000 N 
ATOM     26  N   UNL     1       7.241   5.186  14.639  0.00  0.00    +0.000 NA
BRANCH  25  27
ATOM     27  C   UNL     1       7.222   6.029  16.904  0.00  0.00    +0.000 A 
ATOM     28  C   UNL     1       7.603   5.289  18.038  0.00  0.00    +0.000 A 
ATOM     29  C   UNL     1       8.185   5.931  19.128  0.00  0.00    +0.000 A 
ATOM     30  C   UNL     1       8.392   7.308  19.094  0.00  0.00    +0.000 A 
ATOM     31  C   UNL     1       8.049   8.040  17.955  0.00  0.00    +0.000 A 
ATOM     32  C   UNL     1       7.481   7.403  16.852  0.00  0.00    +0.000 A 
ENDBRANCH  25  27
BRANCH  22  34
ATOM     33  N   UNL     1       6.196   2.693  12.269  0.00  0.00    +0.000 N 
ATOM     34  C   UNL     1       6.780   3.886  12.593  0.00  0.00    +0.000 C 
ATOM     35  O   UNL     1       7.532   4.469  11.824  0.00  0.00    +0.000 OA
ATOM     36  H   UNL     1       6.354   2.298  11.355  0.00  0.00    +0.000 HD
ATOM     37  H   UNL     1       5.532   2.267  12.905  0.00  0.00    +0.000 HD
ENDBRANCH  22  34
ENDBRANCH   1  24
TORSDOF 7
ENDMDL
MODEL 3
REMARK VINA RESULT:      -9.2      1.952      2.456
REMARK  Name = 
REMARK  7 active torsions:
REMARK  status: ('A' for Active; 'I' for Inactive)
REMARK    1  A    between atoms: C_2  and  C_4
REMARK    2  A    between atoms: C_6  and  N_7
REMARK    3  A    between atoms: C_8  and  C_10
REMARK    4  A    between atoms: C_12  and  C_13
REMARK    5  A    between atoms: C_17  and  O_18
REMARK    6  A    between atoms: O_18  and  C_19
REMARK    7  A    between atoms: N_27  and  C_28
REMARK                            x       y       z     vdW  Elec       q    Type
REMARK                         _______ _______ _______ _____ _____    ______ ____
ROOT
ATOM      1  N   UNL     1       4.243   4.925  16.632  0.00  0.00    +0.000 N 
ATOM      2  C   UNL     1       4.095   4.066  17.769  0.00  0.00    +0.000 C 
ATOM      3  O   UNL     1       4.905   3.177  17.968  0.00  0.00    +0.000 OA
ATOM      4  H   UNL     1       3.688   5.772  16.557  0.00  0.00    +0.000 HD
ENDROOT
BRANCH   2   5
ATOM      5  C   UNL     1       3.022   4.399  18.744  0.00  0.00    +0.000 A 
ATOM      6  C   UNL     1       2.769   5.766  19.001  0.00  0.00    +0.000 A 
ATOM      7  C   UNL     1       1.815   6.178  19.956  0.00  0.00    +0.000 A 
ATOM      8  C   UNL     1       1.096   5.168  20.618  0.00  0.00    +0.000 A 
ATOM      9  C   UNL     1       1.330   3.815  20.364  0.00  0.00    +0.000 A 
ATOM     10  C   UNL     1       2.294   3.426  19.434  0.00  0.00    +0.000 A 
ATOM     11 CL   UNL     1       2.531   1.728  19.226  0.00  0.00    +0.000 Cl
BRANCH   7  12
ATOM     12  C   UNL     1       1.585   7.608  20.268  0.00  0.00    +0.000 A 
ATOM     13  C   UNL     1       1.330   8.054  21.564  0.00  0.00    +0.000 A 
ATOM     14  C   UNL     1       1.111   9.407  21.792  0.00  0.00    +0.000 A 
ATOM     15  C   UNL     1       1.158  10.292  20.722  0.00  0.00    +0.000 A 
ATOM     16  C   UNL     1       1.408   9.786  19.453  0.00  0.00    +0.000 A 
ATOM     17  N   UNL     1       1.628   8.468  19.220  0.00  0.00    +0.000 NA
BRANCH  16  18
ATOM     18  O   UNL     1       1.491  10.547  18.325  0.00  0.00    +0.000 OA
BRANCH  18  19
ATOM     19  C   UNL     1       1.886  11.884  18.553  0.00  0.00    +0.000 C 
ATOM     20  F   UNL     1       2.980  12.152  17.797  0.00  0.00    +0.000 F 
ATOM     21  F   UNL     1       0.894  12.689  18.094  0.00  0.00    +0.000 F 
ENDBRANCH  18  19
ENDBRANCH  16  18
ENDBRANCH   7  12
ENDBRANCH   2   5
BRANCH   1  24
ATOM     22  C   UNL     1       6.395   4.339  13.831  0.00  0.00    +0.000 A 
ATOM     23  C   UNL     1       5.152   4.114  14.481  0.00  0.00    +0.000 A 
ATOM     24  C   UNL     1       5.258   4.741  15.696  0.00  0.00    +0.000 A 
ATOM     25  N   UNL     1       6.542   5.264  15.755  0.00  0.00    +0.000 N 
ATOM     26  N   UNL     1       7.212   5.098  14.588  0.00  0.00    +0.000 NA
BRANCH  25  27
ATOM     27  C   UNL     1       7.161   5.874  16.877  0.00  0.00    +0.000 A 
ATOM     28  C   UNL     1       7.543   5.103  17.988  0.00  0.00    +0.000 A 
ATOM     29  C   UNL     1       8.107   5.717  19.104  0.00  0.00    +0.000 A 
ATOM     30  C   UNL     1       8.295   7.097  19.116  0.00  0.00    +0.000 A 
ATOM     31  C   UNL     1       7.952   7.861  17.999  0.00  0.00    +0.000 A 
ATOM     32  C   UNL     1       7.401   7.253  16.871  0.00  0.00    +0.000 A 
ENDBRANCH  25  27
BRANCH  22  34
ATOM     33  N   UNL     1       6.246   2.647  12.151  0.00  0.00    +0.000 N 
ATOM     34  C   UNL     1       6.785   3.855  12.500  0.00  0.00    +0.000 C 
ATOM     35  O   UNL     1       7.515   4.480  11.744  0.00  0.00    +0.000 OA
ATOM     36  H   UNL     1       6.418   2.278  11.229  0.00  0.00    +0.000 HD
ATOM     37  H   UNL     1       5.598   2.185  12.778  0.00  0.00    +0.000 HD
ENDBRANCH  22  34
ENDBRANCH   1  24
TORSDOF 7
ENDMDL
MODEL 4
REMARK VINA RESULT:      -8.9      3.484      5.084
REMARK  Name = 
REMARK  7 active torsions:
REMARK  status: ('A' for Active; 'I' for Inactive)
REMARK    1  A    between atoms: C_2  and  C_4
REMARK    2  A    between atoms: C_6  and  N_7
REMARK    3  A    between atoms: C_8  and  C_10
REMARK    4  A    between atoms: C_12  and  C_13
REMARK    5  A    between atoms: C_17  and  O_18
REMARK    6  A    between atoms: O_18  and  C_19
REMARK    7  A    between atoms: N_27  and  C_28
REMARK                            x       y       z     vdW  Elec       q    Type
REMARK                         _______ _______ _______ _____ _____    ______ ____
ROOT
ATOM      1  N   UNL     1       3.747   6.827  18.272  0.00  0.00    +0.000 N 
ATOM      2  C   UNL     1       2.379   7.226  18.125  0.00  0.00    +0.000 C 
ATOM      3  O   UNL     1       1.691   6.724  17.253  0.00  0.00    +0.000 OA
ATOM      4  H   UNL     1       4.271   7.097  19.099  0.00  0.00    +0.000 HD
ENDROOT
BRANCH   2   5
ATOM      5  C   UNL     1       1.819   8.143  19.153  0.00  0.00    +0.000 A 
ATOM      6  C   UNL     1       1.596   9.489  18.781  0.00  0.00    +0.000 A 
ATOM      7  C   UNL     1       1.128  10.447  19.704  0.00  0.00    +0.000 A 
ATOM      8  C   UNL     1       0.855   9.999  21.008  0.00  0.00    +0.000 A 
ATOM      9  C   UNL     1       1.060   8.669  21.383  0.00  0.00    +0.000 A 
ATOM     10  C   UNL     1       1.546   7.741  20.463  0.00  0.00    +0.000 A 
ATOM     11 CL   UNL     1       1.803   6.135  21.043  0.00  0.00    +0.000 Cl
BRANCH   7  12
ATOM     12  C   UNL     1       0.944  11.870  19.333  0.00  0.00    +0.000 A 
ATOM     13  C   UNL     1      -0.319  12.441  19.184  0.00  0.00    +0.000 A 
ATOM     14  C   UNL     1      -0.427  13.779  18.825  0.00  0.00    +0.000 A 
ATOM     15  C   UNL     1       0.728  14.525  18.628  0.00  0.00    +0.000 A 
ATOM     16  C   UNL     1       1.957  13.897  18.783  0.00  0.00    +0.000 A 
ATOM     17  N   UNL     1       2.074  12.594  19.140  0.00  0.00    +0.000 NA
BRANCH  16  18
ATOM     18  O   UNL     1       3.161  14.517  18.631  0.00  0.00    +0.000 OA
BRANCH  18  19
ATOM     19  C   UNL     1       3.097  15.755  17.953  0.00  0.00    +0.000 C 
ATOM     20  F   UNL     1       3.947  16.627  18.552  0.00  0.00    +0.000 F 
ATOM     21  F   UNL     1       3.568  15.559  16.695  0.00  0.00    +0.000 F 
ENDBRANCH  18  19
ENDBRANCH  16  18
ENDBRANCH   7  12
ENDBRANCH   2   5
BRANCH   1  24
ATOM     22  C   UNL     1       5.687   4.949  15.921  0.00  0.00    +0.000 A 
ATOM     23  C   UNL     1       5.226   6.208  16.391  0.00  0.00    +0.000 A 
ATOM     24  C   UNL     1       4.349   5.918  17.404  0.00  0.00    +0.000 A 
ATOM     25  N   UNL     1       4.274   4.535  17.473  0.00  0.00    +0.000 N 
ATOM     26  N   UNL     1       5.151   3.936  16.631  0.00  0.00    +0.000 NA
BRANCH  25  27
ATOM     27  C   UNL     1       3.385   3.770  18.273  0.00  0.00    +0.000 A 
ATOM     28  C   UNL     1       2.118   3.407  17.785  0.00  0.00    +0.000 A 
ATOM     29  C   UNL     1       1.235   2.696  18.593  0.00  0.00    +0.000 A 
ATOM     30  C   UNL     1       1.610   2.342  19.887  0.00  0.00    +0.000 A 
ATOM     31  C   UNL     1       2.881   2.669  20.362  0.00  0.00    +0.000 A 
ATOM     32  C   UNL     1       3.778   3.366  19.554  0.00  0.00    +0.000 A 
ENDBRANCH  25  27
BRANCH  22  34
ATOM     33  N   UNL     1       6.338   3.657  14.020  0.00  0.00    +0.000 N 
ATOM     34  C   UNL     1       6.638   4.721  14.825  0.00  0.00    +0.000 C 
ATOM     35  O   UNL     1       7.614   5.431  14.623  0.00  0.00    +0.000 OA
ATOM     36  H   UNL     1       6.911   3.474  13.210  0.00  0.00    +0.000 HD
ATOM     37  H   UNL     1       5.490   3.126  14.181  0.00  0.00    +0.000 HD
ENDBRANCH  22  34
ENDBRANCH   1  24
TORSDOF 7
ENDMDL
MODEL 5
REMARK VINA RESULT:      -8.9      1.637      1.988
REMARK  Name = 
REMARK  7 active torsions:
REMARK  status: ('A' for Active; 'I' for Inactive)
REMARK    1  A    between atoms: C_2  and  C_4
REMARK    2  A    between atoms: C_6  and  N_7
REMARK    3  A    between atoms: C_8  and  C_10
REMARK    4  A    between atoms: C_12  and  C_13
REMARK    5  A    between atoms: C_17  and  O_18
REMARK    6  A    between atoms: O_18  and  C_19
REMARK    7  A    between atoms: N_27  and  C_28
REMARK                            x       y       z     vdW  Elec       q    Type
REMARK                         _______ _______ _______ _____ _____    ______ ____
ROOT
ATOM      1  N   UNL     1       4.250   4.963  16.677  0.00  0.00    +0.000 N 
ATOM      2  C   UNL     1       4.201   4.180  17.877  0.00  0.00    +0.000 C 
ATOM      3  O   UNL     1       5.093   3.387  18.120  0.00  0.00    +0.000 OA
ATOM      4  H   UNL     1       3.617   5.748  16.555  0.00  0.00    +0.000 HD
ENDROOT
BRANCH   2   5
ATOM      5  C   UNL     1       3.117   4.483  18.848  0.00  0.00    +0.000 A 
ATOM      6  C   UNL     1       2.814   5.842  19.094  0.00  0.00    +0.000 A 
ATOM      7  C   UNL     1       1.847   6.228  20.045  0.00  0.00    +0.000 A 
ATOM      8  C   UNL     1       1.165   5.198  20.717  0.00  0.00    +0.000 A 
ATOM      9  C   UNL     1       1.447   3.853  20.474  0.00  0.00    +0.000 A 
ATOM     10  C   UNL     1       2.424   3.490  19.547  0.00  0.00    +0.000 A 
ATOM     11 CL   UNL     1       2.723   1.800  19.355  0.00  0.00    +0.000 Cl
BRANCH   7  12
ATOM     12  C   UNL     1       1.564   7.651  20.344  0.00  0.00    +0.000 A 
ATOM     13  C   UNL     1       1.528   8.143  21.648  0.00  0.00    +0.000 A 
ATOM     14  C   UNL     1       1.247   9.487  21.865  0.00  0.00    +0.000 A 
ATOM     15  C   UNL     1       1.016  10.317  20.776  0.00  0.00    +0.000 A 
ATOM     16  C   UNL     1       1.058   9.765  19.502  0.00  0.00    +0.000 A 
ATOM     17  N   UNL     1       1.336   8.457  19.277  0.00  0.00    +0.000 NA
BRANCH  16  18
ATOM     18  O   UNL     1       0.860  10.472  18.352  0.00  0.00    +0.000 OA
BRANCH  18  19
ATOM     19  C   UNL     1      -0.483  10.841  18.119  0.00  0.00    +0.000 C 
ATOM     20  F   UNL     1      -1.297   9.907  18.672  0.00  0.00    +0.000 F 
ATOM     21  F   UNL     1      -0.713  11.999  18.789  0.00  0.00    +0.000 F 
ENDBRANCH  18  19
ENDBRANCH  16  18
ENDBRANCH   7  12
ENDBRANCH   2   5
BRANCH   1  24
ATOM     22  C   UNL     1       6.400   4.406  13.869  0.00  0.00    +0.000 A 
ATOM     23  C   UNL     1       5.180   4.132  14.543  0.00  0.00    +0.000 A 
ATOM     24  C   UNL     1       5.263   4.806  15.735  0.00  0.00    +0.000 A 
ATOM     25  N   UNL     1       6.515   5.404  15.758  0.00  0.00    +0.000 N 
ATOM     26  N   UNL     1       7.180   5.237  14.589  0.00  0.00    +0.000 NA
BRANCH  25  27
ATOM     27  C   UNL     1       7.110   6.088  16.850  0.00  0.00    +0.000 A 
ATOM     28  C   UNL     1       7.263   7.485  16.820  0.00  0.00    +0.000 A 
ATOM     29  C   UNL     1       7.889   8.142  17.876  0.00  0.00    +0.000 A 
ATOM     30  C   UNL     1       8.363   7.414  18.964  0.00  0.00    +0.000 A 
ATOM     31  C   UNL     1       8.180   6.031  19.015  0.00  0.00    +0.000 A 
ATOM     32  C   UNL     1       7.539   5.366  17.970  0.00  0.00    +0.000 A 
ENDBRANCH  25  27
BRANCH  22  34
ATOM     33  N   UNL     1       6.236   2.704  12.201  0.00  0.00    +0.000 N 
ATOM     34  C   UNL     1       6.802   3.899  12.550  0.00  0.00    +0.000 C 
ATOM     35  O   UNL     1       7.565   4.497  11.804  0.00  0.00    +0.000 OA
ATOM     36  H   UNL     1       6.415   2.322  11.286  0.00  0.00    +0.000 HD
ATOM     37  H   UNL     1       5.562   2.266  12.818  0.00  0.00    +0.000 HD
ENDBRANCH  22  34
ENDBRANCH   1  24
TORSDOF 7
ENDMDL
MODEL 6
REMARK VINA RESULT:      -8.8      3.614      5.399
REMARK  Name = 
REMARK  7 active torsions:
REMARK  status: ('A' for Active; 'I' for Inactive)
REMARK    1  A    between atoms: C_2  and  C_4
REMARK    2  A    between atoms: C_6  and  N_7
REMARK    3  A    between atoms: C_8  and  C_10
REMARK    4  A    between atoms: C_12  and  C_13
REMARK    5  A    between atoms: C_17  and  O_18
REMARK    6  A    between atoms: O_18  and  C_19
REMARK    7  A    between atoms: N_27  and  C_28
REMARK                            x       y       z     vdW  Elec       q    Type
REMARK                         _______ _______ _______ _____ _____    ______ ____
ROOT
ATOM      1  N   UNL     1       3.561   7.133  18.483  0.00  0.00    +0.000 N 
ATOM      2  C   UNL     1       2.288   7.724  18.197  0.00  0.00    +0.000 C 
ATOM      3  O   UNL     1       1.671   7.384  17.202  0.00  0.00    +0.000 OA
ATOM      4  H   UNL     1       3.994   7.270  19.391  0.00  0.00    +0.000 HD
ENDROOT
BRANCH   2   5
ATOM      5  C   UNL     1       1.710   8.635  19.220  0.00  0.00    +0.000 A 
ATOM      6  C   UNL     1       1.557   9.998  18.877  0.00  0.00    +0.000 A 
ATOM      7  C   UNL     1       1.077  10.948  19.803  0.00  0.00    +0.000 A 
ATOM      8  C   UNL     1       0.721  10.475  21.078  0.00  0.00    +0.000 A 
ATOM      9  C   UNL     1       0.857   9.130  21.424  0.00  0.00    +0.000 A 
ATOM     10  C   UNL     1       1.356   8.208  20.504  0.00  0.00    +0.000 A 
ATOM     11 CL   UNL     1       1.523   6.579  21.049  0.00  0.00    +0.000 Cl
BRANCH   7  12
ATOM     12  C   UNL     1       0.965  12.386  19.464  0.00  0.00    +0.000 A 
ATOM     13  C   UNL     1      -0.268  13.019  19.311  0.00  0.00    +0.000 A 
ATOM     14  C   UNL     1      -0.308  14.369  18.982  0.00  0.00    +0.000 A 
ATOM     15  C   UNL     1       0.883  15.064  18.820  0.00  0.00    +0.000 A 
ATOM     16  C   UNL     1       2.079  14.376  18.977  0.00  0.00    +0.000 A 
ATOM     17  N   UNL     1       2.131  13.060  19.303  0.00  0.00    +0.000 NA
BRANCH  16  18
ATOM     18  O   UNL     1       3.313  14.943  18.857  0.00  0.00    +0.000 OA
BRANCH  18  19
ATOM     19  C   UNL     1       3.610  15.423  17.562  0.00  0.00    +0.000 C 
ATOM     20  F   UNL     1       3.551  16.779  17.574  0.00  0.00    +0.000 F 
ATOM     21  F   UNL     1       4.898  15.095  17.287  0.00  0.00    +0.000 F 
ENDBRANCH  18  19
ENDBRANCH  16  18
ENDBRANCH   7  12
ENDBRANCH   2   5
BRANCH   1  24
ATOM     22  C   UNL     1       5.503   5.220  16.162  0.00  0.00    +0.000 A 
ATOM     23  C   UNL     1       5.064   6.488  16.629  0.00  0.00    +0.000 A 
ATOM     24  C   UNL     1       4.158   6.214  17.623  0.00  0.00    +0.000 A 
ATOM     25  N   UNL     1       4.050   4.833  17.683  0.00  0.00    +0.000 N 
ATOM     26  N   UNL     1       4.929   4.217  16.855  0.00  0.00    +0.000 NA
BRANCH  25  27
ATOM     27  C   UNL     1       3.127   4.086  18.460  0.00  0.00    +0.000 A 
ATOM     28  C   UNL     1       3.450   3.693  19.770  0.00  0.00    +0.000 A 
ATOM     29  C   UNL     1       2.556   2.920  20.508  0.00  0.00    +0.000 A 
ATOM     30  C   UNL     1       1.340   2.539  19.948  0.00  0.00    +0.000 A 
ATOM     31  C   UNL     1       1.000   2.959  18.661  0.00  0.00    +0.000 A 
ATOM     32  C   UNL     1       1.881   3.746  17.920  0.00  0.00    +0.000 A 
ENDBRANCH  25  27
BRANCH  22  34
ATOM     33  N   UNL     1       6.082   4.038  14.168  0.00  0.00    +0.000 N 
ATOM     34  C   UNL     1       6.472   4.975  15.085  0.00  0.00    +0.000 C 
ATOM     35  O   UNL     1       7.537   5.570  14.989  0.00  0.00    +0.000 OA
ATOM     36  H   UNL     1       6.666   3.858  13.366  0.00  0.00    +0.000 HD
ATOM     37  H   UNL     1       5.167   3.608  14.245  0.00  0.00    +0.000 HD
ENDBRANCH  22  34
ENDBRANCH   1  24
TORSDOF 7
ENDMDL
MODEL 7
REMARK VINA RESULT:      -8.8      3.564      5.386
REMARK  Name = 
REMARK  7 active torsions:
REMARK  status: ('A' for Active; 'I' for Inactive)
REMARK    1  A    between atoms: C_2  and  C_4
REMARK    2  A    between atoms: C_6  and  N_7
REMARK    3  A    between atoms: C_8  and  C_10
REMARK    4  A    between atoms: C_12  and  C_13
REMARK    5  A    between atoms: C_17  and  O_18
REMARK    6  A    between atoms: O_18  and  C_19
REMARK    7  A    between atoms: N_27  and  C_28
REMARK                            x       y       z     vdW  Elec       q    Type
REMARK                         _______ _______ _______ _____ _____    ______ ____
ROOT
ATOM      1  N   UNL     1       3.466   7.166  18.416  0.00  0.00    +0.000 N 
ATOM      2  C   UNL     1       2.181   7.755  18.184  0.00  0.00    +0.000 C 
ATOM      3  O   UNL     1       1.508   7.390  17.236  0.00  0.00    +0.000 OA
ATOM      4  H   UNL     1       3.950   7.326  19.294  0.00  0.00    +0.000 HD
ENDROOT
BRANCH   2   5
ATOM      5  C   UNL     1       1.664   8.697  19.212  0.00  0.00    +0.000 A 
ATOM      6  C   UNL     1       1.551  10.061  18.857  0.00  0.00    +0.000 A 
ATOM      7  C   UNL     1       1.131  11.038  19.784  0.00  0.00    +0.000 A 
ATOM      8  C   UNL     1       0.792  10.592  21.073  0.00  0.00    +0.000 A 
ATOM      9  C   UNL     1       0.889   9.246  21.432  0.00  0.00    +0.000 A 
ATOM     10  C   UNL     1       1.329   8.298  20.509  0.00  0.00    +0.000 A 
ATOM     11 CL   UNL     1       1.451   6.669  21.069  0.00  0.00    +0.000 Cl
BRANCH   7  12
ATOM     12  C   UNL     1       1.063  12.476  19.431  0.00  0.00    +0.000 A 
ATOM     13  C   UNL     1      -0.144  13.113  19.142  0.00  0.00    +0.000 A 
ATOM     14  C   UNL     1      -0.143  14.461  18.808  0.00  0.00    +0.000 A 
ATOM     15  C   UNL     1       1.062  15.152  18.777  0.00  0.00    +0.000 A 
ATOM     16  C   UNL     1       2.230  14.460  19.067  0.00  0.00    +0.000 A 
ATOM     17  N   UNL     1       2.241  13.146  19.400  0.00  0.00    +0.000 NA
BRANCH  16  18
ATOM     18  O   UNL     1       3.473  15.023  19.082  0.00  0.00    +0.000 OA
BRANCH  18  19
ATOM     19  C   UNL     1       4.269  14.708  17.959  0.00  0.00    +0.000 C 
ATOM     20  F   UNL     1       3.912  15.516  16.929  0.00  0.00    +0.000 F 
ATOM     21  F   UNL     1       5.554  15.019  18.267  0.00  0.00    +0.000 F 
ENDBRANCH  18  19
ENDBRANCH  16  18
ENDBRANCH   7  12
ENDBRANCH   2   5
BRANCH   1  24
ATOM     22  C   UNL     1       5.269   5.180  16.045  0.00  0.00    +0.000 A 
ATOM     23  C   UNL     1       4.859   6.462  16.499  0.00  0.00    +0.000 A 
ATOM     24  C   UNL     1       4.011   6.220  17.550  0.00  0.00    +0.000 A 
ATOM     25  N   UNL     1       3.903   4.842  17.656  0.00  0.00    +0.000 N 
ATOM     26  N   UNL     1       4.733   4.199  16.799  0.00  0.00    +0.000 NA
BRANCH  25  27
ATOM     27  C   UNL     1       3.024   4.121  18.506  0.00  0.00    +0.000 A 
ATOM     28  C   UNL     1       1.737   3.765  18.066  0.00  0.00    +0.000 A 
ATOM     29  C   UNL     1       0.865   3.098  18.923  0.00  0.00    +0.000 A 
ATOM     30  C   UNL     1       1.270   2.782  20.217  0.00  0.00    +0.000 A 
ATOM     31  C   UNL     1       2.560   3.100  20.646  0.00  0.00    +0.000 A 
ATOM     32  C   UNL     1       3.446   3.753  19.789  0.00  0.00    +0.000 A 
ENDBRANCH  25  27
BRANCH  22  34
ATOM     33  N   UNL     1       7.405   5.486  15.021  0.00  0.00    +0.000 N 
ATOM     34  C   UNL     1       6.174   4.899  14.922  0.00  0.00    +0.000 C 
ATOM     35  O   UNL     1       5.872   4.183  13.977  0.00  0.00    +0.000 OA
ATOM     36  H   UNL     1       8.102   5.291  14.319  0.00  0.00    +0.000 HD
ATOM     37  H   UNL     1       7.642   6.025  15.845  0.00  0.00    +0.000 HD
ENDBRANCH  22  34
ENDBRANCH   1  24
TORSDOF 7
ENDMDL
MODEL 8
REMARK VINA RESULT:      -8.7      4.521      6.491
REMARK  Name = 
REMARK  7 active torsions:
REMARK  status: ('A' for Active; 'I' for Inactive)
REMARK    1  A    between atoms: C_2  and  C_4
REMARK    2  A    between atoms: C_6  and  N_7
REMARK    3  A    between atoms: C_8  and  C_10
REMARK    4  A    between atoms: C_12  and  C_13
REMARK    5  A    between atoms: C_17  and  O_18
REMARK    6  A    between atoms: O_18  and  C_19
REMARK    7  A    between atoms: N_27  and  C_28
REMARK                            x       y       z     vdW  Elec       q    Type
REMARK                         _______ _______ _______ _____ _____    ______ ____
ROOT
ATOM      1  N   UNL     1       2.224   7.423  18.776  0.00  0.00    +0.000 N 
ATOM      2  C   UNL     1       1.960   8.788  18.427  0.00  0.00    +0.000 C 
ATOM      3  O   UNL     1       2.597   9.319  17.534  0.00  0.00    +0.000 OA
ATOM      4  H   UNL     1       1.584   6.920  19.384  0.00  0.00    +0.000 HD
ENDROOT
BRANCH   2   5
ATOM      5  C   UNL     1       0.806   9.453  19.087  0.00  0.00    +0.000 A 
ATOM      6  C   UNL     1      -0.299   9.807  18.279  0.00  0.00    +0.000 A 
ATOM      7  C   UNL     1      -1.411  10.499  18.803  0.00  0.00    +0.000 A 
ATOM      8  C   UNL     1      -1.393  10.790  20.178  0.00  0.00    +0.000 A 
ATOM      9  C   UNL     1      -0.312  10.436  20.988  0.00  0.00    +0.000 A 
ATOM     10  C   UNL     1       0.790   9.774  20.447  0.00  0.00    +0.000 A 
ATOM     11 CL   UNL     1       2.090   9.419  21.528  0.00  0.00    +0.000 Cl
BRANCH   7  12
ATOM     12  C   UNL     1      -2.548  10.918  17.950  0.00  0.00    +0.000 A 
ATOM     13  C   UNL     1      -3.751  11.375  18.487  0.00  0.00    +0.000 A 
ATOM     14  C   UNL     1      -4.784  11.745  17.635  0.00  0.00    +0.000 A 
ATOM     15  C   UNL     1      -4.595  11.660  16.262  0.00  0.00    +0.000 A 
ATOM     16  C   UNL     1      -3.377  11.189  15.788  0.00  0.00    +0.000 A 
ATOM     17  N   UNL     1      -2.360  10.831  16.610  0.00  0.00    +0.000 NA
BRANCH  16  18
ATOM     18  O   UNL     1      -3.062  11.068  14.467  0.00  0.00    +0.000 OA
BRANCH  18  19
ATOM     19  C   UNL     1      -3.338   9.797  13.916  0.00  0.00    +0.000 C 
ATOM     20  F   UNL     1      -4.502   9.865  13.221  0.00  0.00    +0.000 F 
ATOM     21  F   UNL     1      -2.364   9.522  13.011  0.00  0.00    +0.000 F 
ENDBRANCH  18  19
ENDBRANCH  16  18
ENDBRANCH   7  12
ENDBRANCH   2   5
BRANCH   1  24
ATOM     22  C   UNL     1       5.116   6.074  17.153  0.00  0.00    +0.000 A 
ATOM     23  C   UNL     1       4.252   7.179  17.384  0.00  0.00    +0.000 A 
ATOM     24  C   UNL     1       3.237   6.688  18.167  0.00  0.00    +0.000 A 
ATOM     25  N   UNL     1       3.491   5.334  18.331  0.00  0.00    +0.000 N 
ATOM     26  N   UNL     1       4.679   4.969  17.789  0.00  0.00    +0.000 NA
BRANCH  25  27
ATOM     27  C   UNL     1       2.639   4.378  18.944  0.00  0.00    +0.000 A 
ATOM     28  C   UNL     1       2.637   4.215  20.340  0.00  0.00    +0.000 A 
ATOM     29  C   UNL     1       1.832   3.243  20.929  0.00  0.00    +0.000 A 
ATOM     30  C   UNL     1       1.026   2.433  20.132  0.00  0.00    +0.000 A 
ATOM     31  C   UNL     1       0.998   2.617  18.749  0.00  0.00    +0.000 A 
ATOM     32  C   UNL     1       1.788   3.599  18.152  0.00  0.00    +0.000 A 
ENDBRANCH  25  27
BRANCH  22  34
ATOM     33  N   UNL     1       7.386   6.778  16.912  0.00  0.00    +0.000 N 
ATOM     34  C   UNL     1       6.348   6.083  16.354  0.00  0.00    +0.000 C 
ATOM     35  O   UNL     1       6.461   5.501  15.284  0.00  0.00    +0.000 OA
ATOM     36  H   UNL     1       8.283   6.780  16.452  0.00  0.00    +0.000 HD
ATOM     37  H   UNL     1       7.276   7.199  17.827  0.00  0.00    +0.000 HD
ENDBRANCH  22  34
ENDBRANCH   1  24
TORSDOF 7
ENDMDL
MODEL 9
REMARK VINA RESULT:      -8.6      2.757      4.267
REMARK  Name = 
REMARK  7 active torsions:
REMARK  status: ('A' for Active; 'I' for Inactive)
REMARK    1  A    between atoms: C_2  and  C_4
REMARK    2  A    between atoms: C_6  and  N_7
REMARK    3  A    between atoms: C_8  and  C_10
REMARK    4  A    between atoms: C_12  and  C_13
REMARK    5  A    between atoms: C_17  and  O_18
REMARK    6  A    between atoms: O_18  and  C_19
REMARK    7  A    between atoms: N_27  and  C_28
REMARK                            x       y       z     vdW  Elec       q    Type
REMARK                         _______ _______ _______ _____ _____    ______ ____
ROOT
ATOM      1  N   UNL     1       3.803   6.655  18.083  0.00  0.00    +0.000 N 
ATOM      2  C   UNL     1       2.396   6.927  18.071  0.00  0.00    +0.000 C 
ATOM      3  O   UNL     1       1.674   6.352  17.275  0.00  0.00    +0.000 OA
ATOM      4  H   UNL     1       4.379   6.984  18.852  0.00  0.00    +0.000 HD
ENDROOT
BRANCH   2   5
ATOM      5  C   UNL     1       1.858   7.805  19.144  0.00  0.00    +0.000 A 
ATOM      6  C   UNL     1       1.555   9.144  18.807  0.00  0.00    +0.000 A 
ATOM      7  C   UNL     1       1.102  10.068  19.772  0.00  0.00    +0.000 A 
ATOM      8  C   UNL     1       0.927   9.591  21.083  0.00  0.00    +0.000 A 
ATOM      9  C   UNL     1       1.212   8.267  21.424  0.00  0.00    +0.000 A 
ATOM     10  C   UNL     1       1.683   7.374  20.462  0.00  0.00    +0.000 A 
ATOM     11 CL   UNL     1       2.043   5.773  21.001  0.00  0.00    +0.000 Cl
BRANCH   7  12
ATOM     12  C   UNL     1       0.834  11.486  19.435  0.00  0.00    +0.000 A 
ATOM     13  C   UNL     1       1.761  12.276  18.756  0.00  0.00    +0.000 A 
ATOM     14  C   UNL     1       1.456  13.603  18.478  0.00  0.00    +0.000 A 
ATOM     15  C   UNL     1       0.228  14.115  18.874  0.00  0.00    +0.000 A 
ATOM     16  C   UNL     1      -0.650  13.281  19.555  0.00  0.00    +0.000 A 
ATOM     17  N   UNL     1      -0.365  11.983  19.827  0.00  0.00    +0.000 NA
BRANCH  16  18
ATOM     18  O   UNL     1      -1.887  13.656  19.987  0.00  0.00    +0.000 OA
BRANCH  18  19
ATOM     19  C   UNL     1      -2.763  12.580  20.252  0.00  0.00    +0.000 C 
ATOM     20  F   UNL     1      -3.678  12.977  21.172  0.00  0.00    +0.000 F 
ATOM     21  F   UNL     1      -3.451  12.320  19.112  0.00  0.00    +0.000 F 
ENDBRANCH  18  19
ENDBRANCH  16  18
ENDBRANCH   7  12
ENDBRANCH   2   5
BRANCH   1  24
ATOM     22  C   UNL     1       5.691   4.916  15.588  0.00  0.00    +0.000 A 
ATOM     23  C   UNL     1       5.198   6.142  16.108  0.00  0.00    +0.000 A 
ATOM     24  C   UNL     1       4.396   5.792  17.165  0.00  0.00    +0.000 A 
ATOM     25  N   UNL     1       4.393   4.406  17.211  0.00  0.00    +0.000 N 
ATOM     26  N   UNL     1       5.248   3.865  16.308  0.00  0.00    +0.000 NA
BRANCH  25  27
ATOM     27  C   UNL     1       3.591   3.585  18.046  0.00  0.00    +0.000 A 
ATOM     28  C   UNL     1       2.350   3.104  17.594  0.00  0.00    +0.000 A 
ATOM     29  C   UNL     1       1.549   2.337  18.437  0.00  0.00    +0.000 A 
ATOM     30  C   UNL     1       1.981   2.044  19.728  0.00  0.00    +0.000 A 
ATOM     31  C   UNL     1       3.229   2.489  20.167  0.00  0.00    +0.000 A 
ATOM     32  C   UNL     1       4.045   3.244  19.325  0.00  0.00    +0.000 A 
ENDBRANCH  25  27
BRANCH  22  34
ATOM     33  N   UNL     1       7.726   5.508  14.487  0.00  0.00    +0.000 N 
ATOM     34  C   UNL     1       6.586   4.753  14.435  0.00  0.00    +0.000 C 
ATOM     35  O   UNL     1       6.356   3.992  13.506  0.00  0.00    +0.000 OA
ATOM     36  H   UNL     1       8.419   5.406  13.761  0.00  0.00    +0.000 HD
ATOM     37  H   UNL     1       7.913   6.083  15.299  0.00  0.00    +0.000 HD
ENDBRANCH  22  34
ENDBRANCH   1  24
TORSDOF 7
ENDMDL
