MODEL 1
REMARK VINA RESULT:      -7.3      0.000      0.000
REMARK  Name = 
REMARK  7 active torsions:
REMARK  status: ('A' for Active; 'I' for Inactive)
REMARK    1  A    between atoms: C_1  and  C_2
REMARK    2  A    between atoms: C_2  and  C_3
REMARK    3  A    between atoms: C_2  and  O_4
REMARK    4  A    between atoms: O_4  and  C_5
REMARK    5  A    between atoms: C_9  and  N_10
REMARK    6  A    between atoms: C_11  and  C_13
REMARK    7  A    between atoms: C_19  and  O_20
REMARK                            x       y       z     vdW  Elec       q    Type
REMARK                         _______ _______ _______ _____ _____    ______ ____
ROOT
ATOM      1  N   UNL     1       2.323   6.770  20.053  0.00  0.00    +0.000 N 
ATOM      2  C   UNL     1       2.023   7.704  19.080  0.00  0.00    +0.000 C 
ATOM      3  O   UNL     1       2.249   7.570  17.878  0.00  0.00    +0.000 OA
ATOM      4  H   UNL     1       2.123   7.048  21.011  0.00  0.00    +0.000 HD
ENDROOT
BRANCH   2   5
ATOM      5  C   UNL     1       1.410   8.992  19.531  0.00  0.00    +0.000 A 
ATOM      6  C   UNL     1       0.859   8.994  20.825  0.00  0.00    +0.000 A 
ATOM      7  C   UNL     1       0.240  10.133  21.332  0.00  0.00    +0.000 A 
ATOM      8 CL   UNL     1      -0.454  10.098  22.905  0.00  0.00    +0.000 Cl
ATOM      9  C   UNL     1       0.171  11.293  20.568  0.00  0.00    +0.000 A 
ATOM     10  C   UNL     1       0.724  11.314  19.286  0.00  0.00    +0.000 A 
ATOM     11  C   UNL     1       1.333  10.165  18.766  0.00  0.00    +0.000 A 
BRANCH  11  12
ATOM     12  O   UNL     1       1.842  10.212  17.493  0.00  0.00    +0.000 OA
ATOM     13  H   UNL     1       2.790   9.988  17.525  0.00  0.00    +0.000 HD
ENDBRANCH  11  12
ENDBRANCH   2   5
BRANCH   1  18
ATOM     14  C   UNL     1       4.931   4.256  19.325  0.00  0.00    +0.000 A 
ATOM     15  C   UNL     1       4.222   3.058  19.437  0.00  0.00    +0.000 A 
ATOM     16  C   UNL     1       2.875   3.079  19.776  0.00  0.00    +0.000 A 
ATOM     17  C   UNL     1       2.230   4.298  19.996  0.00  0.00    +0.000 A 
ATOM     18  C   UNL     1       2.917   5.506  19.857  0.00  0.00    +0.000 A 
ATOM     19  C   UNL     1       4.273   5.475  19.511  0.00  0.00    +0.000 A 
BRANCH  14  20
ATOM     20  O   UNL     1       6.245   4.138  18.970  0.00  0.00    +0.000 OA
BRANCH  20  22
ATOM     21  C   UNL     1       7.907   5.853  18.995  0.00  0.00    +0.000 C 
ATOM     22  C   UNL     1       6.794   5.202  18.181  0.00  0.00    +0.000 C 
ATOM     23  C   UNL     1       7.346   4.611  16.889  0.00  0.00    +0.000 C 
ENDBRANCH  20  22
ENDBRANCH  14  20
ENDBRANCH   1  18
TORSDOF 5
ENDMDL
MODEL 2
REMARK VINA RESULT:      -7.1      4.436      7.638
REMARK  Name = 
REMARK  7 active torsions:
REMARK  status: ('A' for Active; 'I' for Inactive)
REMARK    1  A    between atoms: C_1  and  C_2
REMARK    2  A    between atoms: C_2  and  C_3
REMARK    3  A    between atoms: C_2  and  O_4
REMARK    4  A    between atoms: O_4  and  C_5
REMARK    5  A    between atoms: C_9  and  N_10
REMARK    6  A    between atoms: C_11  and  C_13
REMARK    7  A    between atoms: C_19  and  O_20
REMARK                            x       y       z     vdW  Elec       q    Type
REMARK                         _______ _______ _______ _____ _____    ______ ____
ROOT
ATOM      1  N   UNL     1       4.549   6.037  16.522  0.00  0.00    +0.000 N 
ATOM      2  C   UNL     1       4.829   4.755  16.090  0.00  0.00    +0.000 C 
ATOM      3  O   UNL     1       4.426   3.724  16.628  0.00  0.00    +0.000 OA
ATOM      4  H   UNL     1       4.998   6.788  16.002  0.00  0.00    +0.000 HD
ENDROOT
BRANCH   2   5
ATOM      5  C   UNL     1       5.719   4.612  14.896  0.00  0.00    +0.000 A 
ATOM      6  C   UNL     1       5.248   3.769  13.873  0.00  0.00    +0.000 A 
ATOM      7  C   UNL     1       6.011   3.544  12.730  0.00  0.00    +0.000 A 
ATOM      8 CL   UNL     1       5.426   2.484  11.509  0.00  0.00    +0.000 Cl
ATOM      9  C   UNL     1       7.245   4.165  12.578  0.00  0.00    +0.000 A 
ATOM     10  C   UNL     1       7.724   5.015  13.577  0.00  0.00    +0.000 A 
ATOM     11  C   UNL     1       6.967   5.231  14.736  0.00  0.00    +0.000 A 
BRANCH  11  12
ATOM     12  O   UNL     1       7.478   6.051  15.710  0.00  0.00    +0.000 OA
ATOM     13  H   UNL     1       7.139   5.758  16.576  0.00  0.00    +0.000 HD
ENDBRANCH  11  12
ENDBRANCH   2   5
BRANCH   1  18
ATOM     14  C   UNL     1       2.834   5.760  19.783  0.00  0.00    +0.000 A 
ATOM     15  C   UNL     1       2.198   6.998  19.886  0.00  0.00    +0.000 A 
ATOM     16  C   UNL     1       2.353   7.943  18.878  0.00  0.00    +0.000 A 
ATOM     17  C   UNL     1       3.137   7.648  17.761  0.00  0.00    +0.000 A 
ATOM     18  C   UNL     1       3.754   6.402  17.629  0.00  0.00    +0.000 A 
ATOM     19  C   UNL     1       3.589   5.456  18.647  0.00  0.00    +0.000 A 
BRANCH  14  20
ATOM     20  O   UNL     1       2.609   4.889  20.812  0.00  0.00    +0.000 OA
BRANCH  20  22
ATOM     21  C   UNL     1       2.505   2.662  21.667  0.00  0.00    +0.000 C 
ATOM     22  C   UNL     1       2.255   3.548  20.451  0.00  0.00    +0.000 C 
ATOM     23  C   UNL     1       0.782   3.525  20.061  0.00  0.00    +0.000 C 
ENDBRANCH  20  22
ENDBRANCH  14  20
ENDBRANCH   1  18
TORSDOF 5
ENDMDL
MODEL 3
REMARK VINA RESULT:      -7.0      4.068      6.225
REMARK  Name = 
REMARK  7 active torsions:
REMARK  status: ('A' for Active; 'I' for Inactive)
REMARK    1  A    between atoms: C_1  and  C_2
REMARK    2  A    between atoms: C_2  and  C_3
REMARK    3  A    between atoms: C_2  and  O_4
REMARK    4  A    between atoms: O_4  and  C_5
REMARK    5  A    between atoms: C_9  and  N_10
REMARK    6  A    between atoms: C_11  and  C_13
REMARK    7  A    between atoms: C_19  and  O_20
REMARK                            x       y       z     vdW  Elec       q    Type
REMARK                         _______ _______ _______ _____ _____    ______ ____
ROOT
ATOM      1  N   UNL     1       4.577   4.403  16.735  0.00  0.00    +0.000 N 
ATOM      2  C   UNL     1       3.905   5.402  17.412  0.00  0.00    +0.000 C 
ATOM      3  O   UNL     1       4.094   6.609  17.260  0.00  0.00    +0.000 OA
ATOM      4  H   UNL     1       4.346   3.451  17.009  0.00  0.00    +0.000 HD
ENDROOT
BRANCH   2   5
ATOM      5  C   UNL     1       2.897   4.982  18.435  0.00  0.00    +0.000 A 
ATOM      6  C   UNL     1       2.228   3.771  18.180  0.00  0.00    +0.000 A 
ATOM      7  C   UNL     1       1.251   3.301  19.054  0.00  0.00    +0.000 A 
ATOM      8 CL   UNL     1       0.426   1.834  18.702  0.00  0.00    +0.000 Cl
ATOM      9  C   UNL     1       0.935   4.019  20.202  0.00  0.00    +0.000 A 
ATOM     10  C   UNL     1       1.597   5.216  20.479  0.00  0.00    +0.000 A 
ATOM     11  C   UNL     1       2.569   5.701  19.594  0.00  0.00    +0.000 A 
BRANCH  11  12
ATOM     12  O   UNL     1       3.181   6.894  19.881  0.00  0.00    +0.000 OA
ATOM     13  H   UNL     1       2.516   7.605  19.846  0.00  0.00    +0.000 HD
ENDBRANCH  11  12
ENDBRANCH   2   5
BRANCH   1  18
ATOM     14  C   UNL     1       6.227   4.259  13.432  0.00  0.00    +0.000 A 
ATOM     15  C   UNL     1       7.468   4.839  13.700  0.00  0.00    +0.000 A 
ATOM     16  C   UNL     1       7.756   5.301  14.978  0.00  0.00    +0.000 A 
ATOM     17  C   UNL     1       6.807   5.176  15.995  0.00  0.00    +0.000 A 
ATOM     18  C   UNL     1       5.573   4.570  15.751  0.00  0.00    +0.000 A 
ATOM     19  C   UNL     1       5.293   4.104  14.461  0.00  0.00    +0.000 A 
BRANCH  14  20
ATOM     20  O   UNL     1       6.040   3.818  12.152  0.00  0.00    +0.000 OA
BRANCH  20  22
ATOM     21  C   UNL     1       4.004   3.157  11.094  0.00  0.00    +0.000 C 
ATOM     22  C   UNL     1       5.157   2.702  11.981  0.00  0.00    +0.000 C 
ATOM     23  C   UNL     1       5.932   1.569  11.319  0.00  0.00    +0.000 C 
ENDBRANCH  20  22
ENDBRANCH  14  20
ENDBRANCH   1  18
TORSDOF 5
ENDMDL
MODEL 4
REMARK VINA RESULT:      -7.0      4.842      8.055
REMARK  Name = 
REMARK  7 active torsions:
REMARK  status: ('A' for Active; 'I' for Inactive)
REMARK    1  A    between atoms: C_1  and  C_2
REMARK    2  A    between atoms: C_2  and  C_3
REMARK    3  A    between atoms: C_2  and  O_4
REMARK    4  A    between atoms: O_4  and  C_5
REMARK    5  A    between atoms: C_9  and  N_10
REMARK    6  A    between atoms: C_11  and  C_13
REMARK    7  A    between atoms: C_19  and  O_20
REMARK                            x       y       z     vdW  Elec       q    Type
REMARK                         _______ _______ _______ _____ _____    ______ ____
ROOT
ATOM      1  N   UNL     1       4.684   4.971  15.945  0.00  0.00    +0.000 N 
ATOM      2  C   UNL     1       6.032   4.942  15.646  0.00  0.00    +0.000 C 
ATOM      3  O   UNL     1       6.938   5.185  16.444  0.00  0.00    +0.000 OA
ATOM      4  H   UNL     1       4.054   4.799  15.164  0.00  0.00    +0.000 HD
ENDROOT
BRANCH   2   5
ATOM      5  C   UNL     1       6.417   4.625  14.236  0.00  0.00    +0.000 A 
ATOM      6  C   UNL     1       5.547   3.769  13.536  0.00  0.00    +0.000 A 
ATOM      7  C   UNL     1       5.826   3.389  12.226  0.00  0.00    +0.000 A 
ATOM      8 CL   UNL     1       4.762   2.317  11.404  0.00  0.00    +0.000 Cl
ATOM      9  C   UNL     1       6.965   3.864  11.586  0.00  0.00    +0.000 A 
ATOM     10  C   UNL     1       7.834   4.724  12.260  0.00  0.00    +0.000 A 
ATOM     11  C   UNL     1       7.566   5.096  13.583  0.00  0.00    +0.000 A 
BRANCH  11  12
ATOM     12  O   UNL     1       8.454   5.921  14.226  0.00  0.00    +0.000 OA
ATOM     13  H   UNL     1       9.360   5.620  14.029  0.00  0.00    +0.000 HD
ENDBRANCH  11  12
ENDBRANCH   2   5
BRANCH   1  18
ATOM     14  C   UNL     1       3.236   4.406  19.297  0.00  0.00    +0.000 A 
ATOM     15  C   UNL     1       2.934   5.706  19.708  0.00  0.00    +0.000 A 
ATOM     16  C   UNL     1       3.230   6.782  18.880  0.00  0.00    +0.000 A 
ATOM     17  C   UNL     1       3.821   6.560  17.633  0.00  0.00    +0.000 A 
ATOM     18  C   UNL     1       4.100   5.264  17.195  0.00  0.00    +0.000 A 
ATOM     19  C   UNL     1       3.795   4.186  18.035  0.00  0.00    +0.000 A 
BRANCH  14  20
ATOM     20  O   UNL     1       2.893   3.412  20.169  0.00  0.00    +0.000 OA
BRANCH  20  22
ATOM     21  C   UNL     1       0.726   2.703  19.460  0.00  0.00    +0.000 C 
ATOM     22  C   UNL     1       1.521   3.365  20.580  0.00  0.00    +0.000 C 
ATOM     23  C   UNL     1       1.428   2.547  21.863  0.00  0.00    +0.000 C 
ENDBRANCH  20  22
ENDBRANCH  14  20
ENDBRANCH   1  18
TORSDOF 5
ENDMDL
MODEL 5
REMARK VINA RESULT:      -7.0      1.724      2.057
REMARK  Name = 
REMARK  7 active torsions:
REMARK  status: ('A' for Active; 'I' for Inactive)
REMARK    1  A    between atoms: C_1  and  C_2
REMARK    2  A    between atoms: C_2  and  C_3
REMARK    3  A    between atoms: C_2  and  O_4
REMARK    4  A    between atoms: O_4  and  C_5
REMARK    5  A    between atoms: C_9  and  N_10
REMARK    6  A    between atoms: C_11  and  C_13
REMARK    7  A    between atoms: C_19  and  O_20
REMARK                            x       y       z     vdW  Elec       q    Type
REMARK                         _______ _______ _______ _____ _____    ______ ____
ROOT
ATOM      1  N   UNL     1       1.958   6.945  19.326  0.00  0.00    +0.000 N 
ATOM      2  C   UNL     1       1.934   8.213  18.778  0.00  0.00    +0.000 C 
ATOM      3  O   UNL     1       2.520   8.549  17.748  0.00  0.00    +0.000 OA
ATOM      4  H   UNL     1       1.466   6.835  20.210  0.00  0.00    +0.000 HD
ENDROOT
BRANCH   2   5
ATOM      5  C   UNL     1       1.164   9.265  19.512  0.00  0.00    +0.000 A 
ATOM      6  C   UNL     1       0.540  10.242  18.716  0.00  0.00    +0.000 A 
ATOM      7  C   UNL     1      -0.178  11.281  19.300  0.00  0.00    +0.000 A 
ATOM      8 CL   UNL     1      -0.905  12.481  18.305  0.00  0.00    +0.000 Cl
ATOM      9  C   UNL     1      -0.301  11.358  20.683  0.00  0.00    +0.000 A 
ATOM     10  C   UNL     1       0.301  10.390  21.490  0.00  0.00    +0.000 A 
ATOM     11  C   UNL     1       1.039   9.352  20.907  0.00  0.00    +0.000 A 
BRANCH  11  12
ATOM     12  O   UNL     1       1.640   8.433  21.728  0.00  0.00    +0.000 OA
ATOM     13  H   UNL     1       2.478   8.147  21.320  0.00  0.00    +0.000 HD
ENDBRANCH  11  12
ENDBRANCH   2   5
BRANCH   1  18
ATOM     14  C   UNL     1       4.703   4.554  18.695  0.00  0.00    +0.000 A 
ATOM     15  C   UNL     1       4.088   3.614  17.867  0.00  0.00    +0.000 A 
ATOM     16  C   UNL     1       2.748   3.759  17.529  0.00  0.00    +0.000 A 
ATOM     17  C   UNL     1       2.021   4.850  18.012  0.00  0.00    +0.000 A 
ATOM     18  C   UNL     1       2.631   5.815  18.816  0.00  0.00    +0.000 A 
ATOM     19  C   UNL     1       3.982   5.663  19.148  0.00  0.00    +0.000 A 
BRANCH  14  20
ATOM     20  O   UNL     1       6.027   4.339  18.958  0.00  0.00    +0.000 OA
BRANCH  20  22
ATOM     21  C   UNL     1       7.948   5.673  19.437  0.00  0.00    +0.000 C 
ATOM     22  C   UNL     1       6.956   5.251  18.359  0.00  0.00    +0.000 C 
ATOM     23  C   UNL     1       7.669   4.536  17.218  0.00  0.00    +0.000 C 
ENDBRANCH  20  22
ENDBRANCH  14  20
ENDBRANCH   1  18
TORSDOF 5
ENDMDL
MODEL 6
REMARK VINA RESULT:      -7.0      1.994      3.200
REMARK  Name = 
REMARK  7 active torsions:
REMARK  status: ('A' for Active; 'I' for Inactive)
REMARK    1  A    between atoms: C_1  and  C_2
REMARK    2  A    between atoms: C_2  and  C_3
REMARK    3  A    between atoms: C_2  and  O_4
REMARK    4  A    between atoms: O_4  and  C_5
REMARK    5  A    between atoms: C_9  and  N_10
REMARK    6  A    between atoms: C_11  and  C_13
REMARK    7  A    between atoms: C_19  and  O_20
REMARK                            x       y       z     vdW  Elec       q    Type
REMARK                         _______ _______ _______ _____ _____    ______ ____
ROOT
ATOM      1  N   UNL     1       2.082   7.781  18.983  0.00  0.00    +0.000 N 
ATOM      2  C   UNL     1       1.630   9.018  18.565  0.00  0.00    +0.000 C 
ATOM      3  O   UNL     1       1.875   9.527  17.471  0.00  0.00    +0.000 OA
ATOM      4  H   UNL     1       1.839   7.519  19.935  0.00  0.00    +0.000 HD
ENDROOT
BRANCH   2   5
ATOM      5  C   UNL     1       0.811   9.812  19.532  0.00  0.00    +0.000 A 
ATOM      6  C   UNL     1       0.830   9.369  20.867  0.00  0.00    +0.000 A 
ATOM      7  C   UNL     1       0.081  10.021  21.843  0.00  0.00    +0.000 A 
ATOM      8 CL   UNL     1       0.097   9.439  23.461  0.00  0.00    +0.000 Cl
ATOM      9  C   UNL     1      -0.687  11.131  21.512  0.00  0.00    +0.000 A 
ATOM     10  C   UNL     1      -0.709  11.594  20.194  0.00  0.00    +0.000 A 
ATOM     11  C   UNL     1       0.031  10.931  19.206  0.00  0.00    +0.000 A 
BRANCH  11  12
ATOM     12  O   UNL     1      -0.034  11.395  17.917  0.00  0.00    +0.000 OA
ATOM     13  H   UNL     1      -0.213  12.353  17.936  0.00  0.00    +0.000 HD
ENDBRANCH  11  12
ENDBRANCH   2   5
BRANCH   1  18
ATOM     14  C   UNL     1       3.191   4.602  17.459  0.00  0.00    +0.000 A 
ATOM     15  C   UNL     1       4.373   4.981  16.820  0.00  0.00    +0.000 A 
ATOM     16  C   UNL     1       4.798   6.303  16.875  0.00  0.00    +0.000 A 
ATOM     17  C   UNL     1       4.047   7.248  17.577  0.00  0.00    +0.000 A 
ATOM     18  C   UNL     1       2.879   6.879  18.247  0.00  0.00    +0.000 A 
ATOM     19  C   UNL     1       2.460   5.544  18.190  0.00  0.00    +0.000 A 
BRANCH  14  20
ATOM     20  O   UNL     1       2.862   3.279  17.367  0.00  0.00    +0.000 OA
BRANCH  20  22
ATOM     21  C   UNL     1       1.221   2.182  18.710  0.00  0.00    +0.000 C 
ATOM     22  C   UNL     1       2.691   2.573  18.602  0.00  0.00    +0.000 C 
ATOM     23  C   UNL     1       3.578   1.334  18.577  0.00  0.00    +0.000 C 
ENDBRANCH  20  22
ENDBRANCH  14  20
ENDBRANCH   1  18
TORSDOF 5
ENDMDL
MODEL 7
REMARK VINA RESULT:      -6.9      1.521      1.629
REMARK  Name = 
REMARK  7 active torsions:
REMARK  status: ('A' for Active; 'I' for Inactive)
REMARK    1  A    between atoms: C_1  and  C_2
REMARK    2  A    between atoms: C_2  and  C_3
REMARK    3  A    between atoms: C_2  and  O_4
REMARK    4  A    between atoms: O_4  and  C_5
REMARK    5  A    between atoms: C_9  and  N_10
REMARK    6  A    between atoms: C_11  and  C_13
REMARK    7  A    between atoms: C_19  and  O_20
REMARK                            x       y       z     vdW  Elec       q    Type
REMARK                         _______ _______ _______ _____ _____    ______ ____
ROOT
ATOM      1  N   UNL     1       2.064   7.427  19.065  0.00  0.00    +0.000 N 
ATOM      2  C   UNL     1       1.771   8.660  18.517  0.00  0.00    +0.000 C 
ATOM      3  O   UNL     1       1.960   8.974  17.341  0.00  0.00    +0.000 OA
ATOM      4  H   UNL     1       1.900   7.337  20.065  0.00  0.00    +0.000 HD
ENDROOT
BRANCH   2   5
ATOM      5  C   UNL     1       1.215   9.705  19.432  0.00  0.00    +0.000 A 
ATOM      6  C   UNL     1       0.724   9.245  20.667  0.00  0.00    +0.000 A 
ATOM      7  C   UNL     1       0.161  10.131  21.582  0.00  0.00    +0.000 A 
ATOM      8 CL   UNL     1      -0.461   9.537  23.072  0.00  0.00    +0.000 Cl
ATOM      9  C   UNL     1       0.090  11.488  21.291  0.00  0.00    +0.000 A 
ATOM     10  C   UNL     1       0.584  11.966  20.075  0.00  0.00    +0.000 A 
ATOM     11  C   UNL     1       1.137  11.076  19.145  0.00  0.00    +0.000 A 
BRANCH  11  12
ATOM     12  O   UNL     1       1.588  11.573  17.949  0.00  0.00    +0.000 OA
ATOM     13  H   UNL     1       0.826  11.703  17.356  0.00  0.00    +0.000 HD
ENDBRANCH  11  12
ENDBRANCH   2   5
BRANCH   1  18
ATOM     14  C   UNL     1       4.550   5.319  17.323  0.00  0.00    +0.000 A 
ATOM     15  C   UNL     1       3.814   4.164  17.052  0.00  0.00    +0.000 A 
ATOM     16  C   UNL     1       2.491   4.070  17.467  0.00  0.00    +0.000 A 
ATOM     17  C   UNL     1       1.896   5.136  18.145  0.00  0.00    +0.000 A 
ATOM     18  C   UNL     1       2.608   6.311  18.396  0.00  0.00    +0.000 A 
ATOM     19  C   UNL     1       3.940   6.397  17.972  0.00  0.00    +0.000 A 
BRANCH  14  20
ATOM     20  O   UNL     1       5.835   5.328  16.862  0.00  0.00    +0.000 OA
BRANCH  20  22
ATOM     21  C   UNL     1       7.891   4.534  17.782  0.00  0.00    +0.000 C 
ATOM     22  C   UNL     1       6.856   5.653  17.814  0.00  0.00    +0.000 C 
ATOM     23  C   UNL     1       7.486   6.982  17.414  0.00  0.00    +0.000 C 
ENDBRANCH  20  22
ENDBRANCH  14  20
ENDBRANCH   1  18
TORSDOF 5
ENDMDL
MODEL 8
REMARK VINA RESULT:      -6.9      4.057      6.375
REMARK  Name = 
REMARK  7 active torsions:
REMARK  status: ('A' for Active; 'I' for Inactive)
REMARK    1  A    between atoms: C_1  and  C_2
REMARK    2  A    between atoms: C_2  and  C_3
REMARK    3  A    between atoms: C_2  and  O_4
REMARK    4  A    between atoms: O_4  and  C_5
REMARK    5  A    between atoms: C_9  and  N_10
REMARK    6  A    between atoms: C_11  and  C_13
REMARK    7  A    between atoms: C_19  and  O_20
REMARK                            x       y       z     vdW  Elec       q    Type
REMARK                         _______ _______ _______ _____ _____    ______ ____
ROOT
ATOM      1  N   UNL     1       4.381   4.601  16.896  0.00  0.00    +0.000 N 
ATOM      2  C   UNL     1       3.911   3.484  17.561  0.00  0.00    +0.000 C 
ATOM      3  O   UNL     1       4.319   2.336  17.387  0.00  0.00    +0.000 OA
ATOM      4  H   UNL     1       3.907   5.475  17.111  0.00  0.00    +0.000 HD
ENDROOT
BRANCH   2   5
ATOM      5  C   UNL     1       2.798   3.685  18.540  0.00  0.00    +0.000 A 
ATOM      6  C   UNL     1       2.702   4.967  19.110  0.00  0.00    +0.000 A 
ATOM      7  C   UNL     1       1.718   5.252  20.054  0.00  0.00    +0.000 A 
ATOM      8 CL   UNL     1       1.642   6.819  20.759  0.00  0.00    +0.000 Cl
ATOM      9  C   UNL     1       0.807   4.274  20.434  0.00  0.00    +0.000 A 
ATOM     10  C   UNL     1       0.879   2.999  19.870  0.00  0.00    +0.000 A 
ATOM     11  C   UNL     1       1.877   2.703  18.933  0.00  0.00    +0.000 A 
BRANCH  11  12
ATOM     12  O   UNL     1       1.937   1.433  18.418  0.00  0.00    +0.000 OA
ATOM     13  H   UNL     1       2.693   1.378  17.805  0.00  0.00    +0.000 HD
ENDBRANCH  11  12
ENDBRANCH   2   5
BRANCH   1  18
ATOM     14  C   UNL     1       6.016   4.352  13.592  0.00  0.00    +0.000 A 
ATOM     15  C   UNL     1       7.339   4.677  13.896  0.00  0.00    +0.000 A 
ATOM     16  C   UNL     1       7.692   5.003  15.200  0.00  0.00    +0.000 A 
ATOM     17  C   UNL     1       6.724   4.994  16.207  0.00  0.00    +0.000 A 
ATOM     18  C   UNL     1       5.402   4.641  15.925  0.00  0.00    +0.000 A 
ATOM     19  C   UNL     1       5.057   4.311  14.609  0.00  0.00    +0.000 A 
BRANCH  14  20
ATOM     20  O   UNL     1       5.766   4.029  12.288  0.00  0.00    +0.000 OA
BRANCH  20  22
ATOM     21  C   UNL     1       3.877   3.186  11.097  0.00  0.00    +0.000 C 
ATOM     22  C   UNL     1       5.008   2.835  12.057  0.00  0.00    +0.000 C 
ATOM     23  C   UNL     1       5.930   1.787  11.445  0.00  0.00    +0.000 C 
ENDBRANCH  20  22
ENDBRANCH  14  20
ENDBRANCH   1  18
TORSDOF 5
ENDMDL
MODEL 9
REMARK VINA RESULT:      -6.9      1.640      1.954
REMARK  Name = 
REMARK  7 active torsions:
REMARK  status: ('A' for Active; 'I' for Inactive)
REMARK    1  A    between atoms: C_1  and  C_2
REMARK    2  A    between atoms: C_2  and  C_3
REMARK    3  A    between atoms: C_2  and  O_4
REMARK    4  A    between atoms: O_4  and  C_5
REMARK    5  A    between atoms: C_9  and  N_10
REMARK    6  A    between atoms: C_11  and  C_13
REMARK    7  A    between atoms: C_19  and  O_20
REMARK                            x       y       z     vdW  Elec       q    Type
REMARK                         _______ _______ _______ _____ _____    ______ ____
ROOT
ATOM      1  N   UNL     1       2.177   7.757  19.217  0.00  0.00    +0.000 N 
ATOM      2  C   UNL     1       1.519   8.835  18.655  0.00  0.00    +0.000 C 
ATOM      3  O   UNL     1       1.300   8.980  17.452  0.00  0.00    +0.000 OA
ATOM      4  H   UNL     1       2.328   7.806  20.222  0.00  0.00    +0.000 HD
ENDROOT
BRANCH   2   5
ATOM      5  C   UNL     1       1.071   9.923  19.578  0.00  0.00    +0.000 A 
ATOM      6  C   UNL     1       0.554   9.507  20.818  0.00  0.00    +0.000 A 
ATOM      7  C   UNL     1       0.084  10.438  21.740  0.00  0.00    +0.000 A 
ATOM      8 CL   UNL     1      -0.573   9.901  23.236  0.00  0.00    +0.000 Cl
ATOM      9  C   UNL     1       0.134  11.797  21.452  0.00  0.00    +0.000 A 
ATOM     10  C   UNL     1       0.656  12.231  20.231  0.00  0.00    +0.000 A 
ATOM     11  C   UNL     1       1.115  11.296  19.294  0.00  0.00    +0.000 A 
BRANCH  11  12
ATOM     12  O   UNL     1       1.596  11.753  18.093  0.00  0.00    +0.000 OA
ATOM     13  H   UNL     1       2.404  11.257  17.870  0.00  0.00    +0.000 HD
ENDBRANCH  11  12
ENDBRANCH   2   5
BRANCH   1  18
ATOM     14  C   UNL     1       4.484   5.731  17.161  0.00  0.00    +0.000 A 
ATOM     15  C   UNL     1       3.845   4.490  17.142  0.00  0.00    +0.000 A 
ATOM     16  C   UNL     1       2.652   4.313  17.832  0.00  0.00    +0.000 A 
ATOM     17  C   UNL     1       2.089   5.381  18.535  0.00  0.00    +0.000 A 
ATOM     18  C   UNL     1       2.699   6.637  18.538  0.00  0.00    +0.000 A 
ATOM     19  C   UNL     1       3.899   6.806  17.837  0.00  0.00    +0.000 A 
BRANCH  14  20
ATOM     20  O   UNL     1       5.642   5.815  16.440  0.00  0.00    +0.000 OA
BRANCH  20  22
ATOM     21  C   UNL     1       6.923   4.581  14.847  0.00  0.00    +0.000 C 
ATOM     22  C   UNL     1       6.383   4.600  16.273  0.00  0.00    +0.000 C 
ATOM     23  C   UNL     1       7.525   4.588  17.282  0.00  0.00    +0.000 C 
ENDBRANCH  20  22
ENDBRANCH  14  20
ENDBRANCH   1  18
TORSDOF 5
ENDMDL
