MODEL 1
REMARK VINA RESULT:      -7.8      0.000      0.000
REMARK  Name = 
REMARK  8 active torsions:
REMARK  status: ('A' for Active; 'I' for Inactive)
REMARK    1  A    between atoms: C_1  and  C_2
REMARK    2  A    between atoms: C_5  and  C_6
REMARK    3  A    between atoms: C_6  and  O_8
REMARK    4  A    between atoms: C_10  and  N_11
REMARK    5  A    between atoms: C_12  and  S_13
REMARK    6  A    between atoms: N_14  and  C_15
REMARK    7  A    between atoms: C_15  and  C_16
REMARK    8  A    between atoms: C_16  and  C_17
REMARK                            x       y       z     vdW  Elec       q    Type
REMARK                         _______ _______ _______ _____ _____    ______ ____
ROOT
ATOM      1  N   UNL     1       5.974   6.517  18.118  0.00  0.00    +0.000 NA
ATOM      2  C   UNL     1       6.818   6.464  17.136  0.00  0.00    +0.000 C 
ATOM      3  N   UNL     1       7.792   7.421  16.975  0.00  0.00    +0.000 N 
ATOM      4  H   UNL     1       8.522   7.147  16.328  0.00  0.00    +0.000 HD
ENDROOT
BRANCH   1  11
ATOM      5  C   UNL     1       3.308   7.438  17.617  0.00  0.00    +0.000 C 
ATOM      6  C   UNL     1       3.602   6.127  18.304  0.00  0.00    +0.000 A 
ATOM      7  C   UNL     1       2.503   5.357  18.722  0.00  0.00    +0.000 A 
ATOM      8  C   UNL     1       2.695   4.149  19.380  0.00  0.00    +0.000 A 
ATOM      9  C   UNL     1       3.992   3.706  19.634  0.00  0.00    +0.000 A 
ATOM     10  C   UNL     1       5.098   4.464  19.205  0.00  0.00    +0.000 A 
ATOM     11  C   UNL     1       4.927   5.666  18.503  0.00  0.00    +0.000 A 
BRANCH   9  12
ATOM     12  C   UNL     1       4.151   2.407  20.338  0.00  0.00    +0.000 C 
ATOM     13  O   UNL     1       3.613   2.163  21.402  0.00  0.00    +0.000 OA
BRANCH  12  14
ATOM     14  O   UNL     1       4.984   1.547  19.713  0.00  0.00    +0.000 OA
ATOM     15  H   UNL     1       5.845   1.923  19.451  0.00  0.00    +0.000 HD
ENDBRANCH  12  14
ENDBRANCH   9  12
ENDBRANCH   1  11
BRANCH   2  16
ATOM     16  S   UNL     1       6.939   5.252  15.881  0.00  0.00    +0.000 S 
ATOM     17  H   UNL     1       5.708   5.390  15.384  0.00  0.00    +0.000 HD
ENDBRANCH   2  16
BRANCH   3  18
ATOM     18  C   UNL     1       8.213   8.245  18.098  0.00  0.00    +0.000 C 
BRANCH  18  19
ATOM     19  C   UNL     1       8.190   9.735  17.748  0.00  0.00    +0.000 C 
BRANCH  19  20
ATOM     20  C   UNL     1       9.277  10.477  18.494  0.00  0.00    +0.000 A 
ATOM     21  C   UNL     1       9.234  10.588  19.892  0.00  0.00    +0.000 A 
ATOM     22  C   UNL     1      10.205  11.325  20.576  0.00  0.00    +0.000 A 
ATOM     23  C   UNL     1      11.226  11.956  19.869  0.00  0.00    +0.000 A 
ATOM     24  C   UNL     1      11.277  11.852  18.481  0.00  0.00    +0.000 A 
ATOM     25  C   UNL     1      10.307  11.119  17.795  0.00  0.00    +0.000 A 
ENDBRANCH  19  20
ENDBRANCH  18  19
ENDBRANCH   3  18
TORSDOF 7
ENDMDL
MODEL 2
REMARK VINA RESULT:      -7.7      0.637      1.271
REMARK  Name = 
REMARK  8 active torsions:
REMARK  status: ('A' for Active; 'I' for Inactive)
REMARK    1  A    between atoms: C_1  and  C_2
REMARK    2  A    between atoms: C_5  and  C_6
REMARK    3  A    between atoms: C_6  and  O_8
REMARK    4  A    between atoms: C_10  and  N_11
REMARK    5  A    between atoms: C_12  and  S_13
REMARK    6  A    between atoms: N_14  and  C_15
REMARK    7  A    between atoms: C_15  and  C_16
REMARK    8  A    between atoms: C_16  and  C_17
REMARK                            x       y       z     vdW  Elec       q    Type
REMARK                         _______ _______ _______ _____ _____    ______ ____
ROOT
ATOM      1  N   UNL     1       5.918   6.500  17.813  0.00  0.00    +0.000 NA
ATOM      2  C   UNL     1       6.860   6.459  16.924  0.00  0.00    +0.000 C 
ATOM      3  N   UNL     1       7.853   7.408  16.889  0.00  0.00    +0.000 N 
ATOM      4  H   UNL     1       8.645   7.141  16.316  0.00  0.00    +0.000 HD
ENDROOT
BRANCH   1  11
ATOM      5  C   UNL     1       3.310   7.680  17.717  0.00  0.00    +0.000 C 
ATOM      6  C   UNL     1       3.536   6.231  18.068  0.00  0.00    +0.000 A 
ATOM      7  C   UNL     1       2.402   5.457  18.375  0.00  0.00    +0.000 A 
ATOM      8  C   UNL     1       2.534   4.120  18.728  0.00  0.00    +0.000 A 
ATOM      9  C   UNL     1       3.803   3.548  18.786  0.00  0.00    +0.000 A 
ATOM     10  C   UNL     1       4.941   4.311  18.465  0.00  0.00    +0.000 A 
ATOM     11  C   UNL     1       4.829   5.651  18.066  0.00  0.00    +0.000 A 
BRANCH   9  12
ATOM     12  C   UNL     1       3.897   2.114  19.165  0.00  0.00    +0.000 C 
ATOM     13  O   UNL     1       3.092   1.280  18.794  0.00  0.00    +0.000 OA
BRANCH  12  14
ATOM     14  O   UNL     1       4.924   1.836  19.996  0.00  0.00    +0.000 OA
ATOM     15  H   UNL     1       4.742   1.984  20.943  0.00  0.00    +0.000 HD
ENDBRANCH  12  14
ENDBRANCH   9  12
ENDBRANCH   1  11
BRANCH   2  16
ATOM     16  S   UNL     1       7.102   5.274  15.661  0.00  0.00    +0.000 S 
ATOM     17  H   UNL     1       7.854   4.421  16.361  0.00  0.00    +0.000 HD
ENDBRANCH   2  16
BRANCH   3  18
ATOM     18  C   UNL     1       8.162   8.203  18.068  0.00  0.00    +0.000 C 
BRANCH  18  19
ATOM     19  C   UNL     1       8.019   9.702  17.795  0.00  0.00    +0.000 C 
BRANCH  19  20
ATOM     20  C   UNL     1       9.129  10.477  18.470  0.00  0.00    +0.000 A 
ATOM     21  C   UNL     1      10.167  11.041  17.714  0.00  0.00    +0.000 A 
ATOM     22  C   UNL     1      11.225  11.705  18.342  0.00  0.00    +0.000 A 
ATOM     23  C   UNL     1      11.253  11.809  19.732  0.00  0.00    +0.000 A 
ATOM     24  C   UNL     1      10.227  11.251  20.491  0.00  0.00    +0.000 A 
ATOM     25  C   UNL     1       9.171  10.586  19.866  0.00  0.00    +0.000 A 
ENDBRANCH  19  20
ENDBRANCH  18  19
ENDBRANCH   3  18
TORSDOF 7
ENDMDL
MODEL 3
REMARK VINA RESULT:      -7.4      0.753      1.186
REMARK  Name = 
REMARK  8 active torsions:
REMARK  status: ('A' for Active; 'I' for Inactive)
REMARK    1  A    between atoms: C_1  and  C_2
REMARK    2  A    between atoms: C_5  and  C_6
REMARK    3  A    between atoms: C_6  and  O_8
REMARK    4  A    between atoms: C_10  and  N_11
REMARK    5  A    between atoms: C_12  and  S_13
REMARK    6  A    between atoms: N_14  and  C_15
REMARK    7  A    between atoms: C_15  and  C_16
REMARK    8  A    between atoms: C_16  and  C_17
REMARK                            x       y       z     vdW  Elec       q    Type
REMARK                         _______ _______ _______ _____ _____    ______ ____
ROOT
ATOM      1  N   UNL     1       5.725   6.533  17.923  0.00  0.00    +0.000 NA
ATOM      2  C   UNL     1       6.843   6.244  17.334  0.00  0.00    +0.000 C 
ATOM      3  N   UNL     1       7.710   7.227  16.923  0.00  0.00    +0.000 N 
ATOM      4  H   UNL     1       8.636   6.879  16.699  0.00  0.00    +0.000 HD
ENDROOT
BRANCH   1  11
ATOM      5  C   UNL     1       3.052   7.545  17.740  0.00  0.00    +0.000 C 
ATOM      6  C   UNL     1       3.382   6.232  18.406  0.00  0.00    +0.000 A 
ATOM      7  C   UNL     1       2.316   5.508  18.968  0.00  0.00    +0.000 A 
ATOM      8  C   UNL     1       2.546   4.301  19.616  0.00  0.00    +0.000 A 
ATOM      9  C   UNL     1       3.848   3.814  19.716  0.00  0.00    +0.000 A 
ATOM     10  C   UNL     1       4.918   4.525  19.142  0.00  0.00    +0.000 A 
ATOM     11  C   UNL     1       4.704   5.724  18.447  0.00  0.00    +0.000 A 
BRANCH   9  12
ATOM     12  C   UNL     1       4.047   2.518  20.415  0.00  0.00    +0.000 C 
ATOM     13  O   UNL     1       3.441   2.213  21.425  0.00  0.00    +0.000 OA
BRANCH  12  14
ATOM     14  O   UNL     1       4.996   1.736  19.855  0.00  0.00    +0.000 OA
ATOM     15  H   UNL     1       5.049   0.831  20.213  0.00  0.00    +0.000 HD
ENDBRANCH  12  14
ENDBRANCH   9  12
ENDBRANCH   1  11
BRANCH   2  16
ATOM     16  S   UNL     1       7.490   4.662  16.962  0.00  0.00    +0.000 S 
ATOM     17  H   UNL     1       7.791   4.297  18.210  0.00  0.00    +0.000 HD
ENDBRANCH   2  16
BRANCH   3  18
ATOM     18  C   UNL     1       7.657   8.557  17.511  0.00  0.00    +0.000 C 
BRANCH  18  19
ATOM     19  C   UNL     1       8.614   8.692  18.698  0.00  0.00    +0.000 C 
BRANCH  19  20
ATOM     20  C   UNL     1       9.059  10.127  18.867  0.00  0.00    +0.000 A 
ATOM     21  C   UNL     1       8.785  11.080  17.874  0.00  0.00    +0.000 A 
ATOM     22  C   UNL     1       9.248  12.393  18.002  0.00  0.00    +0.000 A 
ATOM     23  C   UNL     1       9.989  12.763  19.122  0.00  0.00    +0.000 A 
ATOM     24  C   UNL     1      10.266  11.824  20.114  0.00  0.00    +0.000 A 
ATOM     25  C   UNL     1       9.806  10.512  19.987  0.00  0.00    +0.000 A 
ENDBRANCH  19  20
ENDBRANCH  18  19
ENDBRANCH   3  18
TORSDOF 7
ENDMDL
MODEL 4
REMARK VINA RESULT:      -7.3      1.350      1.789
REMARK  Name = 
REMARK  8 active torsions:
REMARK  status: ('A' for Active; 'I' for Inactive)
REMARK    1  A    between atoms: C_1  and  C_2
REMARK    2  A    between atoms: C_5  and  C_6
REMARK    3  A    between atoms: C_6  and  O_8
REMARK    4  A    between atoms: C_10  and  N_11
REMARK    5  A    between atoms: C_12  and  S_13
REMARK    6  A    between atoms: N_14  and  C_15
REMARK    7  A    between atoms: C_15  and  C_16
REMARK    8  A    between atoms: C_16  and  C_17
REMARK                            x       y       z     vdW  Elec       q    Type
REMARK                         _______ _______ _______ _____ _____    ______ ____
ROOT
ATOM      1  N   UNL     1       5.420   6.544  17.446  0.00  0.00    +0.000 NA
ATOM      2  C   UNL     1       6.602   6.220  17.027  0.00  0.00    +0.000 C 
ATOM      3  N   UNL     1       7.596   7.160  16.892  0.00  0.00    +0.000 N 
ATOM      4  H   UNL     1       8.521   6.756  16.789  0.00  0.00    +0.000 HD
ENDROOT
BRANCH   1  11
ATOM      5  C   UNL     1       2.970   7.979  17.819  0.00  0.00    +0.000 C 
ATOM      6  C   UNL     1       3.057   6.477  17.918  0.00  0.00    +0.000 A 
ATOM      7  C   UNL     1       1.874   5.781  18.227  0.00  0.00    +0.000 A 
ATOM      8  C   UNL     1       1.881   4.398  18.357  0.00  0.00    +0.000 A 
ATOM      9  C   UNL     1       3.075   3.700  18.187  0.00  0.00    +0.000 A 
ATOM     10  C   UNL     1       4.260   4.387  17.862  0.00  0.00    +0.000 A 
ATOM     11  C   UNL     1       4.268   5.779  17.686  0.00  0.00    +0.000 A 
BRANCH   9  12
ATOM     12  C   UNL     1       3.036   2.222  18.331  0.00  0.00    +0.000 C 
ATOM     13  O   UNL     1       4.033   1.551  18.523  0.00  0.00    +0.000 OA
BRANCH  12  14
ATOM     14  O   UNL     1       1.804   1.692  18.181  0.00  0.00    +0.000 OA
ATOM     15  H   UNL     1       1.265   1.661  18.993  0.00  0.00    +0.000 HD
ENDBRANCH  12  14
ENDBRANCH   9  12
ENDBRANCH   1  11
BRANCH   2  16
ATOM     16  S   UNL     1       7.195   4.636  16.581  0.00  0.00    +0.000 S 
ATOM     17  H   UNL     1       6.159   3.927  17.036  0.00  0.00    +0.000 HD
ENDBRANCH   2  16
BRANCH   3  18
ATOM     18  C   UNL     1       7.530   8.419  17.619  0.00  0.00    +0.000 C 
BRANCH  18  19
ATOM     19  C   UNL     1       8.690   8.564  18.609  0.00  0.00    +0.000 C 
BRANCH  19  20
ATOM     20  C   UNL     1       9.006  10.023  18.851  0.00  0.00    +0.000 A 
ATOM     21  C   UNL     1       8.916  10.956  17.807  0.00  0.00    +0.000 A 
ATOM     22  C   UNL     1       9.266  12.293  18.015  0.00  0.00    +0.000 A 
ATOM     23  C   UNL     1       9.710  12.708  19.269  0.00  0.00    +0.000 A 
ATOM     24  C   UNL     1       9.802  11.790  20.313  0.00  0.00    +0.000 A 
ATOM     25  C   UNL     1       9.455  10.453  20.106  0.00  0.00    +0.000 A 
ENDBRANCH  19  20
ENDBRANCH  18  19
ENDBRANCH   3  18
TORSDOF 7
ENDMDL
MODEL 5
REMARK VINA RESULT:      -7.3      1.384      1.404
REMARK  Name = 
REMARK  8 active torsions:
REMARK  status: ('A' for Active; 'I' for Inactive)
REMARK    1  A    between atoms: C_1  and  C_2
REMARK    2  A    between atoms: C_5  and  C_6
REMARK    3  A    between atoms: C_6  and  O_8
REMARK    4  A    between atoms: C_10  and  N_11
REMARK    5  A    between atoms: C_12  and  S_13
REMARK    6  A    between atoms: N_14  and  C_15
REMARK    7  A    between atoms: C_15  and  C_16
REMARK    8  A    between atoms: C_16  and  C_17
REMARK                            x       y       z     vdW  Elec       q    Type
REMARK                         _______ _______ _______ _____ _____    ______ ____
ROOT
ATOM      1  N   UNL     1       5.410   6.681  17.462  0.00  0.00    +0.000 NA
ATOM      2  C   UNL     1       6.579   6.399  16.978  0.00  0.00    +0.000 C 
ATOM      3  N   UNL     1       7.558   7.357  16.865  0.00  0.00    +0.000 N 
ATOM      4  H   UNL     1       8.481   6.973  16.702  0.00  0.00    +0.000 HD
ENDROOT
BRANCH   1  11
ATOM      5  C   UNL     1       2.924   8.057  17.821  0.00  0.00    +0.000 C 
ATOM      6  C   UNL     1       3.047   6.557  17.923  0.00  0.00    +0.000 A 
ATOM      7  C   UNL     1       1.881   5.834  18.228  0.00  0.00    +0.000 A 
ATOM      8  C   UNL     1       1.921   4.451  18.359  0.00  0.00    +0.000 A 
ATOM      9  C   UNL     1       3.133   3.782  18.196  0.00  0.00    +0.000 A 
ATOM     10  C   UNL     1       4.301   4.498  17.875  0.00  0.00    +0.000 A 
ATOM     11  C   UNL     1       4.276   5.889  17.697  0.00  0.00    +0.000 A 
BRANCH   9  12
ATOM     12  C   UNL     1       3.129   2.304  18.342  0.00  0.00    +0.000 C 
ATOM     13  O   UNL     1       2.280   1.706  18.977  0.00  0.00    +0.000 OA
BRANCH  12  14
ATOM     14  O   UNL     1       4.178   1.694  17.749  0.00  0.00    +0.000 OA
ATOM     15  H   UNL     1       4.138   0.720  17.739  0.00  0.00    +0.000 HD
ENDBRANCH  12  14
ENDBRANCH   9  12
ENDBRANCH   1  11
BRANCH   2  16
ATOM     16  S   UNL     1       7.170   4.853  16.414  0.00  0.00    +0.000 S 
ATOM     17  H   UNL     1       8.260   4.790  17.183  0.00  0.00    +0.000 HD
ENDBRANCH   2  16
BRANCH   3  18
ATOM     18  C   UNL     1       7.507   8.568  17.670  0.00  0.00    +0.000 C 
BRANCH  18  19
ATOM     19  C   UNL     1       8.706   8.670  18.617  0.00  0.00    +0.000 C 
BRANCH  19  20
ATOM     20  C   UNL     1       9.039  10.118  18.903  0.00  0.00    +0.000 A 
ATOM     21  C   UNL     1       9.366  10.531  20.203  0.00  0.00    +0.000 A 
ATOM     22  C   UNL     1       9.614  11.879  20.479  0.00  0.00    +0.000 A 
ATOM     23  C   UNL     1       9.538  12.824  19.458  0.00  0.00    +0.000 A 
ATOM     24  C   UNL     1       9.215  12.423  18.163  0.00  0.00    +0.000 A 
ATOM     25  C   UNL     1       8.964  11.078  17.886  0.00  0.00    +0.000 A 
ENDBRANCH  19  20
ENDBRANCH  18  19
ENDBRANCH   3  18
TORSDOF 7
ENDMDL
MODEL 6
REMARK VINA RESULT:      -7.3      4.467      7.043
REMARK  Name = 
REMARK  8 active torsions:
REMARK  status: ('A' for Active; 'I' for Inactive)
REMARK    1  A    between atoms: C_1  and  C_2
REMARK    2  A    between atoms: C_5  and  C_6
REMARK    3  A    between atoms: C_6  and  O_8
REMARK    4  A    between atoms: C_10  and  N_11
REMARK    5  A    between atoms: C_12  and  S_13
REMARK    6  A    between atoms: N_14  and  C_15
REMARK    7  A    between atoms: C_15  and  C_16
REMARK    8  A    between atoms: C_16  and  C_17
REMARK                            x       y       z     vdW  Elec       q    Type
REMARK                         _______ _______ _______ _____ _____    ______ ____
ROOT
ATOM      1  N   UNL     1       5.278   4.796  15.934  0.00  0.00    +0.000 NA
ATOM      2  C   UNL     1       6.555   4.785  16.153  0.00  0.00    +0.000 C 
ATOM      3  N   UNL     1       7.459   4.877  15.123  0.00  0.00    +0.000 N 
ATOM      4  H   UNL     1       8.400   5.094  15.431  0.00  0.00    +0.000 HD
ENDROOT
BRANCH   1  11
ATOM      5  C   UNL     1       4.457   7.260  17.142  0.00  0.00    +0.000 C 
ATOM      6  C   UNL     1       3.787   5.943  17.443  0.00  0.00    +0.000 A 
ATOM      7  C   UNL     1       2.733   5.953  18.373  0.00  0.00    +0.000 A 
ATOM      8  C   UNL     1       2.082   4.774  18.716  0.00  0.00    +0.000 A 
ATOM      9  C   UNL     1       2.488   3.574  18.137  0.00  0.00    +0.000 A 
ATOM     10  C   UNL     1       3.532   3.558  17.194  0.00  0.00    +0.000 A 
ATOM     11  C   UNL     1       4.176   4.741  16.802  0.00  0.00    +0.000 A 
BRANCH   9  12
ATOM     12  C   UNL     1       1.762   2.339  18.531  0.00  0.00    +0.000 C 
ATOM     13  O   UNL     1       0.584   2.335  18.836  0.00  0.00    +0.000 OA
BRANCH  12  14
ATOM     14  O   UNL     1       2.541   1.236  18.566  0.00  0.00    +0.000 OA
ATOM     15  H   UNL     1       3.493   1.398  18.429  0.00  0.00    +0.000 HD
ENDBRANCH  12  14
ENDBRANCH   9  12
ENDBRANCH   1  11
BRANCH   2  16
ATOM     16  S   UNL     1       7.386   4.678  17.688  0.00  0.00    +0.000 S 
ATOM     17  H   UNL     1       6.567   5.467  18.387  0.00  0.00    +0.000 HD
ENDBRANCH   2  16
BRANCH   3  18
ATOM     18  C   UNL     1       7.066   5.439  13.839  0.00  0.00    +0.000 C 
BRANCH  18  19
ATOM     19  C   UNL     1       7.800   4.766  12.676  0.00  0.00    +0.000 C 
BRANCH  19  20
ATOM     20  C   UNL     1       6.998   3.601  12.140  0.00  0.00    +0.000 A 
ATOM     21  C   UNL     1       7.637   2.524  11.510  0.00  0.00    +0.000 A 
ATOM     22  C   UNL     1       6.891   1.477  10.960  0.00  0.00    +0.000 A 
ATOM     23  C   UNL     1       5.500   1.499  11.037  0.00  0.00    +0.000 A 
ATOM     24  C   UNL     1       4.856   2.565  11.661  0.00  0.00    +0.000 A 
ATOM     25  C   UNL     1       5.598   3.613  12.208  0.00  0.00    +0.000 A 
ENDBRANCH  19  20
ENDBRANCH  18  19
ENDBRANCH   3  18
TORSDOF 7
ENDMDL
MODEL 7
REMARK VINA RESULT:      -7.2      4.282      5.979
REMARK  Name = 
REMARK  8 active torsions:
REMARK  status: ('A' for Active; 'I' for Inactive)
REMARK    1  A    between atoms: C_1  and  C_2
REMARK    2  A    between atoms: C_5  and  C_6
REMARK    3  A    between atoms: C_6  and  O_8
REMARK    4  A    between atoms: C_10  and  N_11
REMARK    5  A    between atoms: C_12  and  S_13
REMARK    6  A    between atoms: N_14  and  C_15
REMARK    7  A    between atoms: C_15  and  C_16
REMARK    8  A    between atoms: C_16  and  C_17
REMARK                            x       y       z     vdW  Elec       q    Type
REMARK                         _______ _______ _______ _____ _____    ______ ____
ROOT
ATOM      1  N   UNL     1       2.809   6.173  19.690  0.00  0.00    +0.000 NA
ATOM      2  C   UNL     1       2.526   4.914  19.806  0.00  0.00    +0.000 C 
ATOM      3  N   UNL     1       3.475   3.943  19.592  0.00  0.00    +0.000 N 
ATOM      4  H   UNL     1       3.203   3.030  19.939  0.00  0.00    +0.000 HD
ENDROOT
BRANCH   1  11
ATOM      5  C   UNL     1       2.683   8.011  17.497  0.00  0.00    +0.000 C 
ATOM      6  C   UNL     1       2.002   8.270  18.817  0.00  0.00    +0.000 A 
ATOM      7  C   UNL     1       1.302   9.482  18.955  0.00  0.00    +0.000 A 
ATOM      8  C   UNL     1       0.668   9.800  20.150  0.00  0.00    +0.000 A 
ATOM      9  C   UNL     1       0.739   8.911  21.221  0.00  0.00    +0.000 A 
ATOM     10  C   UNL     1       1.425   7.690  21.086  0.00  0.00    +0.000 A 
ATOM     11  C   UNL     1       2.037   7.330  19.876  0.00  0.00    +0.000 A 
BRANCH   9  12
ATOM     12  C   UNL     1       0.044   9.290  22.478  0.00  0.00    +0.000 C 
ATOM     13  O   UNL     1       0.382  10.241  23.158  0.00  0.00    +0.000 OA
BRANCH  12  14
ATOM     14  O   UNL     1      -0.961   8.456  22.819  0.00  0.00    +0.000 OA
ATOM     15  H   UNL     1      -1.679   8.382  22.162  0.00  0.00    +0.000 HD
ENDBRANCH  12  14
ENDBRANCH   9  12
ENDBRANCH   1  11
BRANCH   2  16
ATOM     16  S   UNL     1       0.998   4.187  20.248  0.00  0.00    +0.000 S 
ATOM     17  H   UNL     1       0.412   5.287  20.728  0.00  0.00    +0.000 HD
ENDBRANCH   2  16
BRANCH   3  18
ATOM     18  C   UNL     1       4.892   4.259  19.680  0.00  0.00    +0.000 C 
BRANCH  18  19
ATOM     19  C   UNL     1       5.565   4.244  18.305  0.00  0.00    +0.000 C 
BRANCH  19  20
ATOM     20  C   UNL     1       6.374   5.503  18.091  0.00  0.00    +0.000 A 
ATOM     21  C   UNL     1       7.524   5.751  18.855  0.00  0.00    +0.000 A 
ATOM     22  C   UNL     1       8.237   6.943  18.700  0.00  0.00    +0.000 A 
ATOM     23  C   UNL     1       7.806   7.897  17.780  0.00  0.00    +0.000 A 
ATOM     24  C   UNL     1       6.665   7.660  17.017  0.00  0.00    +0.000 A 
ATOM     25  C   UNL     1       5.950   6.472  17.172  0.00  0.00    +0.000 A 
ENDBRANCH  19  20
ENDBRANCH  18  19
ENDBRANCH   3  18
TORSDOF 7
ENDMDL
MODEL 8
REMARK VINA RESULT:      -7.2      4.641      6.901
REMARK  Name = 
REMARK  8 active torsions:
REMARK  status: ('A' for Active; 'I' for Inactive)
REMARK    1  A    between atoms: C_1  and  C_2
REMARK    2  A    between atoms: C_5  and  C_6
REMARK    3  A    between atoms: C_6  and  O_8
REMARK    4  A    between atoms: C_10  and  N_11
REMARK    5  A    between atoms: C_12  and  S_13
REMARK    6  A    between atoms: N_14  and  C_15
REMARK    7  A    between atoms: C_15  and  C_16
REMARK    8  A    between atoms: C_16  and  C_17
REMARK                            x       y       z     vdW  Elec       q    Type
REMARK                         _______ _______ _______ _____ _____    ______ ____
ROOT
ATOM      1  N   UNL     1       4.534   4.893  17.277  0.00  0.00    +0.000 NA
ATOM      2  C   UNL     1       5.829   4.947  17.243  0.00  0.00    +0.000 C 
ATOM      3  N   UNL     1       6.523   4.774  16.070  0.00  0.00    +0.000 N 
ATOM      4  H   UNL     1       7.490   5.070  16.126  0.00  0.00    +0.000 HD
ENDROOT
BRANCH   1  11
ATOM      5  C   UNL     1       3.521   7.538  17.701  0.00  0.00    +0.000 C 
ATOM      6  C   UNL     1       3.140   6.370  18.576  0.00  0.00    +0.000 A 
ATOM      7  C   UNL     1       2.266   6.624  19.648  0.00  0.00    +0.000 A 
ATOM      8  C   UNL     1       1.888   5.602  20.509  0.00  0.00    +0.000 A 
ATOM      9  C   UNL     1       2.389   4.317  20.309  0.00  0.00    +0.000 A 
ATOM     10  C   UNL     1       3.252   4.051  19.230  0.00  0.00    +0.000 A 
ATOM     11  C   UNL     1       3.615   5.059  18.324  0.00  0.00    +0.000 A 
BRANCH   9  12
ATOM     12  C   UNL     1       1.955   3.254  21.252  0.00  0.00    +0.000 C 
ATOM     13  O   UNL     1       2.698   2.766  22.084  0.00  0.00    +0.000 OA
BRANCH  12  14
ATOM     14  O   UNL     1       0.681   2.847  21.067  0.00  0.00    +0.000 OA
ATOM     15  H   UNL     1       0.341   2.954  20.159  0.00  0.00    +0.000 HD
ENDBRANCH  12  14
ENDBRANCH   9  12
ENDBRANCH   1  11
BRANCH   2  16
ATOM     16  S   UNL     1       6.932   5.251  18.566  0.00  0.00    +0.000 S 
ATOM     17  H   UNL     1       7.296   6.486  18.211  0.00  0.00    +0.000 HD
ENDBRANCH   2  16
BRANCH   3  18
ATOM     18  C   UNL     1       5.870   4.978  14.785  0.00  0.00    +0.000 C 
BRANCH  18  19
ATOM     19  C   UNL     1       6.857   4.853  13.621  0.00  0.00    +0.000 C 
BRANCH  19  20
ATOM     20  C   UNL     1       6.447   3.733  12.690  0.00  0.00    +0.000 A 
ATOM     21  C   UNL     1       7.415   2.937  12.061  0.00  0.00    +0.000 A 
ATOM     22  C   UNL     1       7.038   1.943  11.154  0.00  0.00    +0.000 A 
ATOM     23  C   UNL     1       5.690   1.736  10.869  0.00  0.00    +0.000 A 
ATOM     24  C   UNL     1       4.720   2.522  11.488  0.00  0.00    +0.000 A 
ATOM     25  C   UNL     1       5.095   3.517  12.393  0.00  0.00    +0.000 A 
ENDBRANCH  19  20
ENDBRANCH  18  19
ENDBRANCH   3  18
TORSDOF 7
ENDMDL
MODEL 9
REMARK VINA RESULT:      -7.1      4.528      7.014
REMARK  Name = 
REMARK  8 active torsions:
REMARK  status: ('A' for Active; 'I' for Inactive)
REMARK    1  A    between atoms: C_1  and  C_2
REMARK    2  A    between atoms: C_5  and  C_6
REMARK    3  A    between atoms: C_6  and  O_8
REMARK    4  A    between atoms: C_10  and  N_11
REMARK    5  A    between atoms: C_12  and  S_13
REMARK    6  A    between atoms: N_14  and  C_15
REMARK    7  A    between atoms: C_15  and  C_16
REMARK    8  A    between atoms: C_16  and  C_17
REMARK                            x       y       z     vdW  Elec       q    Type
REMARK                         _______ _______ _______ _____ _____    ______ ____
ROOT
ATOM      1  N   UNL     1       5.084   4.692  16.227  0.00  0.00    +0.000 NA
ATOM      2  C   UNL     1       6.374   4.699  16.351  0.00  0.00    +0.000 C 
ATOM      3  N   UNL     1       7.199   4.740  15.252  0.00  0.00    +0.000 N 
ATOM      4  H   UNL     1       8.158   4.978  15.477  0.00  0.00    +0.000 HD
ENDROOT
BRANCH   1  11
ATOM      5  C   UNL     1       4.195   7.232  17.208  0.00  0.00    +0.000 C 
ATOM      6  C   UNL     1       3.632   5.924  17.705  0.00  0.00    +0.000 A 
ATOM      7  C   UNL     1       2.645   5.985  18.706  0.00  0.00    +0.000 A 
ATOM      8  C   UNL     1       2.095   4.820  19.228  0.00  0.00    +0.000 A 
ATOM      9  C   UNL     1       2.536   3.584  18.759  0.00  0.00    +0.000 A 
ATOM     10  C   UNL     1       3.511   3.515  17.747  0.00  0.00    +0.000 A 
ATOM     11  C   UNL     1       4.051   4.678  17.176  0.00  0.00    +0.000 A 
BRANCH   9  12
ATOM     12  C   UNL     1       1.918   2.366  19.343  0.00  0.00    +0.000 C 
ATOM     13  O   UNL     1       1.887   2.151  20.540  0.00  0.00    +0.000 OA
BRANCH  12  14
ATOM     14  O   UNL     1       1.443   1.500  18.422  0.00  0.00    +0.000 OA
ATOM     15  H   UNL     1       0.471   1.413  18.399  0.00  0.00    +0.000 HD
ENDBRANCH  12  14
ENDBRANCH   9  12
ENDBRANCH   1  11
BRANCH   2  16
ATOM     16  S   UNL     1       7.318   4.680  17.823  0.00  0.00    +0.000 S 
ATOM     17  H   UNL     1       6.514   5.453  18.558  0.00  0.00    +0.000 HD
ENDBRANCH   2  16
BRANCH   3  18
ATOM     18  C   UNL     1       6.707   5.229  13.973  0.00  0.00    +0.000 C 
BRANCH  18  19
ATOM     19  C   UNL     1       7.550   4.711  12.805  0.00  0.00    +0.000 C 
BRANCH  19  20
ATOM     20  C   UNL     1       6.867   3.543  12.130  0.00  0.00    +0.000 A 
ATOM     21  C   UNL     1       5.468   3.447  12.110  0.00  0.00    +0.000 A 
ATOM     22  C   UNL     1       4.839   2.337  11.540  0.00  0.00    +0.000 A 
ATOM     23  C   UNL     1       5.604   1.313  10.985  0.00  0.00    +0.000 A 
ATOM     24  C   UNL     1       6.994   1.398  10.999  0.00  0.00    +0.000 A 
ATOM     25  C   UNL     1       7.625   2.505  11.571  0.00  0.00    +0.000 A 
ENDBRANCH  19  20
ENDBRANCH  18  19
ENDBRANCH   3  18
TORSDOF 7
ENDMDL
