MODEL 1
REMARK VINA RESULT:      -6.6      0.000      0.000
REMARK  Name = 
REMARK  3 active torsions:
REMARK  status: ('A' for Active; 'I' for Inactive)
REMARK    1  A    between atoms: C_1  and  O_2
REMARK    2  A    between atoms: O_2  and  C_3
REMARK    3  A    between atoms: C_8  and  N_9
REMARK                            x       y       z     vdW  Elec       q    Type
REMARK                         _______ _______ _______ _____ _____    ______ ____
ROOT
ATOM      1  N   UNL     1       8.352  13.661  18.323  0.00  0.00    +0.000 N 
ATOM      2  C   UNL     1       7.451  13.100  17.309  0.00  0.00    +0.000 C 
ATOM      3  C   UNL     1       5.998  13.486  17.671  0.00  0.00    +0.000 C 
ATOM      4  N   UNL     1       5.786  14.911  18.002  0.00  0.00    +0.000 N 
ATOM      5  C   UNL     1       4.444  15.322  18.045  0.00  0.00    +0.000 C 
ATOM      6  O   UNL     1       3.597  14.678  17.413  0.00  0.00    +0.000 OA
ATOM      7  N   UNL     1       4.091  16.481  18.831  0.00  0.00    +0.000 N 
ATOM      8  C   UNL     1       2.772  16.978  18.421  0.00  0.00    +0.000 A 
ATOM      9  C   UNL     1       2.655  17.534  17.133  0.00  0.00    +0.000 A 
ATOM     10  C   UNL     1       1.419  17.971  16.638  0.00  0.00    +0.000 A 
ATOM     11  C   UNL     1       0.284  17.908  17.442  0.00  0.00    +0.000 A 
ATOM     12  C   UNL     1       0.375  17.343  18.712  0.00  0.00    +0.000 A 
ATOM     13  C   UNL     1       1.596  16.823  19.179  0.00  0.00    +0.000 A 
ATOM     14  S   UNL     1       1.495  15.732  20.588  0.00  0.00    +0.000 S 
ATOM     15  C   UNL     1       3.214  15.471  20.907  0.00  0.00    +0.000 A 
ATOM     16  C   UNL     1       3.610  14.589  21.905  0.00  0.00    +0.000 A 
ATOM     17  C   UNL     1       4.923  14.622  22.374  0.00  0.00    +0.000 A 
ATOM     18  C   UNL     1       5.755  15.662  21.980  0.00  0.00    +0.000 A 
ATOM     19 CL   UNL     1       7.353  15.765  22.610  0.00  0.00    +0.000 Cl
ATOM     20  C   UNL     1       5.359  16.523  20.953  0.00  0.00    +0.000 A 
ATOM     21  C   UNL     1       4.174  16.254  20.268  0.00  0.00    +0.000 A 
ATOM     22  C   UNL     1       6.891  15.545  18.718  0.00  0.00    +0.000 C 
ATOM     23  C   UNL     1       8.309  15.128  18.333  0.00  0.00    +0.000 C 
ENDROOT
BRANCH   1  29
ATOM     24  C   UNL     1       9.911  12.735  20.027  0.00  0.00    +0.000 A 
ATOM     25  C   UNL     1      11.161  12.138  20.285  0.00  0.00    +0.000 A 
ATOM     26  C   UNL     1      12.053  11.858  19.246  0.00  0.00    +0.000 A 
ATOM     27  C   UNL     1      11.718  12.187  17.942  0.00  0.00    +0.000 A 
ATOM     28  C   UNL     1      10.484  12.782  17.682  0.00  0.00    +0.000 A 
ATOM     29  C   UNL     1       9.548  13.065  18.704  0.00  0.00    +0.000 A 
BRANCH  24  31
ATOM     30  C   UNL     1       8.720  11.998  21.958  0.00  0.00    +0.000 C 
ATOM     31  O   UNL     1       9.002  13.022  21.017  0.00  0.00    +0.000 OA
ENDBRANCH  24  31
ENDBRANCH   1  29
TORSDOF 2
ENDMDL
MODEL 2
REMARK VINA RESULT:      -6.5      6.434      7.903
REMARK  Name = 
REMARK  3 active torsions:
REMARK  status: ('A' for Active; 'I' for Inactive)
REMARK    1  A    between atoms: C_1  and  O_2
REMARK    2  A    between atoms: O_2  and  C_3
REMARK    3  A    between atoms: C_8  and  N_9
REMARK                            x       y       z     vdW  Elec       q    Type
REMARK                         _______ _______ _______ _____ _____    ______ ____
ROOT
ATOM      1  N   UNL     1       1.098   8.794  20.006  0.00  0.00    +0.000 N 
ATOM      2  C   UNL     1       0.697   8.505  21.388  0.00  0.00    +0.000 C 
ATOM      3  C   UNL     1       0.406   9.843  22.109  0.00  0.00    +0.000 C 
ATOM      4  N   UNL     1      -0.464  10.782  21.369  0.00  0.00    +0.000 N 
ATOM      5  C   UNL     1      -0.963  11.856  22.125  0.00  0.00    +0.000 C 
ATOM      6  O   UNL     1      -1.044  11.739  23.354  0.00  0.00    +0.000 OA
ATOM      7  N   UNL     1      -1.362  13.066  21.444  0.00  0.00    +0.000 N 
ATOM      8  C   UNL     1      -2.217  13.872  22.324  0.00  0.00    +0.000 A 
ATOM      9  C   UNL     1      -3.490  13.362  22.643  0.00  0.00    +0.000 A 
ATOM     10  C   UNL     1      -4.343  14.035  23.527  0.00  0.00    +0.000 A 
ATOM     11  C   UNL     1      -3.961  15.259  24.069  0.00  0.00    +0.000 A 
ATOM     12  C   UNL     1      -2.698  15.771  23.781  0.00  0.00    +0.000 A 
ATOM     13  C   UNL     1      -1.804  15.055  22.964  0.00  0.00    +0.000 A 
ATOM     14  S   UNL     1      -0.095  15.562  23.041  0.00  0.00    +0.000 S 
ATOM     15  C   UNL     1       0.595  14.535  21.778  0.00  0.00    +0.000 A 
ATOM     16  C   UNL     1       1.965  14.543  21.545  0.00  0.00    +0.000 A 
ATOM     17  C   UNL     1       2.467  13.998  20.364  0.00  0.00    +0.000 A 
ATOM     18  C   UNL     1       1.582  13.638  19.357  0.00  0.00    +0.000 A 
ATOM     19 CL   UNL     1       2.187  13.038  17.861  0.00  0.00    +0.000 Cl
ATOM     20  C   UNL     1       0.209  13.602  19.612  0.00  0.00    +0.000 A 
ATOM     21  C   UNL     1      -0.240  13.829  20.913  0.00  0.00    +0.000 A 
ATOM     22  C   UNL     1      -0.277  10.779  19.920  0.00  0.00    +0.000 C 
ATOM     23  C   UNL     1       0.016   9.438  19.252  0.00  0.00    +0.000 C 
ENDROOT
BRANCH   1  29
ATOM     24  C   UNL     1       2.359   6.686  19.606  0.00  0.00    +0.000 A 
ATOM     25  C   UNL     1       3.281   5.997  18.794  0.00  0.00    +0.000 A 
ATOM     26  C   UNL     1       3.834   6.600  17.662  0.00  0.00    +0.000 A 
ATOM     27  C   UNL     1       3.491   7.902  17.336  0.00  0.00    +0.000 A 
ATOM     28  C   UNL     1       2.582   8.591  18.140  0.00  0.00    +0.000 A 
ATOM     29  C   UNL     1       1.988   8.008  19.283  0.00  0.00    +0.000 A 
BRANCH  24  31
ATOM     30  C   UNL     1       1.635   4.718  20.744  0.00  0.00    +0.000 C 
ATOM     31  O   UNL     1       1.786   6.130  20.725  0.00  0.00    +0.000 OA
ENDBRANCH  24  31
ENDBRANCH   1  29
TORSDOF 2
ENDMDL
MODEL 3
REMARK VINA RESULT:      -6.5      3.972      8.174
REMARK  Name = 
REMARK  3 active torsions:
REMARK  status: ('A' for Active; 'I' for Inactive)
REMARK    1  A    between atoms: C_1  and  O_2
REMARK    2  A    between atoms: O_2  and  C_3
REMARK    3  A    between atoms: C_8  and  N_9
REMARK                            x       y       z     vdW  Elec       q    Type
REMARK                         _______ _______ _______ _____ _____    ______ ____
ROOT
ATOM      1  N   UNL     1       6.806  12.883  25.512  0.00  0.00    +0.000 N 
ATOM      2  C   UNL     1       6.911  11.525  24.965  0.00  0.00    +0.000 C 
ATOM      3  C   UNL     1       7.254  11.623  23.460  0.00  0.00    +0.000 C 
ATOM      4  N   UNL     1       8.364  12.540  23.123  0.00  0.00    +0.000 N 
ATOM      5  C   UNL     1       8.866  12.416  21.818  0.00  0.00    +0.000 C 
ATOM      6  O   UNL     1       8.711  11.348  21.213  0.00  0.00    +0.000 OA
ATOM      7  N   UNL     1       9.545  13.541  21.219  0.00  0.00    +0.000 N 
ATOM      8  C   UNL     1      10.335  13.091  20.067  0.00  0.00    +0.000 A 
ATOM      9  C   UNL     1      11.447  12.265  20.321  0.00  0.00    +0.000 A 
ATOM     10  C   UNL     1      12.216  11.737  19.275  0.00  0.00    +0.000 A 
ATOM     11  C   UNL     1      11.919  12.067  17.956  0.00  0.00    +0.000 A 
ATOM     12  C   UNL     1      10.811  12.866  17.682  0.00  0.00    +0.000 A 
ATOM     13  C   UNL     1       9.985  13.326  18.724  0.00  0.00    +0.000 A 
ATOM     14  S   UNL     1       8.377  13.930  18.241  0.00  0.00    +0.000 S 
ATOM     15  C   UNL     1       7.786  14.529  19.795  0.00  0.00    +0.000 A 
ATOM     16  C   UNL     1       6.493  15.029  19.902  0.00  0.00    +0.000 A 
ATOM     17  C   UNL     1       6.137  15.787  21.017  0.00  0.00    +0.000 A 
ATOM     18  C   UNL     1       7.127  16.196  21.900  0.00  0.00    +0.000 A 
ATOM     19 CL   UNL     1       6.719  17.198  23.239  0.00  0.00    +0.000 Cl
ATOM     20  C   UNL     1       8.415  15.661  21.803  0.00  0.00    +0.000 A 
ATOM     21  C   UNL     1       8.653  14.643  20.880  0.00  0.00    +0.000 A 
ATOM     22  C   UNL     1       8.438  13.742  23.952  0.00  0.00    +0.000 C 
ATOM     23  C   UNL     1       8.083  13.600  25.429  0.00  0.00    +0.000 C 
ENDROOT
BRANCH   1  29
ATOM     24  C   UNL     1       4.899  12.433  27.048  0.00  0.00    +0.000 A 
ATOM     25  C   UNL     1       4.103  12.901  28.111  0.00  0.00    +0.000 A 
ATOM     26  C   UNL     1       4.347  14.145  28.699  0.00  0.00    +0.000 A 
ATOM     27  C   UNL     1       5.372  14.945  28.222  0.00  0.00    +0.000 A 
ATOM     28  C   UNL     1       6.161  14.489  27.166  0.00  0.00    +0.000 A 
ATOM     29  C   UNL     1       5.957  13.228  26.557  0.00  0.00    +0.000 A 
BRANCH  24  31
ATOM     30  C   UNL     1       3.902  10.267  27.140  0.00  0.00    +0.000 C 
ATOM     31  O   UNL     1       4.700  11.214  26.444  0.00  0.00    +0.000 OA
ENDBRANCH  24  31
ENDBRANCH   1  29
TORSDOF 2
ENDMDL
MODEL 4
REMARK VINA RESULT:      -6.5      1.408      1.981
REMARK  Name = 
REMARK  3 active torsions:
REMARK  status: ('A' for Active; 'I' for Inactive)
REMARK    1  A    between atoms: C_1  and  O_2
REMARK    2  A    between atoms: O_2  and  C_3
REMARK    3  A    between atoms: C_8  and  N_9
REMARK                            x       y       z     vdW  Elec       q    Type
REMARK                         _______ _______ _______ _____ _____    ______ ____
ROOT
ATOM      1  N   UNL     1       7.865  14.639  18.661  0.00  0.00    +0.000 N 
ATOM      2  C   UNL     1       7.124  14.040  17.545  0.00  0.00    +0.000 C 
ATOM      3  C   UNL     1       5.610  14.244  17.789  0.00  0.00    +0.000 C 
ATOM      4  N   UNL     1       5.211  15.617  18.164  0.00  0.00    +0.000 N 
ATOM      5  C   UNL     1       3.832  15.876  18.102  0.00  0.00    +0.000 C 
ATOM      6  O   UNL     1       3.121  15.179  17.367  0.00  0.00    +0.000 OA
ATOM      7  N   UNL     1       3.283  16.945  18.904  0.00  0.00    +0.000 N 
ATOM      8  C   UNL     1       1.956  17.316  18.398  0.00  0.00    +0.000 A 
ATOM      9  C   UNL     1       1.889  17.926  17.132  0.00  0.00    +0.000 A 
ATOM     10  C   UNL     1       0.658  18.253  16.546  0.00  0.00    +0.000 A 
ATOM     11  C   UNL     1      -0.527  18.022  17.239  0.00  0.00    +0.000 A 
ATOM     12  C   UNL     1      -0.483  17.401  18.484  0.00  0.00    +0.000 A 
ATOM     13  C   UNL     1       0.745  16.992  19.037  0.00  0.00    +0.000 A 
ATOM     14  S   UNL     1       0.648  15.821  20.380  0.00  0.00    +0.000 S 
ATOM     15  C   UNL     1       2.351  15.731  20.843  0.00  0.00    +0.000 A 
ATOM     16  C   UNL     1       2.758  14.843  21.832  0.00  0.00    +0.000 A 
ATOM     17  C   UNL     1       4.013  14.993  22.420  0.00  0.00    +0.000 A 
ATOM     18  C   UNL     1       4.752  16.138  22.152  0.00  0.00    +0.000 A 
ATOM     19 CL   UNL     1       6.268  16.380  22.930  0.00  0.00    +0.000 Cl
ATOM     20  C   UNL     1       4.351  17.007  21.133  0.00  0.00    +0.000 A 
ATOM     21  C   UNL     1       3.268  16.649  20.331  0.00  0.00    +0.000 A 
ATOM     22  C   UNL     1       6.171  16.327  19.006  0.00  0.00    +0.000 C 
ATOM     23  C   UNL     1       7.654  16.089  18.734  0.00  0.00    +0.000 C 
ENDROOT
BRANCH   1  29
ATOM     24  C   UNL     1      10.333  14.361  18.501  0.00  0.00    +0.000 A 
ATOM     25  C   UNL     1      11.499  13.810  19.066  0.00  0.00    +0.000 A 
ATOM     26  C   UNL     1      11.443  13.063  20.246  0.00  0.00    +0.000 A 
ATOM     27  C   UNL     1      10.223  12.840  20.864  0.00  0.00    +0.000 A 
ATOM     28  C   UNL     1       9.065  13.379  20.306  0.00  0.00    +0.000 A 
ATOM     29  C   UNL     1       9.084  14.156  19.123  0.00  0.00    +0.000 A 
BRANCH  24  31
ATOM     30  C   UNL     1      11.280  16.170  17.267  0.00  0.00    +0.000 C 
ATOM     31  O   UNL     1      10.342  15.106  17.346  0.00  0.00    +0.000 OA
ENDBRANCH  24  31
ENDBRANCH   1  29
TORSDOF 2
ENDMDL
MODEL 5
REMARK VINA RESULT:      -6.4      1.324      1.392
REMARK  Name = 
REMARK  3 active torsions:
REMARK  status: ('A' for Active; 'I' for Inactive)
REMARK    1  A    between atoms: C_1  and  O_2
REMARK    2  A    between atoms: O_2  and  C_3
REMARK    3  A    between atoms: C_8  and  N_9
REMARK                            x       y       z     vdW  Elec       q    Type
REMARK                         _______ _______ _______ _____ _____    ______ ____
ROOT
ATOM      1  N   UNL     1       7.734  14.996  18.710  0.00  0.00    +0.000 N 
ATOM      2  C   UNL     1       7.003  14.358  17.609  0.00  0.00    +0.000 C 
ATOM      3  C   UNL     1       5.486  14.518  17.863  0.00  0.00    +0.000 C 
ATOM      4  N   UNL     1       5.046  15.883  18.222  0.00  0.00    +0.000 N 
ATOM      5  C   UNL     1       3.659  16.098  18.169  0.00  0.00    +0.000 C 
ATOM      6  O   UNL     1       2.965  15.368  17.450  0.00  0.00    +0.000 OA
ATOM      7  N   UNL     1       3.084  17.160  18.961  0.00  0.00    +0.000 N 
ATOM      8  C   UNL     1       1.742  17.482  18.462  0.00  0.00    +0.000 A 
ATOM      9  C   UNL     1       1.644  18.072  17.187  0.00  0.00    +0.000 A 
ATOM     10  C   UNL     1       0.399  18.351  16.608  0.00  0.00    +0.000 A 
ATOM     11  C   UNL     1      -0.772  18.093  17.314  0.00  0.00    +0.000 A 
ATOM     12  C   UNL     1      -0.698  17.492  18.568  0.00  0.00    +0.000 A 
ATOM     13  C   UNL     1       0.546  17.129  19.116  0.00  0.00    +0.000 A 
ATOM     14  S   UNL     1       0.498  15.975  20.476  0.00  0.00    +0.000 S 
ATOM     15  C   UNL     1       2.207  15.946  20.925  0.00  0.00    +0.000 A 
ATOM     16  C   UNL     1       2.650  15.085  21.923  0.00  0.00    +0.000 A 
ATOM     17  C   UNL     1       3.905  15.283  22.498  0.00  0.00    +0.000 A 
ATOM     18  C   UNL     1       4.605  16.447  22.207  0.00  0.00    +0.000 A 
ATOM     19 CL   UNL     1       6.119  16.747  22.968  0.00  0.00    +0.000 Cl
ATOM     20  C   UNL     1       4.168  17.287  21.179  0.00  0.00    +0.000 A 
ATOM     21  C   UNL     1       3.090  16.884  20.392  0.00  0.00    +0.000 A 
ATOM     22  C   UNL     1       5.991  16.635  19.046  0.00  0.00    +0.000 C 
ATOM     23  C   UNL     1       7.478  16.440  18.765  0.00  0.00    +0.000 C 
ENDROOT
BRANCH   1  29
ATOM     24  C   UNL     1       9.246  14.109  20.477  0.00  0.00    +0.000 A 
ATOM     25  C   UNL     1      10.549  13.698  20.820  0.00  0.00    +0.000 A 
ATOM     26  C   UNL     1      11.582  13.721  19.879  0.00  0.00    +0.000 A 
ATOM     27  C   UNL     1      11.334  14.171  18.593  0.00  0.00    +0.000 A 
ATOM     28  C   UNL     1      10.046  14.584  18.249  0.00  0.00    +0.000 A 
ATOM     29  C   UNL     1       8.971  14.559  19.168  0.00  0.00    +0.000 A 
BRANCH  24  31
ATOM     30  C   UNL     1       8.066  12.955  22.200  0.00  0.00    +0.000 C 
ATOM     31  O   UNL     1       8.200  14.098  21.368  0.00  0.00    +0.000 OA
ENDBRANCH  24  31
ENDBRANCH   1  29
TORSDOF 2
ENDMDL
MODEL 6
REMARK VINA RESULT:      -6.3      7.417      8.797
REMARK  Name = 
REMARK  3 active torsions:
REMARK  status: ('A' for Active; 'I' for Inactive)
REMARK    1  A    between atoms: C_1  and  O_2
REMARK    2  A    between atoms: O_2  and  C_3
REMARK    3  A    between atoms: C_8  and  N_9
REMARK                            x       y       z     vdW  Elec       q    Type
REMARK                         _______ _______ _______ _____ _____    ______ ____
ROOT
ATOM      1  N   UNL     1       1.051   8.332  20.970  0.00  0.00    +0.000 N 
ATOM      2  C   UNL     1       1.667   9.028  22.106  0.00  0.00    +0.000 C 
ATOM      3  C   UNL     1       1.149  10.485  22.135  0.00  0.00    +0.000 C 
ATOM      4  N   UNL     1      -0.316  10.636  22.004  0.00  0.00    +0.000 N 
ATOM      5  C   UNL     1      -0.815  11.912  22.318  0.00  0.00    +0.000 C 
ATOM      6  O   UNL     1      -0.157  12.648  23.063  0.00  0.00    +0.000 OA
ATOM      7  N   UNL     1      -2.079  12.327  21.755  0.00  0.00    +0.000 N 
ATOM      8  C   UNL     1      -2.608  13.470  22.508  0.00  0.00    +0.000 A 
ATOM      9  C   UNL     1      -3.016  13.242  23.836  0.00  0.00    +0.000 A 
ATOM     10  C   UNL     1      -3.471  14.290  24.648  0.00  0.00    +0.000 A 
ATOM     11  C   UNL     1      -3.576  15.578  24.130  0.00  0.00    +0.000 A 
ATOM     12  C   UNL     1      -3.159  15.828  22.825  0.00  0.00    +0.000 A 
ATOM     13  C   UNL     1      -2.618  14.795  22.036  0.00  0.00    +0.000 A 
ATOM     14  S   UNL     1      -1.709  15.308  20.589  0.00  0.00    +0.000 S 
ATOM     15  C   UNL     1      -1.377  13.737  19.852  0.00  0.00    +0.000 A 
ATOM     16  C   UNL     1      -0.593  13.657  18.707  0.00  0.00    +0.000 A 
ATOM     17  C   UNL     1      -0.595  12.486  17.950  0.00  0.00    +0.000 A 
ATOM     18  C   UNL     1      -1.527  11.497  18.239  0.00  0.00    +0.000 A 
ATOM     19 CL   UNL     1      -1.599  10.079  17.265  0.00  0.00    +0.000 Cl
ATOM     20  C   UNL     1      -2.286  11.572  19.410  0.00  0.00    +0.000 A 
ATOM     21  C   UNL     1      -2.016  12.591  20.323  0.00  0.00    +0.000 A 
ATOM     22  C   UNL     1      -0.956   9.669  21.116  0.00  0.00    +0.000 C 
ATOM     23  C   UNL     1      -0.407   8.245  21.115  0.00  0.00    +0.000 C 
ENDROOT
BRANCH   1  29
ATOM     24  C   UNL     1       2.424   7.478  19.078  0.00  0.00    +0.000 A 
ATOM     25  C   UNL     1       3.001   6.358  18.449  0.00  0.00    +0.000 A 
ATOM     26  C   UNL     1       2.852   5.075  18.984  0.00  0.00    +0.000 A 
ATOM     27  C   UNL     1       2.110   4.891  20.139  0.00  0.00    +0.000 A 
ATOM     28  C   UNL     1       1.531   5.996  20.763  0.00  0.00    +0.000 A 
ATOM     29  C   UNL     1       1.675   7.311  20.262  0.00  0.00    +0.000 A 
BRANCH  24  31
ATOM     30  C   UNL     1       1.567   9.200  17.666  0.00  0.00    +0.000 C 
ATOM     31  O   UNL     1       2.550   8.756  18.591  0.00  0.00    +0.000 OA
ENDBRANCH  24  31
ENDBRANCH   1  29
TORSDOF 2
ENDMDL
MODEL 7
REMARK VINA RESULT:      -6.1      1.080      1.159
REMARK  Name = 
REMARK  3 active torsions:
REMARK  status: ('A' for Active; 'I' for Inactive)
REMARK    1  A    between atoms: C_1  and  O_2
REMARK    2  A    between atoms: O_2  and  C_3
REMARK    3  A    between atoms: C_8  and  N_9
REMARK                            x       y       z     vdW  Elec       q    Type
REMARK                         _______ _______ _______ _____ _____    ______ ____
ROOT
ATOM      1  N   UNL     1       8.364  14.549  18.498  0.00  0.00    +0.000 N 
ATOM      2  C   UNL     1       7.564  13.901  17.453  0.00  0.00    +0.000 C 
ATOM      3  C   UNL     1       6.066  14.082  17.792  0.00  0.00    +0.000 C 
ATOM      4  N   UNL     1       5.662  15.458  18.152  0.00  0.00    +0.000 N 
ATOM      5  C   UNL     1       4.277  15.688  18.177  0.00  0.00    +0.000 C 
ATOM      6  O   UNL     1       3.534  14.954  17.512  0.00  0.00    +0.000 OA
ATOM      7  N   UNL     1       3.760  16.770  18.982  0.00  0.00    +0.000 N 
ATOM      8  C   UNL     1       2.394  17.099  18.556  0.00  0.00    +0.000 A 
ATOM      9  C   UNL     1       2.229  17.668  17.279  0.00  0.00    +0.000 A 
ATOM     10  C   UNL     1       0.955  17.951  16.769  0.00  0.00    +0.000 A 
ATOM     11  C   UNL     1      -0.176  17.719  17.547  0.00  0.00    +0.000 A 
ATOM     12  C   UNL     1      -0.035  17.138  18.804  0.00  0.00    +0.000 A 
ATOM     13  C   UNL     1       1.236  16.771  19.285  0.00  0.00    +0.000 A 
ATOM     14  S   UNL     1       1.255  15.640  20.666  0.00  0.00    +0.000 S 
ATOM     15  C   UNL     1       2.987  15.599  21.014  0.00  0.00    +0.000 A 
ATOM     16  C   UNL     1       3.479  14.751  22.000  0.00  0.00    +0.000 A 
ATOM     17  C   UNL     1       4.767  14.944  22.497  0.00  0.00    +0.000 A 
ATOM     18  C   UNL     1       5.461  16.095  22.145  0.00  0.00    +0.000 A 
ATOM     19 CL   UNL     1       7.020  16.390  22.811  0.00  0.00    +0.000 Cl
ATOM     20  C   UNL     1       4.974  16.923  21.130  0.00  0.00    +0.000 A 
ATOM     21  C   UNL     1       3.847  16.519  20.415  0.00  0.00    +0.000 A 
ATOM     22  C   UNL     1       6.661  16.213  18.906  0.00  0.00    +0.000 C 
ATOM     23  C   UNL     1       8.128  15.996  18.542  0.00  0.00    +0.000 C 
ENDROOT
BRANCH   1  29
ATOM     24  C   UNL     1       9.946  12.778  19.246  0.00  0.00    +0.000 A 
ATOM     25  C   UNL     1      11.261  12.457  19.636  0.00  0.00    +0.000 A 
ATOM     26  C   UNL     1      12.260  13.432  19.671  0.00  0.00    +0.000 A 
ATOM     27  C   UNL     1      11.957  14.743  19.338  0.00  0.00    +0.000 A 
ATOM     28  C   UNL     1      10.656  15.068  18.956  0.00  0.00    +0.000 A 
ATOM     29  C   UNL     1       9.622  14.105  18.891  0.00  0.00    +0.000 A 
BRANCH  24  31
ATOM     30  C   UNL     1       9.296  10.485  19.339  0.00  0.00    +0.000 C 
ATOM     31  O   UNL     1       8.934  11.850  19.191  0.00  0.00    +0.000 OA
ENDBRANCH  24  31
ENDBRANCH   1  29
TORSDOF 2
ENDMDL
MODEL 8
REMARK VINA RESULT:      -6.0      6.930     11.156
REMARK  Name = 
REMARK  3 active torsions:
REMARK  status: ('A' for Active; 'I' for Inactive)
REMARK    1  A    between atoms: C_1  and  O_2
REMARK    2  A    between atoms: O_2  and  C_3
REMARK    3  A    between atoms: C_8  and  N_9
REMARK                            x       y       z     vdW  Elec       q    Type
REMARK                         _______ _______ _______ _____ _____    ______ ____
ROOT
ATOM      1  N   UNL     1      -4.050  13.269  22.128  0.00  0.00    +0.000 N 
ATOM      2  C   UNL     1      -2.991  13.460  23.126  0.00  0.00    +0.000 C 
ATOM      3  C   UNL     1      -1.627  13.150  22.466  0.00  0.00    +0.000 C 
ATOM      4  N   UNL     1      -1.399  13.795  21.155  0.00  0.00    +0.000 N 
ATOM      5  C   UNL     1      -0.073  13.757  20.694  0.00  0.00    +0.000 C 
ATOM      6  O   UNL     1       0.845  13.625  21.512  0.00  0.00    +0.000 OA
ATOM      7  N   UNL     1       0.178  13.867  19.275  0.00  0.00    +0.000 N 
ATOM      8  C   UNL     1       1.584  14.219  19.045  0.00  0.00    +0.000 A 
ATOM      9  C   UNL     1       2.010  15.499  19.449  0.00  0.00    +0.000 A 
ATOM     10  C   UNL     1       3.349  15.893  19.327  0.00  0.00    +0.000 A 
ATOM     11  C   UNL     1       4.279  15.033  18.748  0.00  0.00    +0.000 A 
ATOM     12  C   UNL     1       3.882  13.756  18.359  0.00  0.00    +0.000 A 
ATOM     13  C   UNL     1       2.558  13.325  18.562  0.00  0.00    +0.000 A 
ATOM     14  S   UNL     1       2.282  11.565  18.462  0.00  0.00    +0.000 S 
ATOM     15  C   UNL     1       0.522  11.513  18.611  0.00  0.00    +0.000 A 
ATOM     16  C   UNL     1      -0.136  10.290  18.667  0.00  0.00    +0.000 A 
ATOM     17  C   UNL     1      -1.514  10.237  18.459  0.00  0.00    +0.000 A 
ATOM     18  C   UNL     1      -2.172  11.373  18.005  0.00  0.00    +0.000 A 
ATOM     19 CL   UNL     1      -3.858  11.306  17.666  0.00  0.00    +0.000 Cl
ATOM     20  C   UNL     1      -1.510  12.604  17.984  0.00  0.00    +0.000 A 
ATOM     21  C   UNL     1      -0.226  12.686  18.522  0.00  0.00    +0.000 A 
ATOM     22  C   UNL     1      -2.588  13.911  20.314  0.00  0.00    +0.000 C 
ATOM     23  C   UNL     1      -3.914  14.209  21.009  0.00  0.00    +0.000 C 
ENDROOT
BRANCH   1  29
ATOM     24  C   UNL     1      -6.253  12.277  21.533  0.00  0.00    +0.000 A 
ATOM     25  C   UNL     1      -7.535  11.895  21.975  0.00  0.00    +0.000 A 
ATOM     26  C   UNL     1      -7.917  12.064  23.308  0.00  0.00    +0.000 A 
ATOM     27  C   UNL     1      -7.034  12.634  24.211  0.00  0.00    +0.000 A 
ATOM     28  C   UNL     1      -5.765  13.018  23.778  0.00  0.00    +0.000 A 
ATOM     29  C   UNL     1      -5.336  12.846  22.441  0.00  0.00    +0.000 A 
BRANCH  24  31
ATOM     30  C   UNL     1      -6.814  12.253  19.214  0.00  0.00    +0.000 C 
ATOM     31  O   UNL     1      -5.834  12.123  20.233  0.00  0.00    +0.000 OA
ENDBRANCH  24  31
ENDBRANCH   1  29
TORSDOF 2
ENDMDL
MODEL 9
REMARK VINA RESULT:      -6.0      4.346      8.225
REMARK  Name = 
REMARK  3 active torsions:
REMARK  status: ('A' for Active; 'I' for Inactive)
REMARK    1  A    between atoms: C_1  and  O_2
REMARK    2  A    between atoms: O_2  and  C_3
REMARK    3  A    between atoms: C_8  and  N_9
REMARK                            x       y       z     vdW  Elec       q    Type
REMARK                         _______ _______ _______ _____ _____    ______ ____
ROOT
ATOM      1  N   UNL     1       6.808  12.687  25.314  0.00  0.00    +0.000 N 
ATOM      2  C   UNL     1       6.630  11.486  24.490  0.00  0.00    +0.000 C 
ATOM      3  C   UNL     1       7.094  11.802  23.049  0.00  0.00    +0.000 C 
ATOM      4  N   UNL     1       8.410  12.467  22.941  0.00  0.00    +0.000 N 
ATOM      5  C   UNL     1       8.963  12.493  21.650  0.00  0.00    +0.000 C 
ATOM      6  O   UNL     1       8.604  11.643  20.826  0.00  0.00    +0.000 OA
ATOM      7  N   UNL     1       9.929  13.515  21.322  0.00  0.00    +0.000 N 
ATOM      8  C   UNL     1      10.672  13.129  20.116  0.00  0.00    +0.000 A 
ATOM      9  C   UNL     1      11.537  12.022  20.210  0.00  0.00    +0.000 A 
ATOM     10  C   UNL     1      12.233  11.546  19.090  0.00  0.00    +0.000 A 
ATOM     11  C   UNL     1      12.118  12.201  17.867  0.00  0.00    +0.000 A 
ATOM     12  C   UNL     1      11.253  13.285  17.750  0.00  0.00    +0.000 A 
ATOM     13  C   UNL     1      10.485  13.712  18.849  0.00  0.00    +0.000 A 
ATOM     14  S   UNL     1       9.105  14.778  18.475  0.00  0.00    +0.000 S 
ATOM     15  C   UNL     1       8.560  15.173  20.109  0.00  0.00    +0.000 A 
ATOM     16  C   UNL     1       7.417  15.943  20.294  0.00  0.00    +0.000 A 
ATOM     17  C   UNL     1       7.170  16.521  21.539  0.00  0.00    +0.000 A 
ATOM     18  C   UNL     1       8.162  16.485  22.510  0.00  0.00    +0.000 A 
ATOM     19 CL   UNL     1       7.906  17.262  24.024  0.00  0.00    +0.000 Cl
ATOM     20  C   UNL     1       9.291  15.682  22.326  0.00  0.00    +0.000 A 
ATOM     21  C   UNL     1       9.349  14.847  21.211  0.00  0.00    +0.000 A 
ATOM     22  C   UNL     1       8.706  13.418  24.010  0.00  0.00    +0.000 C 
ATOM     23  C   UNL     1       8.221  13.070  25.415  0.00  0.00    +0.000 C 
ENDROOT
BRANCH   1  29
ATOM     24  C   UNL     1       5.177  14.158  26.486  0.00  0.00    +0.000 A 
ATOM     25  C   UNL     1       4.399  14.375  27.640  0.00  0.00    +0.000 A 
ATOM     26  C   UNL     1       4.411  13.463  28.698  0.00  0.00    +0.000 A 
ATOM     27  C   UNL     1       5.213  12.336  28.629  0.00  0.00    +0.000 A 
ATOM     28  C   UNL     1       5.990  12.119  27.491  0.00  0.00    +0.000 A 
ATOM     29  C   UNL     1       5.991  13.009  26.392  0.00  0.00    +0.000 A 
BRANCH  24  31
ATOM     30  C   UNL     1       4.668  16.327  25.633  0.00  0.00    +0.000 C 
ATOM     31  O   UNL     1       5.192  15.025  25.420  0.00  0.00    +0.000 OA
ENDBRANCH  24  31
ENDBRANCH   1  29
TORSDOF 2
ENDMDL
