MODEL 1
REMARK VINA RESULT:      -8.1      0.000      0.000
REMARK  Name = 
REMARK  8 active torsions:
REMARK  status: ('A' for Active; 'I' for Inactive)
REMARK    1  A    between atoms: C_1  and  C_2
REMARK    2  A    between atoms: C_2  and  C_3
REMARK    3  A    between atoms: C_2  and  N_4
REMARK    4  A    between atoms: N_4  and  C_5
REMARK    5  A    between atoms: N_4  and  S_12
REMARK    6  A    between atoms: C_5  and  C_6
REMARK    7  A    between atoms: S_12  and  N_15
REMARK    8  A    between atoms: C_19  and  C_20
REMARK                            x       y       z     vdW  Elec       q    Type
REMARK                         _______ _______ _______ _____ _____    ______ ____
ROOT
ATOM      1  S   UNL     1       4.404   3.569  18.418  0.00  0.00    +0.000 S 
ATOM      2  O   UNL     1       5.304   3.471  19.548  0.00  0.00    +0.000 OA
ATOM      3  O   UNL     1       3.967   2.388  17.718  0.00  0.00    +0.000 OA
ENDROOT
BRANCH   1   4
ATOM      4  N   UNL     1       5.214   4.546  17.345  0.00  0.00    +0.000 NA
ATOM      5  C   UNL     1       4.590   4.960  16.086  0.00  0.00    +0.000 C 
ATOM      6  C   UNL     1       5.456   4.291  15.039  0.00  0.00    +0.000 C 
ATOM      7  C   UNL     1       6.859   4.362  15.626  0.00  0.00    +0.000 C 
ATOM      8  C   UNL     1       6.675   4.483  17.156  0.00  0.00    +0.000 C 
BRANCH   8   9
ATOM      9  C   UNL     1       7.300   5.763  17.645  0.00  0.00    +0.000 A 
ATOM     10  C   UNL     1       7.907   6.155  18.824  0.00  0.00    +0.000 A 
ATOM     11  C   UNL     1       8.187   7.542  18.695  0.00  0.00    +0.000 A 
ATOM     12  C   UNL     1       7.766   7.902  17.438  0.00  0.00    +0.000 A 
ATOM     13  O   UNL     1       7.241   6.831  16.788  0.00  0.00    +0.000 OA
ENDBRANCH   8   9
ENDBRANCH   1   4
BRANCH   1  14
ATOM     14  N   UNL     1       3.051   4.549  18.868  0.00  0.00    +0.000 NA
BRANCH  14  16
ATOM     15  C   UNL     1       1.056   2.963  18.846  0.00  0.00    +0.000 C 
ATOM     16  C   UNL     1       1.946   3.893  19.700  0.00  0.00    +0.000 C 
ATOM     17  C   UNL     1       2.479   3.029  20.842  0.00  0.00    +0.000 C 
ENDBRANCH  14  16
BRANCH  14  18
ATOM     18  C   UNL     1       3.512   5.877  19.463  0.00  0.00    +0.000 C 
BRANCH  18  19
ATOM     19  C   UNL     1       2.596   7.073  19.212  0.00  0.00    +0.000 A 
ATOM     20  C   UNL     1       2.558   7.680  17.958  0.00  0.00    +0.000 A 
ATOM     21  C   UNL     1       1.884   8.890  17.812  0.00  0.00    +0.000 A 
ATOM     22  C   UNL     1       1.247   9.453  18.909  0.00  0.00    +0.000 A 
ATOM     23  C   UNL     1       1.267   8.754  20.101  0.00  0.00    +0.000 A 
ATOM     24  N   UNL     1       1.901   7.573  20.266  0.00  0.00    +0.000 NA
ENDBRANCH  18  19
ENDBRANCH  14  18
ENDBRANCH   1  14
TORSDOF 6
ENDMDL
MODEL 2
REMARK VINA RESULT:      -7.8      0.651      1.112
REMARK  Name = 
REMARK  8 active torsions:
REMARK  status: ('A' for Active; 'I' for Inactive)
REMARK    1  A    between atoms: C_1  and  C_2
REMARK    2  A    between atoms: C_2  and  C_3
REMARK    3  A    between atoms: C_2  and  N_4
REMARK    4  A    between atoms: N_4  and  C_5
REMARK    5  A    between atoms: N_4  and  S_12
REMARK    6  A    between atoms: C_5  and  C_6
REMARK    7  A    between atoms: S_12  and  N_15
REMARK    8  A    between atoms: C_19  and  C_20
REMARK                            x       y       z     vdW  Elec       q    Type
REMARK                         _______ _______ _______ _____ _____    ______ ____
ROOT
ATOM      1  S   UNL     1       4.558   3.445  18.505  0.00  0.00    +0.000 S 
ATOM      2  O   UNL     1       5.556   3.436  19.554  0.00  0.00    +0.000 OA
ATOM      3  O   UNL     1       4.155   2.222  17.858  0.00  0.00    +0.000 OA
ENDROOT
BRANCH   1   4
ATOM      4  N   UNL     1       5.196   4.461  17.355  0.00  0.00    +0.000 NA
ATOM      5  C   UNL     1       4.490   4.710  16.096  0.00  0.00    +0.000 C 
ATOM      6  C   UNL     1       5.416   4.108  15.060  0.00  0.00    +0.000 C 
ATOM      7  C   UNL     1       6.809   4.408  15.597  0.00  0.00    +0.000 C 
ATOM      8  C   UNL     1       6.646   4.592  17.123  0.00  0.00    +0.000 C 
BRANCH   8   9
ATOM      9  C   UNL     1       7.096   5.973  17.522  0.00  0.00    +0.000 A 
ATOM     10  C   UNL     1       6.885   7.243  17.017  0.00  0.00    +0.000 A 
ATOM     11  C   UNL     1       7.687   8.125  17.789  0.00  0.00    +0.000 A 
ATOM     12  C   UNL     1       8.309   7.347  18.736  0.00  0.00    +0.000 A 
ATOM     13  O   UNL     1       7.947   6.046  18.594  0.00  0.00    +0.000 OA
ENDBRANCH   8   9
ENDBRANCH   1   4
BRANCH   1  14
ATOM     14  N   UNL     1       3.177   4.328  19.059  0.00  0.00    +0.000 NA
BRANCH  14  16
ATOM     15  C   UNL     1       2.245   4.052  21.415  0.00  0.00    +0.000 C 
ATOM     16  C   UNL     1       2.171   3.587  19.944  0.00  0.00    +0.000 C 
ATOM     17  C   UNL     1       0.719   3.791  19.514  0.00  0.00    +0.000 C 
ENDBRANCH  14  16
BRANCH  14  18
ATOM     18  C   UNL     1       3.590   5.672  19.652  0.00  0.00    +0.000 C 
BRANCH  18  19
ATOM     19  C   UNL     1       2.737   6.872  19.241  0.00  0.00    +0.000 A 
ATOM     20  C   UNL     1       2.843   7.405  17.958  0.00  0.00    +0.000 A 
ATOM     21  C   UNL     1       2.221   8.618  17.676  0.00  0.00    +0.000 A 
ATOM     22  C   UNL     1       1.492   9.258  18.668  0.00  0.00    +0.000 A 
ATOM     23  C   UNL     1       1.372   8.630  19.893  0.00  0.00    +0.000 A 
ATOM     24  N   UNL     1       1.953   7.447  20.189  0.00  0.00    +0.000 NA
ENDBRANCH  18  19
ENDBRANCH  14  18
ENDBRANCH   1  14
TORSDOF 6
ENDMDL
MODEL 3
REMARK VINA RESULT:      -7.5      0.818      1.352
REMARK  Name = 
REMARK  8 active torsions:
REMARK  status: ('A' for Active; 'I' for Inactive)
REMARK    1  A    between atoms: C_1  and  C_2
REMARK    2  A    between atoms: C_2  and  C_3
REMARK    3  A    between atoms: C_2  and  N_4
REMARK    4  A    between atoms: N_4  and  C_5
REMARK    5  A    between atoms: N_4  and  S_12
REMARK    6  A    between atoms: C_5  and  C_6
REMARK    7  A    between atoms: S_12  and  N_15
REMARK    8  A    between atoms: C_19  and  C_20
REMARK                            x       y       z     vdW  Elec       q    Type
REMARK                         _______ _______ _______ _____ _____    ______ ____
ROOT
ATOM      1  S   UNL     1       4.626   3.929  18.791  0.00  0.00    +0.000 S 
ATOM      2  O   UNL     1       5.329   4.300  20.003  0.00  0.00    +0.000 OA
ATOM      3  O   UNL     1       4.556   2.553  18.371  0.00  0.00    +0.000 OA
ENDROOT
BRANCH   1   4
ATOM      4  N   UNL     1       5.391   4.803  17.602  0.00  0.00    +0.000 NA
ATOM      5  C   UNL     1       4.737   5.058  16.317  0.00  0.00    +0.000 C 
ATOM      6  C   UNL     1       5.605   4.300  15.335  0.00  0.00    +0.000 C 
ATOM      7  C   UNL     1       7.014   4.473  15.884  0.00  0.00    +0.000 C 
ATOM      8  C   UNL     1       6.850   4.759  17.395  0.00  0.00    +0.000 C 
BRANCH   8   9
ATOM      9  C   UNL     1       7.446   6.101  17.728  0.00  0.00    +0.000 A 
ATOM     10  C   UNL     1       8.123   6.616  18.818  0.00  0.00    +0.000 A 
ATOM     11  C   UNL     1       8.321   7.998  18.557  0.00  0.00    +0.000 A 
ATOM     12  C   UNL     1       7.784   8.234  17.314  0.00  0.00    +0.000 A 
ATOM     13  O   UNL     1       7.266   7.090  16.796  0.00  0.00    +0.000 OA
ENDBRANCH   8   9
ENDBRANCH   1   4
BRANCH   1  14
ATOM     14  N   UNL     1       3.050   4.642  18.823  0.00  0.00    +0.000 NA
BRANCH  14  16
ATOM     15  C   UNL     1       0.952   3.830  20.021  0.00  0.00    +0.000 C 
ATOM     16  C   UNL     1       1.845   3.698  18.768  0.00  0.00    +0.000 C 
ATOM     17  C   UNL     1       0.928   3.953  17.572  0.00  0.00    +0.000 C 
ENDBRANCH  14  16
BRANCH  14  18
ATOM     18  C   UNL     1       2.934   5.663  19.950  0.00  0.00    +0.000 C 
BRANCH  18  19
ATOM     19  C   UNL     1       2.473   7.060  19.539  0.00  0.00    +0.000 A 
ATOM     20  C   UNL     1       1.718   7.839  20.415  0.00  0.00    +0.000 A 
ATOM     21  C   UNL     1       1.133   9.012  19.943  0.00  0.00    +0.000 A 
ATOM     22  C   UNL     1       1.330   9.390  18.623  0.00  0.00    +0.000 A 
ATOM     23  C   UNL     1       2.151   8.604  17.838  0.00  0.00    +0.000 A 
ATOM     24  N   UNL     1       2.743   7.471  18.273  0.00  0.00    +0.000 NA
ENDBRANCH  18  19
ENDBRANCH  14  18
ENDBRANCH   1  14
TORSDOF 6
ENDMDL
MODEL 4
REMARK VINA RESULT:      -7.5      1.141      2.733
REMARK  Name = 
REMARK  8 active torsions:
REMARK  status: ('A' for Active; 'I' for Inactive)
REMARK    1  A    between atoms: C_1  and  C_2
REMARK    2  A    between atoms: C_2  and  C_3
REMARK    3  A    between atoms: C_2  and  N_4
REMARK    4  A    between atoms: N_4  and  C_5
REMARK    5  A    between atoms: N_4  and  S_12
REMARK    6  A    between atoms: C_5  and  C_6
REMARK    7  A    between atoms: S_12  and  N_15
REMARK    8  A    between atoms: C_19  and  C_20
REMARK                            x       y       z     vdW  Elec       q    Type
REMARK                         _______ _______ _______ _____ _____    ______ ____
ROOT
ATOM      1  S   UNL     1       4.804   3.589  18.406  0.00  0.00    +0.000 S 
ATOM      2  O   UNL     1       5.389   3.605  19.731  0.00  0.00    +0.000 OA
ATOM      3  O   UNL     1       4.567   2.345  17.719  0.00  0.00    +0.000 OA
ENDROOT
BRANCH   1   4
ATOM      4  N   UNL     1       5.854   4.500  17.495  0.00  0.00    +0.000 NA
ATOM      5  C   UNL     1       7.101   5.009  18.069  0.00  0.00    +0.000 C 
ATOM      6  C   UNL     1       6.898   6.510  18.052  0.00  0.00    +0.000 C 
ATOM      7  C   UNL     1       6.117   6.759  16.769  0.00  0.00    +0.000 C 
ATOM      8  C   UNL     1       5.396   5.430  16.445  0.00  0.00    +0.000 C 
BRANCH   8   9
ATOM      9  C   UNL     1       5.841   4.923  15.098  0.00  0.00    +0.000 A 
ATOM     10  C   UNL     1       5.400   3.929  14.244  0.00  0.00    +0.000 A 
ATOM     11  C   UNL     1       6.326   3.878  13.168  0.00  0.00    +0.000 A 
ATOM     12  C   UNL     1       7.251   4.864  13.413  0.00  0.00    +0.000 A 
ATOM     13  O   UNL     1       6.960   5.513  14.570  0.00  0.00    +0.000 OA
ENDBRANCH   8   9
ENDBRANCH   1   4
BRANCH   1  14
ATOM     14  N   UNL     1       3.375   4.564  18.417  0.00  0.00    +0.000 NA
BRANCH  14  16
ATOM     15  C   UNL     1       1.333   3.996  19.832  0.00  0.00    +0.000 C 
ATOM     16  C   UNL     1       2.025   3.843  18.460  0.00  0.00    +0.000 C 
ATOM     17  C   UNL     1       1.026   4.362  17.427  0.00  0.00    +0.000 C 
ENDBRANCH  14  16
BRANCH  14  18
ATOM     18  C   UNL     1       3.475   5.668  19.465  0.00  0.00    +0.000 C 
BRANCH  18  19
ATOM     19  C   UNL     1       2.668   6.934  19.179  0.00  0.00    +0.000 A 
ATOM     20  C   UNL     1       2.777   7.575  17.946  0.00  0.00    +0.000 A 
ATOM     21  C   UNL     1       2.202   8.833  17.786  0.00  0.00    +0.000 A 
ATOM     22  C   UNL     1       1.517   9.411  18.845  0.00  0.00    +0.000 A 
ATOM     23  C   UNL     1       1.388   8.681  20.011  0.00  0.00    +0.000 A 
ATOM     24  N   UNL     1       1.923   7.453  20.189  0.00  0.00    +0.000 NA
ENDBRANCH  18  19
ENDBRANCH  14  18
ENDBRANCH   1  14
TORSDOF 6
ENDMDL
MODEL 5
REMARK VINA RESULT:      -7.3      2.361      6.434
REMARK  Name = 
REMARK  8 active torsions:
REMARK  status: ('A' for Active; 'I' for Inactive)
REMARK    1  A    between atoms: C_1  and  C_2
REMARK    2  A    between atoms: C_2  and  C_3
REMARK    3  A    between atoms: C_2  and  N_4
REMARK    4  A    between atoms: N_4  and  C_5
REMARK    5  A    between atoms: N_4  and  S_12
REMARK    6  A    between atoms: C_5  and  C_6
REMARK    7  A    between atoms: S_12  and  N_15
REMARK    8  A    between atoms: C_19  and  C_20
REMARK                            x       y       z     vdW  Elec       q    Type
REMARK                         _______ _______ _______ _____ _____    ______ ____
ROOT
ATOM      1  S   UNL     1       5.423   4.805  18.548  0.00  0.00    +0.000 S 
ATOM      2  O   UNL     1       6.455   3.835  18.850  0.00  0.00    +0.000 OA
ATOM      3  O   UNL     1       5.170   5.914  19.433  0.00  0.00    +0.000 OA
ENDROOT
BRANCH   1   4
ATOM      4  N   UNL     1       4.037   3.894  18.438  0.00  0.00    +0.000 NA
ATOM      5  C   UNL     1       3.858   2.926  17.355  0.00  0.00    +0.000 C 
ATOM      6  C   UNL     1       2.697   3.501  16.570  0.00  0.00    +0.000 C 
ATOM      7  C   UNL     1       1.799   4.107  17.639  0.00  0.00    +0.000 C 
ATOM      8  C   UNL     1       2.715   4.402  18.849  0.00  0.00    +0.000 C 
BRANCH   8   9
ATOM      9  C   UNL     1       2.235   3.636  20.053  0.00  0.00    +0.000 A 
ATOM     10  C   UNL     1       1.027   3.536  20.718  0.00  0.00    +0.000 A 
ATOM     11  C   UNL     1       1.258   2.725  21.860  0.00  0.00    +0.000 A 
ATOM     12  C   UNL     1       2.580   2.352  21.804  0.00  0.00    +0.000 A 
ATOM     13  O   UNL     1       3.177   2.885  20.707  0.00  0.00    +0.000 OA
ENDBRANCH   8   9
ENDBRANCH   1   4
BRANCH   1  14
ATOM     14  N   UNL     1       5.637   5.357  16.922  0.00  0.00    +0.000 NA
BRANCH  14  16
ATOM     15  C   UNL     1       4.265   7.489  17.185  0.00  0.00    +0.000 C 
ATOM     16  C   UNL     1       5.582   6.867  16.673  0.00  0.00    +0.000 C 
ATOM     17  C   UNL     1       6.706   7.637  17.366  0.00  0.00    +0.000 C 
ENDBRANCH  14  16
BRANCH  14  18
ATOM     18  C   UNL     1       6.862   4.709  16.282  0.00  0.00    +0.000 C 
BRANCH  18  19
ATOM     19  C   UNL     1       6.876   4.674  14.755  0.00  0.00    +0.000 A 
ATOM     20  C   UNL     1       6.053   3.786  14.064  0.00  0.00    +0.000 A 
ATOM     21  C   UNL     1       6.236   3.622  12.693  0.00  0.00    +0.000 A 
ATOM     22  C   UNL     1       7.215   4.359  12.042  0.00  0.00    +0.000 A 
ATOM     23  C   UNL     1       7.940   5.273  12.783  0.00  0.00    +0.000 A 
ATOM     24  N   UNL     1       7.773   5.463  14.110  0.00  0.00    +0.000 NA
ENDBRANCH  18  19
ENDBRANCH  14  18
ENDBRANCH   1  14
TORSDOF 6
ENDMDL
MODEL 6
REMARK VINA RESULT:      -7.2      2.011      6.097
REMARK  Name = 
REMARK  8 active torsions:
REMARK  status: ('A' for Active; 'I' for Inactive)
REMARK    1  A    between atoms: C_1  and  C_2
REMARK    2  A    between atoms: C_2  and  C_3
REMARK    3  A    between atoms: C_2  and  N_4
REMARK    4  A    between atoms: N_4  and  C_5
REMARK    5  A    between atoms: N_4  and  S_12
REMARK    6  A    between atoms: C_5  and  C_6
REMARK    7  A    between atoms: S_12  and  N_15
REMARK    8  A    between atoms: C_19  and  C_20
REMARK                            x       y       z     vdW  Elec       q    Type
REMARK                         _______ _______ _______ _____ _____    ______ ____
ROOT
ATOM      1  S   UNL     1       3.549   3.273  17.459  0.00  0.00    +0.000 S 
ATOM      2  O   UNL     1       2.352   3.426  16.657  0.00  0.00    +0.000 OA
ATOM      3  O   UNL     1       4.150   1.977  17.649  0.00  0.00    +0.000 OA
ENDROOT
BRANCH   1   4
ATOM      4  N   UNL     1       3.113   3.873  18.946  0.00  0.00    +0.000 NA
ATOM      5  C   UNL     1       3.640   3.283  20.178  0.00  0.00    +0.000 C 
ATOM      6  C   UNL     1       2.404   2.705  20.837  0.00  0.00    +0.000 C 
ATOM      7  C   UNL     1       1.308   3.706  20.499  0.00  0.00    +0.000 C 
ATOM      8  C   UNL     1       1.777   4.434  19.218  0.00  0.00    +0.000 C 
BRANCH   8   9
ATOM      9  C   UNL     1       1.898   5.912  19.487  0.00  0.00    +0.000 A 
ATOM     10  C   UNL     1       1.786   6.702  20.615  0.00  0.00    +0.000 A 
ATOM     11  C   UNL     1       1.901   8.050  20.180  0.00  0.00    +0.000 A 
ATOM     12  C   UNL     1       2.109   7.996  18.822  0.00  0.00    +0.000 A 
ATOM     13  O   UNL     1       2.125   6.708  18.394  0.00  0.00    +0.000 OA
ENDBRANCH   8   9
ENDBRANCH   1   4
BRANCH   1  14
ATOM     14  N   UNL     1       4.727   4.422  16.924  0.00  0.00    +0.000 NA
BRANCH  14  16
ATOM     15  C   UNL     1       6.447   5.206  18.633  0.00  0.00    +0.000 C 
ATOM     16  C   UNL     1       5.129   5.532  17.898  0.00  0.00    +0.000 C 
ATOM     17  C   UNL     1       5.350   6.884  17.221  0.00  0.00    +0.000 C 
ENDBRANCH  14  16
BRANCH  14  18
ATOM     18  C   UNL     1       5.939   3.719  16.316  0.00  0.00    +0.000 C 
BRANCH  18  19
ATOM     19  C   UNL     1       6.310   4.141  14.896  0.00  0.00    +0.000 A 
ATOM     20  C   UNL     1       5.723   3.513  13.798  0.00  0.00    +0.000 A 
ATOM     21  C   UNL     1       6.230   3.763  12.525  0.00  0.00    +0.000 A 
ATOM     22  C   UNL     1       7.291   4.645  12.374  0.00  0.00    +0.000 A 
ATOM     23  C   UNL     1       7.769   5.285  13.502  0.00  0.00    +0.000 A 
ATOM     24  N   UNL     1       7.287   5.072  14.745  0.00  0.00    +0.000 NA
ENDBRANCH  18  19
ENDBRANCH  14  18
ENDBRANCH   1  14
TORSDOF 6
ENDMDL
MODEL 7
REMARK VINA RESULT:      -7.1      2.039      6.109
REMARK  Name = 
REMARK  8 active torsions:
REMARK  status: ('A' for Active; 'I' for Inactive)
REMARK    1  A    between atoms: C_1  and  C_2
REMARK    2  A    between atoms: C_2  and  C_3
REMARK    3  A    between atoms: C_2  and  N_4
REMARK    4  A    between atoms: N_4  and  C_5
REMARK    5  A    between atoms: N_4  and  S_12
REMARK    6  A    between atoms: C_5  and  C_6
REMARK    7  A    between atoms: S_12  and  N_15
REMARK    8  A    between atoms: C_19  and  C_20
REMARK                            x       y       z     vdW  Elec       q    Type
REMARK                         _______ _______ _______ _____ _____    ______ ____
ROOT
ATOM      1  S   UNL     1       5.375   4.535  18.911  0.00  0.00    +0.000 S 
ATOM      2  O   UNL     1       5.624   3.109  18.862  0.00  0.00    +0.000 OA
ATOM      3  O   UNL     1       6.024   5.364  19.894  0.00  0.00    +0.000 OA
ENDROOT
BRANCH   1   4
ATOM      4  N   UNL     1       3.731   4.647  19.133  0.00  0.00    +0.000 NA
ATOM      5  C   UNL     1       2.941   3.471  19.503  0.00  0.00    +0.000 C 
ATOM      6  C   UNL     1       2.051   3.263  18.295  0.00  0.00    +0.000 C 
ATOM      7  C   UNL     1       1.734   4.677  17.827  0.00  0.00    +0.000 C 
ATOM      8  C   UNL     1       2.883   5.567  18.353  0.00  0.00    +0.000 C 
BRANCH   8   9
ATOM      9  C   UNL     1       2.329   6.631  19.264  0.00  0.00    +0.000 A 
ATOM     10  C   UNL     1       1.867   6.646  20.567  0.00  0.00    +0.000 A 
ATOM     11  C   UNL     1       1.369   7.954  20.807  0.00  0.00    +0.000 A 
ATOM     12  C   UNL     1       1.588   8.665  19.651  0.00  0.00    +0.000 A 
ATOM     13  O   UNL     1       2.182   7.879  18.716  0.00  0.00    +0.000 OA
ENDBRANCH   8   9
ENDBRANCH   1   4
BRANCH   1  14
ATOM     14  N   UNL     1       5.583   5.191  17.324  0.00  0.00    +0.000 NA
BRANCH  14  16
ATOM     15  C   UNL     1       6.923   7.358  17.256  0.00  0.00    +0.000 C 
ATOM     16  C   UNL     1       5.522   6.713  17.173  0.00  0.00    +0.000 C 
ATOM     17  C   UNL     1       4.932   7.168  15.838  0.00  0.00    +0.000 C 
ENDBRANCH  14  16
BRANCH  14  18
ATOM     18  C   UNL     1       6.808   4.590  16.640  0.00  0.00    +0.000 C 
BRANCH  18  19
ATOM     19  C   UNL     1       6.780   4.577  15.113  0.00  0.00    +0.000 A 
ATOM     20  C   UNL     1       5.878   3.761  14.432  0.00  0.00    +0.000 A 
ATOM     21  C   UNL     1       6.013   3.606  13.054  0.00  0.00    +0.000 A 
ATOM     22  C   UNL     1       7.026   4.281  12.388  0.00  0.00    +0.000 A 
ATOM     23  C   UNL     1       7.833   5.130  13.121  0.00  0.00    +0.000 A 
ATOM     24  N   UNL     1       7.715   5.310  14.455  0.00  0.00    +0.000 NA
ENDBRANCH  18  19
ENDBRANCH  14  18
ENDBRANCH   1  14
TORSDOF 6
ENDMDL
MODEL 8
REMARK VINA RESULT:      -7.0      1.899      6.587
REMARK  Name = 
REMARK  8 active torsions:
REMARK  status: ('A' for Active; 'I' for Inactive)
REMARK    1  A    between atoms: C_1  and  C_2
REMARK    2  A    between atoms: C_2  and  C_3
REMARK    3  A    between atoms: C_2  and  N_4
REMARK    4  A    between atoms: N_4  and  C_5
REMARK    5  A    between atoms: N_4  and  S_12
REMARK    6  A    between atoms: C_5  and  C_6
REMARK    7  A    between atoms: S_12  and  N_15
REMARK    8  A    between atoms: C_19  and  C_20
REMARK                            x       y       z     vdW  Elec       q    Type
REMARK                         _______ _______ _______ _____ _____    ______ ____
ROOT
ATOM      1  S   UNL     1       5.807   4.969  18.683  0.00  0.00    +0.000 S 
ATOM      2  O   UNL     1       5.855   3.521  18.650  0.00  0.00    +0.000 OA
ATOM      3  O   UNL     1       6.219   5.694  19.858  0.00  0.00    +0.000 OA
ENDROOT
BRANCH   1   4
ATOM      4  N   UNL     1       4.213   5.324  18.378  0.00  0.00    +0.000 NA
ATOM      5  C   UNL     1       3.833   6.158  17.237  0.00  0.00    +0.000 C 
ATOM      6  C   UNL     1       3.248   7.391  17.894  0.00  0.00    +0.000 C 
ATOM      7  C   UNL     1       2.531   6.846  19.122  0.00  0.00    +0.000 C 
ATOM      8  C   UNL     1       3.217   5.500  19.452  0.00  0.00    +0.000 C 
BRANCH   8   9
ATOM      9  C   UNL     1       2.208   4.384  19.389  0.00  0.00    +0.000 A 
ATOM     10  C   UNL     1       1.683   3.611  18.370  0.00  0.00    +0.000 A 
ATOM     11  C   UNL     1       0.676   2.797  18.955  0.00  0.00    +0.000 A 
ATOM     12  C   UNL     1       0.673   3.099  20.296  0.00  0.00    +0.000 A 
ATOM     13  O   UNL     1       1.605   4.046  20.572  0.00  0.00    +0.000 OA
ENDBRANCH   8   9
ENDBRANCH   1   4
BRANCH   1  14
ATOM     14  N   UNL     1       6.603   5.583  17.274  0.00  0.00    +0.000 NA
BRANCH  14  16
ATOM     15  C   UNL     1       6.855   8.118  17.348  0.00  0.00    +0.000 C 
ATOM     16  C   UNL     1       7.570   6.754  17.461  0.00  0.00    +0.000 C 
ATOM     17  C   UNL     1       8.264   6.757  18.823  0.00  0.00    +0.000 C 
ENDBRANCH  14  16
BRANCH  14  18
ATOM     18  C   UNL     1       7.216   4.450  16.456  0.00  0.00    +0.000 C 
BRANCH  18  19
ATOM     19  C   UNL     1       7.023   4.541  14.943  0.00  0.00    +0.000 A 
ATOM     20  C   UNL     1       6.082   3.736  14.303  0.00  0.00    +0.000 A 
ATOM     21  C   UNL     1       6.073   3.681  12.912  0.00  0.00    +0.000 A 
ATOM     22  C   UNL     1       6.982   4.444  12.193  0.00  0.00    +0.000 A 
ATOM     23  C   UNL     1       7.834   5.274  12.897  0.00  0.00    +0.000 A 
ATOM     24  N   UNL     1       7.855   5.357  14.245  0.00  0.00    +0.000 NA
ENDBRANCH  18  19
ENDBRANCH  14  18
ENDBRANCH   1  14
TORSDOF 6
ENDMDL
MODEL 9
REMARK VINA RESULT:      -7.0      1.361      2.943
REMARK  Name = 
REMARK  8 active torsions:
REMARK  status: ('A' for Active; 'I' for Inactive)
REMARK    1  A    between atoms: C_1  and  C_2
REMARK    2  A    between atoms: C_2  and  C_3
REMARK    3  A    between atoms: C_2  and  N_4
REMARK    4  A    between atoms: N_4  and  C_5
REMARK    5  A    between atoms: N_4  and  S_12
REMARK    6  A    between atoms: C_5  and  C_6
REMARK    7  A    between atoms: S_12  and  N_15
REMARK    8  A    between atoms: C_19  and  C_20
REMARK                            x       y       z     vdW  Elec       q    Type
REMARK                         _______ _______ _______ _____ _____    ______ ____
ROOT
ATOM      1  S   UNL     1       5.270   4.265  19.069  0.00  0.00    +0.000 S 
ATOM      2  O   UNL     1       5.674   4.923  20.295  0.00  0.00    +0.000 OA
ATOM      3  O   UNL     1       5.356   2.833  18.937  0.00  0.00    +0.000 OA
ENDROOT
BRANCH   1   4
ATOM      4  N   UNL     1       6.234   4.958  17.906  0.00  0.00    +0.000 NA
ATOM      5  C   UNL     1       7.601   5.381  18.217  0.00  0.00    +0.000 C 
ATOM      6  C   UNL     1       7.540   6.886  18.055  0.00  0.00    +0.000 C 
ATOM      7  C   UNL     1       6.583   7.089  16.888  0.00  0.00    +0.000 C 
ATOM      8  C   UNL     1       5.698   5.822  16.838  0.00  0.00    +0.000 C 
BRANCH   8   9
ATOM      9  C   UNL     1       5.864   5.136  15.507  0.00  0.00    +0.000 A 
ATOM     10  C   UNL     1       5.197   4.117  14.854  0.00  0.00    +0.000 A 
ATOM     11  C   UNL     1       5.923   3.854  13.662  0.00  0.00    +0.000 A 
ATOM     12  C   UNL     1       6.966   4.749  13.644  0.00  0.00    +0.000 A 
ATOM     13  O   UNL     1       6.932   5.539  14.748  0.00  0.00    +0.000 OA
ENDBRANCH   8   9
ENDBRANCH   1   4
BRANCH   1  14
ATOM     14  N   UNL     1       3.693   4.827  18.630  0.00  0.00    +0.000 NA
BRANCH  14  16
ATOM     15  C   UNL     1       2.178   2.843  19.141  0.00  0.00    +0.000 C 
ATOM     16  C   UNL     1       2.711   3.804  18.056  0.00  0.00    +0.000 C 
ATOM     17  C   UNL     1       1.476   4.439  17.417  0.00  0.00    +0.000 C 
ENDBRANCH  14  16
BRANCH  14  18
ATOM     18  C   UNL     1       3.076   5.655  19.755  0.00  0.00    +0.000 C 
BRANCH  18  19
ATOM     19  C   UNL     1       2.602   7.054  19.368  0.00  0.00    +0.000 A 
ATOM     20  C   UNL     1       1.802   7.792  20.240  0.00  0.00    +0.000 A 
ATOM     21  C   UNL     1       1.210   8.967  19.783  0.00  0.00    +0.000 A 
ATOM     22  C   UNL     1       1.445   9.389  18.482  0.00  0.00    +0.000 A 
ATOM     23  C   UNL     1       2.309   8.642  17.703  0.00  0.00    +0.000 A 
ATOM     24  N   UNL     1       2.907   7.508  18.125  0.00  0.00    +0.000 NA
ENDBRANCH  18  19
ENDBRANCH  14  18
ENDBRANCH   1  14
TORSDOF 6
ENDMDL
