MODEL 1
REMARK VINA RESULT:      -8.0      0.000      0.000
REMARK  Name = 
REMARK  15 active torsions:
REMARK  status: ('A' for Active; 'I' for Inactive)
REMARK    1  A    between atoms: C_1  and  C_2
REMARK    2  A    between atoms: C_2  and  N_3
REMARK    3  A    between atoms: N_3  and  C_4
REMARK    4  A    between atoms: C_4  and  C_5
REMARK    5  A    between atoms: C_6  and  O_8
REMARK    6  A    between atoms: O_8  and  C_9
REMARK    7  A    between atoms: C_13  and  C_14
REMARK    8  A    between atoms: C_15  and  C_16
REMARK    9  A    between atoms: C_16  and  C_18
REMARK   10  A    between atoms: C_23  and  O_24
REMARK   11  A    between atoms: O_24  and  C_25
REMARK   12  A    between atoms: N_27  and  C_28
REMARK   13  A    between atoms: N_27  and  C_30
REMARK   14  A    between atoms: C_28  and  C_29
REMARK   15  A    between atoms: C_30  and  C_31
REMARK                            x       y       z     vdW  Elec       q    Type
REMARK                         _______ _______ _______ _____ _____    ______ ____
ROOT
ATOM      1  C   UNL     1       1.346   8.605  19.541  0.00  0.00    +0.000 C 
ATOM      2  C   UNL     1       1.911   7.520  20.100  0.00  0.00    +0.000 C 
ENDROOT
BRANCH   1   7
ATOM      3  C   UNL     1      -1.129  11.384  20.204  0.00  0.00    +0.000 A 
ATOM      4  C   UNL     1      -1.020  11.547  21.585  0.00  0.00    +0.000 A 
ATOM      5  C   UNL     1      -0.184  10.694  22.307  0.00  0.00    +0.000 A 
ATOM      6  C   UNL     1       0.551   9.701  21.649  0.00  0.00    +0.000 A 
ATOM      7  C   UNL     1       0.459   9.543  20.260  0.00  0.00    +0.000 A 
ATOM      8  C   UNL     1      -0.387  10.400  19.544  0.00  0.00    +0.000 A 
BRANCH   3   9
ATOM      9  O   UNL     1      -1.917  12.327  19.501  0.00  0.00    +0.000 OA
BRANCH   9  11
ATOM     10  N   UNL     1      -3.752  11.612  18.251  0.00  0.00    +0.000 N 
ATOM     11  C   UNL     1      -3.304  12.153  19.454  0.00  0.00    +0.000 C 
ATOM     12  O   UNL     1      -4.071  12.458  20.369  0.00  0.00    +0.000 OA
BRANCH  10  14
ATOM     13  C   UNL     1      -5.834  12.509  17.187  0.00  0.00    +0.000 C 
ATOM     14  C   UNL     1      -5.196  11.453  18.077  0.00  0.00    +0.000 C 
ENDBRANCH  10  14
BRANCH  10  15
ATOM     15  C   UNL     1      -2.869  11.337  17.119  0.00  0.00    +0.000 C 
ATOM     16  C   UNL     1      -2.723   9.860  16.788  0.00  0.00    +0.000 C 
ENDBRANCH  10  15
ENDBRANCH   9  11
ENDBRANCH   3   9
ENDBRANCH   1   7
BRANCH   2  17
ATOM     17  C   UNL     1       2.669   6.522  19.274  0.00  0.00    +0.000 C 
ATOM     18  O   UNL     1       3.538   6.870  18.483  0.00  0.00    +0.000 OA
BRANCH  17  19
ATOM     19  C   UNL     1       2.317   5.086  19.468  0.00  0.00    +0.000 A 
ATOM     20  C   UNL     1       1.424   4.769  20.514  0.00  0.00    +0.000 A 
ATOM     21  C   UNL     1       1.065   3.450  20.786  0.00  0.00    +0.000 A 
ATOM     22  C   UNL     1       1.616   2.418  20.041  0.00  0.00    +0.000 A 
ATOM     23  C   UNL     1       2.533   2.703  19.032  0.00  0.00    +0.000 A 
ATOM     24  C   UNL     1       2.875   4.032  18.718  0.00  0.00    +0.000 A 
BRANCH  24  25
ATOM     25  O   UNL     1       3.859   4.271  17.721  0.00  0.00    +0.000 OA
BRANCH  25  26
ATOM     26  C   UNL     1       5.212   4.201  18.107  0.00  0.00    +0.000 C 
ATOM     27  O   UNL     1       5.582   3.692  19.157  0.00  0.00    +0.000 OA
ATOM     28  N   UNL     1       6.088   4.861  17.234  0.00  0.00    +0.000 N 
BRANCH  28  29
ATOM     29  C   UNL     1       5.760   5.068  15.824  0.00  0.00    +0.000 C 
ATOM     30  C   UNL     1       6.435   4.059  14.907  0.00  0.00    +0.000 C 
ENDBRANCH  28  29
BRANCH  28  31
ATOM     31  C   UNL     1       7.468   5.048  17.700  0.00  0.00    +0.000 C 
ATOM     32  C   UNL     1       7.729   6.330  18.487  0.00  0.00    +0.000 C 
ENDBRANCH  28  31
ENDBRANCH  25  26
ENDBRANCH  24  25
ENDBRANCH  17  19
ENDBRANCH   2  17
TORSDOF 11
ENDMDL
MODEL 2
REMARK VINA RESULT:      -7.9      5.503      9.481
REMARK  Name = 
REMARK  15 active torsions:
REMARK  status: ('A' for Active; 'I' for Inactive)
REMARK    1  A    between atoms: C_1  and  C_2
REMARK    2  A    between atoms: C_2  and  N_3
REMARK    3  A    between atoms: N_3  and  C_4
REMARK    4  A    between atoms: C_4  and  C_5
REMARK    5  A    between atoms: C_6  and  O_8
REMARK    6  A    between atoms: O_8  and  C_9
REMARK    7  A    between atoms: C_13  and  C_14
REMARK    8  A    between atoms: C_15  and  C_16
REMARK    9  A    between atoms: C_16  and  C_18
REMARK   10  A    between atoms: C_23  and  O_24
REMARK   11  A    between atoms: O_24  and  C_25
REMARK   12  A    between atoms: N_27  and  C_28
REMARK   13  A    between atoms: N_27  and  C_30
REMARK   14  A    between atoms: C_28  and  C_29
REMARK   15  A    between atoms: C_30  and  C_31
REMARK                            x       y       z     vdW  Elec       q    Type
REMARK                         _______ _______ _______ _____ _____    ______ ____
ROOT
ATOM      1  C   UNL     1       8.525   8.178  18.827  0.00  0.00    +0.000 C 
ATOM      2  C   UNL     1       7.720   7.491  17.996  0.00  0.00    +0.000 C 
ENDROOT
BRANCH   1   7
ATOM      3  C   UNL     1       9.852  11.639  19.565  0.00  0.00    +0.000 A 
ATOM      4  C   UNL     1       9.236  12.404  18.574  0.00  0.00    +0.000 A 
ATOM      5  C   UNL     1       8.440  11.768  17.620  0.00  0.00    +0.000 A 
ATOM      6  C   UNL     1       8.246  10.383  17.670  0.00  0.00    +0.000 A 
ATOM      7  C   UNL     1       8.849   9.612  18.673  0.00  0.00    +0.000 A 
ATOM      8  C   UNL     1       9.651  10.257  19.622  0.00  0.00    +0.000 A 
BRANCH   3   9
ATOM      9  O   UNL     1      10.576  12.335  20.562  0.00  0.00    +0.000 OA
BRANCH   9  11
ATOM     10  N   UNL     1      10.260  14.553  21.212  0.00  0.00    +0.000 N 
ATOM     11  C   UNL     1       9.895  13.222  21.402  0.00  0.00    +0.000 C 
ATOM     12  O   UNL     1       9.064  12.877  22.245  0.00  0.00    +0.000 OA
BRANCH  10  14
ATOM     13  C   UNL     1      10.626  16.195  23.068  0.00  0.00    +0.000 C 
ATOM     14  C   UNL     1       9.652  15.553  22.090  0.00  0.00    +0.000 C 
ENDBRANCH  10  14
BRANCH  10  15
ATOM     15  C   UNL     1      11.314  14.970  20.288  0.00  0.00    +0.000 C 
ATOM     16  C   UNL     1      10.806  15.696  19.052  0.00  0.00    +0.000 C 
ENDBRANCH  10  15
ENDBRANCH   9  11
ENDBRANCH   3   9
ENDBRANCH   1   7
BRANCH   2  17
ATOM     17  C   UNL     1       7.562   6.003  18.114  0.00  0.00    +0.000 C 
ATOM     18  O   UNL     1       8.047   5.379  19.051  0.00  0.00    +0.000 OA
BRANCH  17  19
ATOM     19  C   UNL     1       6.781   5.324  17.041  0.00  0.00    +0.000 A 
ATOM     20  C   UNL     1       7.412   5.139  15.793  0.00  0.00    +0.000 A 
ATOM     21  C   UNL     1       6.746   4.541  14.725  0.00  0.00    +0.000 A 
ATOM     22  C   UNL     1       5.425   4.146  14.871  0.00  0.00    +0.000 A 
ATOM     23  C   UNL     1       4.767   4.358  16.081  0.00  0.00    +0.000 A 
ATOM     24  C   UNL     1       5.438   4.924  17.181  0.00  0.00    +0.000 A 
BRANCH  24  25
ATOM     25  O   UNL     1       4.709   5.175  18.376  0.00  0.00    +0.000 OA
BRANCH  25  26
ATOM     26  C   UNL     1       4.396   4.072  19.194  0.00  0.00    +0.000 C 
ATOM     27  O   UNL     1       5.247   3.333  19.675  0.00  0.00    +0.000 OA
ATOM     28  N   UNL     1       3.021   3.829  19.321  0.00  0.00    +0.000 N 
BRANCH  28  29
ATOM     29  C   UNL     1       2.032   4.893  19.152  0.00  0.00    +0.000 C 
ATOM     30  C   UNL     1       2.089   5.933  20.262  0.00  0.00    +0.000 C 
ENDBRANCH  28  29
BRANCH  28  31
ATOM     31  C   UNL     1       2.631   2.558  19.943  0.00  0.00    +0.000 C 
ATOM     32  C   UNL     1       1.956   2.673  21.308  0.00  0.00    +0.000 C 
ENDBRANCH  28  31
ENDBRANCH  25  26
ENDBRANCH  24  25
ENDBRANCH  17  19
ENDBRANCH   2  17
TORSDOF 11
ENDMDL
MODEL 3
REMARK VINA RESULT:      -7.8      2.078      3.139
REMARK  Name = 
REMARK  15 active torsions:
REMARK  status: ('A' for Active; 'I' for Inactive)
REMARK    1  A    between atoms: C_1  and  C_2
REMARK    2  A    between atoms: C_2  and  N_3
REMARK    3  A    between atoms: N_3  and  C_4
REMARK    4  A    between atoms: C_4  and  C_5
REMARK    5  A    between atoms: C_6  and  O_8
REMARK    6  A    between atoms: O_8  and  C_9
REMARK    7  A    between atoms: C_13  and  C_14
REMARK    8  A    between atoms: C_15  and  C_16
REMARK    9  A    between atoms: C_16  and  C_18
REMARK   10  A    between atoms: C_23  and  O_24
REMARK   11  A    between atoms: O_24  and  C_25
REMARK   12  A    between atoms: N_27  and  C_28
REMARK   13  A    between atoms: N_27  and  C_30
REMARK   14  A    between atoms: C_28  and  C_29
REMARK   15  A    between atoms: C_30  and  C_31
REMARK                            x       y       z     vdW  Elec       q    Type
REMARK                         _______ _______ _______ _____ _____    ______ ____
ROOT
ATOM      1  C   UNL     1       1.560   7.942  20.452  0.00  0.00    +0.000 C 
ATOM      2  C   UNL     1       2.080   7.347  19.363  0.00  0.00    +0.000 C 
ENDROOT
BRANCH   1   7
ATOM      3  C   UNL     1      -0.587  10.854  21.547  0.00  0.00    +0.000 A 
ATOM      4  C   UNL     1      -0.820  11.514  20.341  0.00  0.00    +0.000 A 
ATOM      5  C   UNL     1      -0.212  11.040  19.177  0.00  0.00    +0.000 A 
ATOM      6  C   UNL     1       0.606   9.904  19.219  0.00  0.00    +0.000 A 
ATOM      7  C   UNL     1       0.830   9.227  20.425  0.00  0.00    +0.000 A 
ATOM      8  C   UNL     1       0.220   9.713  21.589  0.00  0.00    +0.000 A 
BRANCH   3   9
ATOM      9  O   UNL     1      -1.295  11.315  22.683  0.00  0.00    +0.000 OA
BRANCH   9  11
ATOM     10  N   UNL     1      -2.467  13.250  23.252  0.00  0.00    +0.000 N 
ATOM     11  C   UNL     1      -1.221  12.669  23.027  0.00  0.00    +0.000 C 
ATOM     12  O   UNL     1      -0.169  13.305  23.110  0.00  0.00    +0.000 OA
BRANCH  10  14
ATOM     13  C   UNL     1      -2.794  15.001  25.012  0.00  0.00    +0.000 C 
ATOM     14  C   UNL     1      -2.501  14.681  23.554  0.00  0.00    +0.000 C 
ENDBRANCH  10  14
BRANCH  10  15
ATOM     15  C   UNL     1      -3.729  12.536  23.062  0.00  0.00    +0.000 C 
ATOM     16  C   UNL     1      -4.385  12.780  21.713  0.00  0.00    +0.000 C 
ENDBRANCH  10  15
ENDBRANCH   9  11
ENDBRANCH   3   9
ENDBRANCH   1   7
BRANCH   2  17
ATOM     17  C   UNL     1       2.948   6.127  19.481  0.00  0.00    +0.000 C 
ATOM     18  O   UNL     1       4.130   6.209  19.795  0.00  0.00    +0.000 OA
BRANCH  17  19
ATOM     19  C   UNL     1       2.300   4.813  19.205  0.00  0.00    +0.000 A 
ATOM     20  C   UNL     1       1.311   4.372  20.109  0.00  0.00    +0.000 A 
ATOM     21  C   UNL     1       0.675   3.142  19.945  0.00  0.00    +0.000 A 
ATOM     22  C   UNL     1       1.038   2.314  18.894  0.00  0.00    +0.000 A 
ATOM     23  C   UNL     1       2.043   2.710  18.013  0.00  0.00    +0.000 A 
ATOM     24  C   UNL     1       2.666   3.965  18.142  0.00  0.00    +0.000 A 
BRANCH  24  25
ATOM     25  O   UNL     1       3.726   4.300  17.256  0.00  0.00    +0.000 OA
BRANCH  25  26
ATOM     26  C   UNL     1       5.044   4.061  17.693  0.00  0.00    +0.000 C 
ATOM     27  O   UNL     1       5.309   3.386  18.680  0.00  0.00    +0.000 OA
ATOM     28  N   UNL     1       6.020   4.754  16.964  0.00  0.00    +0.000 N 
BRANCH  28  29
ATOM     29  C   UNL     1       5.794   5.175  15.582  0.00  0.00    +0.000 C 
ATOM     30  C   UNL     1       6.072   4.069  14.575  0.00  0.00    +0.000 C 
ENDBRANCH  28  29
BRANCH  28  31
ATOM     31  C   UNL     1       7.380   4.755  17.517  0.00  0.00    +0.000 C 
ATOM     32  C   UNL     1       7.697   5.896  18.482  0.00  0.00    +0.000 C 
ENDBRANCH  28  31
ENDBRANCH  25  26
ENDBRANCH  24  25
ENDBRANCH  17  19
ENDBRANCH   2  17
TORSDOF 11
ENDMDL
MODEL 4
REMARK VINA RESULT:      -7.8      1.999      9.728
REMARK  Name = 
REMARK  15 active torsions:
REMARK  status: ('A' for Active; 'I' for Inactive)
REMARK    1  A    between atoms: C_1  and  C_2
REMARK    2  A    between atoms: C_2  and  N_3
REMARK    3  A    between atoms: N_3  and  C_4
REMARK    4  A    between atoms: C_4  and  C_5
REMARK    5  A    between atoms: C_6  and  O_8
REMARK    6  A    between atoms: O_8  and  C_9
REMARK    7  A    between atoms: C_13  and  C_14
REMARK    8  A    between atoms: C_15  and  C_16
REMARK    9  A    between atoms: C_16  and  C_18
REMARK   10  A    between atoms: C_23  and  O_24
REMARK   11  A    between atoms: O_24  and  C_25
REMARK   12  A    between atoms: N_27  and  C_28
REMARK   13  A    between atoms: N_27  and  C_30
REMARK   14  A    between atoms: C_28  and  C_29
REMARK   15  A    between atoms: C_30  and  C_31
REMARK                            x       y       z     vdW  Elec       q    Type
REMARK                         _______ _______ _______ _____ _____    ______ ____
ROOT
ATOM      1  C   UNL     1       1.903   8.182  19.707  0.00  0.00    +0.000 C 
ATOM      2  C   UNL     1       1.761   8.733  18.488  0.00  0.00    +0.000 C 
ENDROOT
BRANCH   1   7
ATOM      3  C   UNL     1       3.536   4.779  19.512  0.00  0.00    +0.000 A 
ATOM      4  C   UNL     1       2.581   3.963  20.118  0.00  0.00    +0.000 A 
ATOM      5  C   UNL     1       1.431   4.544  20.654  0.00  0.00    +0.000 A 
ATOM      6  C   UNL     1       1.229   5.926  20.566  0.00  0.00    +0.000 A 
ATOM      7  C   UNL     1       2.178   6.749  19.943  0.00  0.00    +0.000 A 
ATOM      8  C   UNL     1       3.332   6.158  19.414  0.00  0.00    +0.000 A 
BRANCH   3   9
ATOM      9  O   UNL     1       4.643   4.138  18.905  0.00  0.00    +0.000 OA
BRANCH   9  11
ATOM     10  N   UNL     1       6.180   5.252  17.549  0.00  0.00    +0.000 N 
ATOM     11  C   UNL     1       5.865   4.814  18.834  0.00  0.00    +0.000 C 
ATOM     12  O   UNL     1       6.611   4.998  19.797  0.00  0.00    +0.000 OA
BRANCH  10  14
ATOM     13  C   UNL     1       7.414   7.430  17.470  0.00  0.00    +0.000 C 
ATOM     14  C   UNL     1       7.471   5.913  17.357  0.00  0.00    +0.000 C 
ENDBRANCH  10  14
BRANCH  10  15
ATOM     15  C   UNL     1       5.354   4.958  16.378  0.00  0.00    +0.000 C 
ATOM     16  C   UNL     1       5.908   3.858  15.487  0.00  0.00    +0.000 C 
ENDBRANCH  10  15
ENDBRANCH   9  11
ENDBRANCH   3   9
ENDBRANCH   1   7
BRANCH   2  17
ATOM     17  C   UNL     1       1.323  10.159  18.322  0.00  0.00    +0.000 C 
ATOM     18  O   UNL     1       2.134  11.069  18.197  0.00  0.00    +0.000 OA
BRANCH  17  19
ATOM     19  C   UNL     1      -0.147  10.412  18.309  0.00  0.00    +0.000 A 
ATOM     20  C   UNL     1      -0.929   9.661  17.406  0.00  0.00    +0.000 A 
ATOM     21  C   UNL     1      -2.306   9.855  17.305  0.00  0.00    +0.000 A 
ATOM     22  C   UNL     1      -2.924  10.823  18.081  0.00  0.00    +0.000 A 
ATOM     23  C   UNL     1      -2.165  11.606  18.949  0.00  0.00    +0.000 A 
ATOM     24  C   UNL     1      -0.781  11.396  19.091  0.00  0.00    +0.000 A 
BRANCH  24  25
ATOM     25  O   UNL     1      -0.040  12.258  19.945  0.00  0.00    +0.000 OA
BRANCH  25  26
ATOM     26  C   UNL     1      -0.208  12.104  21.335  0.00  0.00    +0.000 C 
ATOM     27  O   UNL     1       0.286  11.180  21.970  0.00  0.00    +0.000 OA
ATOM     28  N   UNL     1      -1.080  13.038  21.909  0.00  0.00    +0.000 N 
BRANCH  28  29
ATOM     29  C   UNL     1      -1.309  14.351  21.306  0.00  0.00    +0.000 C 
ATOM     30  C   UNL     1      -1.082  15.496  22.282  0.00  0.00    +0.000 C 
ENDBRANCH  28  29
BRANCH  28  31
ATOM     31  C   UNL     1      -1.499  12.785  23.294  0.00  0.00    +0.000 C 
ATOM     32  C   UNL     1      -2.927  12.272  23.465  0.00  0.00    +0.000 C 
ENDBRANCH  28  31
ENDBRANCH  25  26
ENDBRANCH  24  25
ENDBRANCH  17  19
ENDBRANCH   2  17
TORSDOF 11
ENDMDL
MODEL 5
REMARK VINA RESULT:      -7.8      2.602      3.587
REMARK  Name = 
REMARK  15 active torsions:
REMARK  status: ('A' for Active; 'I' for Inactive)
REMARK    1  A    between atoms: C_1  and  C_2
REMARK    2  A    between atoms: C_2  and  N_3
REMARK    3  A    between atoms: N_3  and  C_4
REMARK    4  A    between atoms: C_4  and  C_5
REMARK    5  A    between atoms: C_6  and  O_8
REMARK    6  A    between atoms: O_8  and  C_9
REMARK    7  A    between atoms: C_13  and  C_14
REMARK    8  A    between atoms: C_15  and  C_16
REMARK    9  A    between atoms: C_16  and  C_18
REMARK   10  A    between atoms: C_23  and  O_24
REMARK   11  A    between atoms: O_24  and  C_25
REMARK   12  A    between atoms: N_27  and  C_28
REMARK   13  A    between atoms: N_27  and  C_30
REMARK   14  A    between atoms: C_28  and  C_29
REMARK   15  A    between atoms: C_30  and  C_31
REMARK                            x       y       z     vdW  Elec       q    Type
REMARK                         _______ _______ _______ _____ _____    ______ ____
ROOT
ATOM      1  C   UNL     1       1.357   8.821  20.283  0.00  0.00    +0.000 C 
ATOM      2  C   UNL     1       1.589   7.528  20.572  0.00  0.00    +0.000 C 
ENDROOT
BRANCH   1   7
ATOM      3  C   UNL     1      -0.389  11.930  21.539  0.00  0.00    +0.000 A 
ATOM      4  C   UNL     1      -0.931  11.491  22.746  0.00  0.00    +0.000 A 
ATOM      5  C   UNL     1      -0.782  10.152  23.113  0.00  0.00    +0.000 A 
ATOM      6  C   UNL     1      -0.079   9.267  22.287  0.00  0.00    +0.000 A 
ATOM      7  C   UNL     1       0.482   9.706  21.081  0.00  0.00    +0.000 A 
ATOM      8  C   UNL     1       0.323  11.050  20.718  0.00  0.00    +0.000 A 
BRANCH   3   9
ATOM      9  O   UNL     1      -0.487  13.312  21.251  0.00  0.00    +0.000 OA
BRANCH   9  11
ATOM     10  N   UNL     1       0.739  14.991  20.192  0.00  0.00    +0.000 N 
ATOM     11  C   UNL     1       0.675  14.091  21.254  0.00  0.00    +0.000 C 
ATOM     12  O   UNL     1       1.572  13.992  22.093  0.00  0.00    +0.000 OA
BRANCH  10  14
ATOM     13  C   UNL     1       2.978  15.246  19.099  0.00  0.00    +0.000 C 
ATOM     14  C   UNL     1       1.948  15.807  20.069  0.00  0.00    +0.000 C 
ENDBRANCH  10  14
BRANCH  10  15
ATOM     15  C   UNL     1      -0.268  15.053  19.133  0.00  0.00    +0.000 C 
ATOM     16  C   UNL     1      -0.573  16.460  18.646  0.00  0.00    +0.000 C 
ENDBRANCH  10  15
ENDBRANCH   9  11
ENDBRANCH   3   9
ENDBRANCH   1   7
BRANCH   2  17
ATOM     17  C   UNL     1       2.356   6.644  19.632  0.00  0.00    +0.000 C 
ATOM     18  O   UNL     1       2.947   7.100  18.660  0.00  0.00    +0.000 OA
BRANCH  17  19
ATOM     19  C   UNL     1       2.369   5.186  19.944  0.00  0.00    +0.000 A 
ATOM     20  C   UNL     1       1.230   4.645  20.576  0.00  0.00    +0.000 A 
ATOM     21  C   UNL     1       1.169   3.298  20.931  0.00  0.00    +0.000 A 
ATOM     22  C   UNL     1       2.257   2.472  20.692  0.00  0.00    +0.000 A 
ATOM     23  C   UNL     1       3.409   2.994  20.108  0.00  0.00    +0.000 A 
ATOM     24  C   UNL     1       3.472   4.343  19.707  0.00  0.00    +0.000 A 
BRANCH  24  25
ATOM     25  O   UNL     1       4.689   4.844  19.170  0.00  0.00    +0.000 OA
BRANCH  25  26
ATOM     26  C   UNL     1       5.082   4.380  17.900  0.00  0.00    +0.000 C 
ATOM     27  O   UNL     1       4.496   3.486  17.303  0.00  0.00    +0.000 OA
ATOM     28  N   UNL     1       6.269   4.956  17.426  0.00  0.00    +0.000 N 
BRANCH  28  29
ATOM     29  C   UNL     1       6.716   6.275  17.872  0.00  0.00    +0.000 C 
ATOM     30  C   UNL     1       7.885   6.204  18.844  0.00  0.00    +0.000 C 
ENDBRANCH  28  29
BRANCH  28  31
ATOM     31  C   UNL     1       6.872   4.342  16.236  0.00  0.00    +0.000 C 
ATOM     32  C   UNL     1       6.532   5.011  14.906  0.00  0.00    +0.000 C 
ENDBRANCH  28  31
ENDBRANCH  25  26
ENDBRANCH  24  25
ENDBRANCH  17  19
ENDBRANCH   2  17
TORSDOF 11
ENDMDL
MODEL 6
REMARK VINA RESULT:      -7.8      0.933      1.555
REMARK  Name = 
REMARK  15 active torsions:
REMARK  status: ('A' for Active; 'I' for Inactive)
REMARK    1  A    between atoms: C_1  and  C_2
REMARK    2  A    between atoms: C_2  and  N_3
REMARK    3  A    between atoms: N_3  and  C_4
REMARK    4  A    between atoms: C_4  and  C_5
REMARK    5  A    between atoms: C_6  and  O_8
REMARK    6  A    between atoms: O_8  and  C_9
REMARK    7  A    between atoms: C_13  and  C_14
REMARK    8  A    between atoms: C_15  and  C_16
REMARK    9  A    between atoms: C_16  and  C_18
REMARK   10  A    between atoms: C_23  and  O_24
REMARK   11  A    between atoms: O_24  and  C_25
REMARK   12  A    between atoms: N_27  and  C_28
REMARK   13  A    between atoms: N_27  and  C_30
REMARK   14  A    between atoms: C_28  and  C_29
REMARK   15  A    between atoms: C_30  and  C_31
REMARK                            x       y       z     vdW  Elec       q    Type
REMARK                         _______ _______ _______ _____ _____    ______ ____
ROOT
ATOM      1  C   UNL     1       1.535   8.507  18.902  0.00  0.00    +0.000 C 
ATOM      2  C   UNL     1       2.003   7.441  19.576  0.00  0.00    +0.000 C 
ENDROOT
BRANCH   1   7
ATOM      3  C   UNL     1      -0.796  11.454  19.308  0.00  0.00    +0.000 A 
ATOM      4  C   UNL     1      -0.454  11.923  20.577  0.00  0.00    +0.000 A 
ATOM      5  C   UNL     1       0.494  11.225  21.327  0.00  0.00    +0.000 A 
ATOM      6  C   UNL     1       1.108  10.081  20.804  0.00  0.00    +0.000 A 
ATOM      7  C   UNL     1       0.781   9.616  19.523  0.00  0.00    +0.000 A 
ATOM      8  C   UNL     1      -0.175  10.319  18.780  0.00  0.00    +0.000 A 
BRANCH   3   9
ATOM      9  O   UNL     1      -1.694  12.242  18.549  0.00  0.00    +0.000 OA
BRANCH   9  11
ATOM     10  N   UNL     1      -3.578  11.428  17.439  0.00  0.00    +0.000 N 
ATOM     11  C   UNL     1      -3.064  11.967  18.617  0.00  0.00    +0.000 C 
ATOM     12  O   UNL     1      -3.766  12.190  19.605  0.00  0.00    +0.000 OA
BRANCH  10  14
ATOM     13  C   UNL     1      -5.857  12.393  17.055  0.00  0.00    +0.000 C 
ATOM     14  C   UNL     1      -5.017  11.168  17.387  0.00  0.00    +0.000 C 
ENDBRANCH  10  14
BRANCH  10  15
ATOM     15  C   UNL     1      -2.781  11.250  16.226  0.00  0.00    +0.000 C 
ATOM     16  C   UNL     1      -3.191  10.053  15.383  0.00  0.00    +0.000 C 
ENDBRANCH  10  15
ENDBRANCH   9  11
ENDBRANCH   3   9
ENDBRANCH   1   7
BRANCH   2  17
ATOM     17  C   UNL     1       2.618   6.273  18.860  0.00  0.00    +0.000 C 
ATOM     18  O   UNL     1       3.190   6.409  17.784  0.00  0.00    +0.000 OA
BRANCH  17  19
ATOM     19  C   UNL     1       2.505   4.944  19.524  0.00  0.00    +0.000 A 
ATOM     20  C   UNL     1       1.257   4.600  20.086  0.00  0.00    +0.000 A 
ATOM     21  C   UNL     1       1.070   3.390  20.753  0.00  0.00    +0.000 A 
ATOM     22  C   UNL     1       2.134   2.514  20.901  0.00  0.00    +0.000 A 
ATOM     23  C   UNL     1       3.387   2.851  20.392  0.00  0.00    +0.000 A 
ATOM     24  C   UNL     1       3.582   4.050  19.682  0.00  0.00    +0.000 A 
BRANCH  24  25
ATOM     25  O   UNL     1       4.890   4.378  19.233  0.00  0.00    +0.000 OA
BRANCH  25  26
ATOM     26  C   UNL     1       5.218   4.076  17.897  0.00  0.00    +0.000 C 
ATOM     27  O   UNL     1       4.651   3.204  17.250  0.00  0.00    +0.000 OA
ATOM     28  N   UNL     1       6.323   4.785  17.408  0.00  0.00    +0.000 N 
BRANCH  28  29
ATOM     29  C   UNL     1       6.711   6.083  17.959  0.00  0.00    +0.000 C 
ATOM     30  C   UNL     1       7.874   5.985  18.937  0.00  0.00    +0.000 C 
ENDBRANCH  28  29
BRANCH  28  31
ATOM     31  C   UNL     1       6.875   4.342  16.121  0.00  0.00    +0.000 C 
ATOM     32  C   UNL     1       6.310   5.041  14.887  0.00  0.00    +0.000 C 
ENDBRANCH  28  31
ENDBRANCH  25  26
ENDBRANCH  24  25
ENDBRANCH  17  19
ENDBRANCH   2  17
TORSDOF 11
ENDMDL
MODEL 7
REMARK VINA RESULT:      -7.7      0.880      1.542
REMARK  Name = 
REMARK  15 active torsions:
REMARK  status: ('A' for Active; 'I' for Inactive)
REMARK    1  A    between atoms: C_1  and  C_2
REMARK    2  A    between atoms: C_2  and  N_3
REMARK    3  A    between atoms: N_3  and  C_4
REMARK    4  A    between atoms: C_4  and  C_5
REMARK    5  A    between atoms: C_6  and  O_8
REMARK    6  A    between atoms: O_8  and  C_9
REMARK    7  A    between atoms: C_13  and  C_14
REMARK    8  A    between atoms: C_15  and  C_16
REMARK    9  A    between atoms: C_16  and  C_18
REMARK   10  A    between atoms: C_23  and  O_24
REMARK   11  A    between atoms: O_24  and  C_25
REMARK   12  A    between atoms: N_27  and  C_28
REMARK   13  A    between atoms: N_27  and  C_30
REMARK   14  A    between atoms: C_28  and  C_29
REMARK   15  A    between atoms: C_30  and  C_31
REMARK                            x       y       z     vdW  Elec       q    Type
REMARK                         _______ _______ _______ _____ _____    ______ ____
ROOT
ATOM      1  C   UNL     1       1.430   8.202  20.953  0.00  0.00    +0.000 C 
ATOM      2  C   UNL     1       1.356   7.559  19.774  0.00  0.00    +0.000 C 
ENDROOT
BRANCH   1   7
ATOM      3  C   UNL     1      -0.937  11.149  20.948  0.00  0.00    +0.000 A 
ATOM      4  C   UNL     1      -1.195  11.318  22.308  0.00  0.00    +0.000 A 
ATOM      5  C   UNL     1      -0.644  10.417  23.222  0.00  0.00    +0.000 A 
ATOM      6  C   UNL     1       0.172   9.370  22.779  0.00  0.00    +0.000 A 
ATOM      7  C   UNL     1       0.447   9.205  21.415  0.00  0.00    +0.000 A 
ATOM      8  C   UNL     1      -0.114  10.110  20.505  0.00  0.00    +0.000 A 
BRANCH   3   9
ATOM      9  O   UNL     1      -1.441  12.136  20.067  0.00  0.00    +0.000 OA
BRANCH   9  11
ATOM     10  N   UNL     1      -3.320  11.804  18.724  0.00  0.00    +0.000 N 
ATOM     11  C   UNL     1      -2.826  12.286  19.935  0.00  0.00    +0.000 C 
ATOM     12  O   UNL     1      -3.550  12.806  20.785  0.00  0.00    +0.000 OA
BRANCH  10  14
ATOM     13  C   UNL     1      -5.110  11.987  16.983  0.00  0.00    +0.000 C 
ATOM     14  C   UNL     1      -4.748  11.976  18.461  0.00  0.00    +0.000 C 
ENDBRANCH  10  14
BRANCH  10  15
ATOM     15  C   UNL     1      -2.463  11.275  17.663  0.00  0.00    +0.000 C 
ATOM     16  C   UNL     1      -2.427   9.757  17.592  0.00  0.00    +0.000 C 
ENDBRANCH  10  15
ENDBRANCH   9  11
ENDBRANCH   3   9
ENDBRANCH   1   7
BRANCH   2  17
ATOM     17  C   UNL     1       2.471   6.674  19.297  0.00  0.00    +0.000 C 
ATOM     18  O   UNL     1       3.346   7.092  18.547  0.00  0.00    +0.000 OA
BRANCH  17  19
ATOM     19  C   UNL     1       2.465   5.265  19.785  0.00  0.00    +0.000 A 
ATOM     20  C   UNL     1       1.300   4.805  20.434  0.00  0.00    +0.000 A 
ATOM     21  C   UNL     1       1.219   3.513  20.949  0.00  0.00    +0.000 A 
ATOM     22  C   UNL     1       2.311   2.664  20.856  0.00  0.00    +0.000 A 
ATOM     23  C   UNL     1       3.488   3.111  20.258  0.00  0.00    +0.000 A 
ATOM     24  C   UNL     1       3.572   4.399  19.698  0.00  0.00    +0.000 A 
BRANCH  24  25
ATOM     25  O   UNL     1       4.811   4.831  19.151  0.00  0.00    +0.000 OA
BRANCH  25  26
ATOM     26  C   UNL     1       5.152   4.374  17.863  0.00  0.00    +0.000 C 
ATOM     27  O   UNL     1       4.559   3.463  17.298  0.00  0.00    +0.000 OA
ATOM     28  N   UNL     1       6.298   4.980  17.329  0.00  0.00    +0.000 N 
BRANCH  28  29
ATOM     29  C   UNL     1       6.733   6.311  17.750  0.00  0.00    +0.000 C 
ATOM     30  C   UNL     1       7.871   6.268  18.760  0.00  0.00    +0.000 C 
ENDBRANCH  28  29
BRANCH  28  31
ATOM     31  C   UNL     1       6.855   4.378  16.111  0.00  0.00    +0.000 C 
ATOM     32  C   UNL     1       6.368   4.982  14.796  0.00  0.00    +0.000 C 
ENDBRANCH  28  31
ENDBRANCH  25  26
ENDBRANCH  24  25
ENDBRANCH  17  19
ENDBRANCH   2  17
TORSDOF 11
ENDMDL
MODEL 8
REMARK VINA RESULT:      -7.7      2.103      3.206
REMARK  Name = 
REMARK  15 active torsions:
REMARK  status: ('A' for Active; 'I' for Inactive)
REMARK    1  A    between atoms: C_1  and  C_2
REMARK    2  A    between atoms: C_2  and  N_3
REMARK    3  A    between atoms: N_3  and  C_4
REMARK    4  A    between atoms: C_4  and  C_5
REMARK    5  A    between atoms: C_6  and  O_8
REMARK    6  A    between atoms: O_8  and  C_9
REMARK    7  A    between atoms: C_13  and  C_14
REMARK    8  A    between atoms: C_15  and  C_16
REMARK    9  A    between atoms: C_16  and  C_18
REMARK   10  A    between atoms: C_23  and  O_24
REMARK   11  A    between atoms: O_24  and  C_25
REMARK   12  A    between atoms: N_27  and  C_28
REMARK   13  A    between atoms: N_27  and  C_30
REMARK   14  A    between atoms: C_28  and  C_29
REMARK   15  A    between atoms: C_30  and  C_31
REMARK                            x       y       z     vdW  Elec       q    Type
REMARK                         _______ _______ _______ _____ _____    ______ ____
ROOT
ATOM      1  C   UNL     1       2.300   7.077  20.079  0.00  0.00    +0.000 C 
ATOM      2  C   UNL     1       1.591   6.002  20.470  0.00  0.00    +0.000 C 
ENDROOT
BRANCH   1   7
ATOM      3  C   UNL     1       0.178  10.205  20.070  0.00  0.00    +0.000 A 
ATOM      4  C   UNL     1       0.296  10.633  18.748  0.00  0.00    +0.000 A 
ATOM      5  C   UNL     1       1.132   9.931  17.877  0.00  0.00    +0.000 A 
ATOM      6  C   UNL     1       1.826   8.800  18.322  0.00  0.00    +0.000 A 
ATOM      7  C   UNL     1       1.698   8.355  19.644  0.00  0.00    +0.000 A 
ATOM      8  C   UNL     1       0.862   9.069  20.512  0.00  0.00    +0.000 A 
BRANCH   3   9
ATOM      9  O   UNL     1      -0.748  10.892  20.891  0.00  0.00    +0.000 OA
BRANCH   9  11
ATOM     10  N   UNL     1      -1.519  13.093  20.892  0.00  0.00    +0.000 N 
ATOM     11  C   UNL     1      -0.490  12.221  21.242  0.00  0.00    +0.000 C 
ATOM     12  O   UNL     1       0.545  12.604  21.789  0.00  0.00    +0.000 OA
BRANCH  10  14
ATOM     13  C   UNL     1      -0.875  15.318  19.940  0.00  0.00    +0.000 C 
ATOM     14  C   UNL     1      -1.317  14.518  21.157  0.00  0.00    +0.000 C 
ENDBRANCH  10  14
BRANCH  10  15
ATOM     15  C   UNL     1      -2.710  12.673  20.154  0.00  0.00    +0.000 C 
ATOM     16  C   UNL     1      -4.022  13.034  20.832  0.00  0.00    +0.000 C 
ENDBRANCH  10  15
ENDBRANCH   9  11
ENDBRANCH   3   9
ENDBRANCH   1   7
BRANCH   2  17
ATOM     17  C   UNL     1       2.258   4.685  20.743  0.00  0.00    +0.000 C 
ATOM     18  O   UNL     1       2.373   4.248  21.881  0.00  0.00    +0.000 OA
BRANCH  17  19
ATOM     19  C   UNL     1       2.766   3.933  19.560  0.00  0.00    +0.000 A 
ATOM     20  C   UNL     1       1.965   2.886  19.059  0.00  0.00    +0.000 A 
ATOM     21  C   UNL     1       2.376   2.111  17.976  0.00  0.00    +0.000 A 
ATOM     22  C   UNL     1       3.612   2.345  17.392  0.00  0.00    +0.000 A 
ATOM     23  C   UNL     1       4.439   3.346  17.896  0.00  0.00    +0.000 A 
ATOM     24  C   UNL     1       4.021   4.163  18.963  0.00  0.00    +0.000 A 
BRANCH  24  25
ATOM     25  O   UNL     1       4.924   5.132  19.481  0.00  0.00    +0.000 OA
BRANCH  25  26
ATOM     26  C   UNL     1       6.146   5.314  18.805  0.00  0.00    +0.000 C 
ATOM     27  O   UNL     1       7.153   4.665  19.059  0.00  0.00    +0.000 OA
ATOM     28  N   UNL     1       6.138   6.377  17.892  0.00  0.00    +0.000 N 
BRANCH  28  29
ATOM     29  C   UNL     1       4.902   6.846  17.266  0.00  0.00    +0.000 C 
ATOM     30  C   UNL     1       4.905   6.676  15.754  0.00  0.00    +0.000 C 
ENDBRANCH  28  29
BRANCH  28  31
ATOM     31  C   UNL     1       7.438   6.784  17.343  0.00  0.00    +0.000 C 
ATOM     32  C   UNL     1       7.891   8.197  17.705  0.00  0.00    +0.000 C 
ENDBRANCH  28  31
ENDBRANCH  25  26
ENDBRANCH  24  25
ENDBRANCH  17  19
ENDBRANCH   2  17
TORSDOF 11
ENDMDL
MODEL 9
REMARK VINA RESULT:      -7.7      3.032      9.347
REMARK  Name = 
REMARK  15 active torsions:
REMARK  status: ('A' for Active; 'I' for Inactive)
REMARK    1  A    between atoms: C_1  and  C_2
REMARK    2  A    between atoms: C_2  and  N_3
REMARK    3  A    between atoms: N_3  and  C_4
REMARK    4  A    between atoms: C_4  and  C_5
REMARK    5  A    between atoms: C_6  and  O_8
REMARK    6  A    between atoms: O_8  and  C_9
REMARK    7  A    between atoms: C_13  and  C_14
REMARK    8  A    between atoms: C_15  and  C_16
REMARK    9  A    between atoms: C_16  and  C_18
REMARK   10  A    between atoms: C_23  and  O_24
REMARK   11  A    between atoms: O_24  and  C_25
REMARK   12  A    between atoms: N_27  and  C_28
REMARK   13  A    between atoms: N_27  and  C_30
REMARK   14  A    between atoms: C_28  and  C_29
REMARK   15  A    between atoms: C_30  and  C_31
REMARK                            x       y       z     vdW  Elec       q    Type
REMARK                         _______ _______ _______ _____ _____    ______ ____
ROOT
ATOM      1  C   UNL     1       1.604   7.522  20.858  0.00  0.00    +0.000 C 
ATOM      2  C   UNL     1       1.312   8.541  20.030  0.00  0.00    +0.000 C 
ENDROOT
BRANCH   1   7
ATOM      3  C   UNL     1       3.244   4.677  18.986  0.00  0.00    +0.000 A 
ATOM      4  C   UNL     1       2.402   3.606  19.288  0.00  0.00    +0.000 A 
ATOM      5  C   UNL     1       1.335   3.806  20.165  0.00  0.00    +0.000 A 
ATOM      6  C   UNL     1       1.101   5.071  20.718  0.00  0.00    +0.000 A 
ATOM      7  C   UNL     1       1.934   6.154  20.405  0.00  0.00    +0.000 A 
ATOM      8  C   UNL     1       3.006   5.943  19.529  0.00  0.00    +0.000 A 
BRANCH   3   9
ATOM      9  O   UNL     1       4.258   4.451  18.025  0.00  0.00    +0.000 OA
BRANCH   9  11
ATOM     10  N   UNL     1       6.071   5.706  17.263  0.00  0.00    +0.000 N 
ATOM     11  C   UNL     1       5.555   4.909  18.283  0.00  0.00    +0.000 C 
ATOM     12  O   UNL     1       6.197   4.630  19.296  0.00  0.00    +0.000 OA
BRANCH  10  14
ATOM     13  C   UNL     1       7.567   7.683  17.619  0.00  0.00    +0.000 C 
ATOM     14  C   UNL     1       7.448   6.180  17.409  0.00  0.00    +0.000 C 
ENDBRANCH  10  14
BRANCH  10  15
ATOM     15  C   UNL     1       5.362   5.965  16.011  0.00  0.00    +0.000 C 
ATOM     16  C   UNL     1       5.853   5.137  14.835  0.00  0.00    +0.000 C 
ENDBRANCH  10  15
ENDBRANCH   9  11
ENDBRANCH   3   9
ENDBRANCH   1   7
BRANCH   2  17
ATOM     17  C   UNL     1       0.829   9.861  20.558  0.00  0.00    +0.000 C 
ATOM     18  O   UNL     1       1.154  10.266  21.668  0.00  0.00    +0.000 OA
BRANCH  17  19
ATOM     19  C   UNL     1      -0.061  10.656  19.663  0.00  0.00    +0.000 A 
ATOM     20  C   UNL     1      -1.158   9.991  19.076  0.00  0.00    +0.000 A 
ATOM     21  C   UNL     1      -2.022  10.649  18.203  0.00  0.00    +0.000 A 
ATOM     22  C   UNL     1      -1.790  11.975  17.873  0.00  0.00    +0.000 A 
ATOM     23  C   UNL     1      -0.688  12.641  18.407  0.00  0.00    +0.000 A 
ATOM     24  C   UNL     1       0.172  12.002  19.321  0.00  0.00    +0.000 A 
BRANCH  24  25
ATOM     25  O   UNL     1       1.315  12.702  19.792  0.00  0.00    +0.000 OA
BRANCH  25  26
ATOM     26  C   UNL     1       2.242  13.160  18.836  0.00  0.00    +0.000 C 
ATOM     27  O   UNL     1       2.740  12.433  17.985  0.00  0.00    +0.000 OA
ATOM     28  N   UNL     1       2.626  14.497  19.010  0.00  0.00    +0.000 N 
BRANCH  28  29
ATOM     29  C   UNL     1       1.762  15.465  19.685  0.00  0.00    +0.000 C 
ATOM     30  C   UNL     1       2.324  15.926  21.022  0.00  0.00    +0.000 C 
ENDBRANCH  28  29
BRANCH  28  31
ATOM     31  C   UNL     1       3.769  14.964  18.215  0.00  0.00    +0.000 C 
ATOM     32  C   UNL     1       3.485  16.140  17.282  0.00  0.00    +0.000 C 
ENDBRANCH  28  31
ENDBRANCH  25  26
ENDBRANCH  24  25
ENDBRANCH  17  19
ENDBRANCH   2  17
TORSDOF 11
ENDMDL
