MODEL 1
REMARK VINA RESULT:      -9.0      0.000      0.000
REMARK  Name = 
REMARK  5 active torsions:
REMARK  status: ('A' for Active; 'I' for Inactive)
REMARK    1  A    between atoms: C_6  and  C_7
REMARK    2  A    between atoms: C_6  and  C_8
REMARK    3  A    between atoms: C_12  and  C_13
REMARK    4  A    between atoms: C_14  and  C_15
REMARK    5  A    between atoms: C_15  and  C_16
REMARK                            x       y       z     vdW  Elec       q    Type
REMARK                         _______ _______ _______ _____ _____    ______ ____
ROOT
ATOM      1  C   UNL     1       2.113   8.133  18.344  0.00  0.00    +0.000 C 
ATOM      2  C   UNL     1       2.605   7.213  19.191  0.00  0.00    +0.000 C 
ATOM      3  C   UNL     1       1.915   6.933  20.501  0.00  0.00    +0.000 C 
ATOM      4  C   UNL     1       1.340   5.515  20.473  0.00  0.00    +0.000 C 
ATOM      5  C   UNL     1       2.430   4.462  20.161  0.00  0.00    +0.000 C 
ATOM      6  C   UNL     1       1.955   2.974  20.342  0.00  0.00    +0.000 C 
ATOM      7  C   UNL     1       1.525   2.732  21.813  0.00  0.00    +0.000 C 
ATOM      8  C   UNL     1       0.740   2.575  19.482  0.00  0.00    +0.000 C 
ATOM      9  C   UNL     1       3.146   2.021  20.065  0.00  0.00    +0.000 C 
ATOM     10  C   UNL     1       3.891   2.305  18.768  0.00  0.00    +0.000 C 
ATOM     11  C   UNL     1       4.361   3.757  18.680  0.00  0.00    +0.000 C 
ATOM     12  C   UNL     1       3.210   4.789  18.817  0.00  0.00    +0.000 C 
ATOM     13  C   UNL     1       2.330   4.712  17.543  0.00  0.00    +0.000 C 
ATOM     14  C   UNL     1       3.786   6.272  18.939  0.00  0.00    +0.000 C 
ENDROOT
BRANCH  14  15
ATOM     15  C   UNL     1       4.751   6.655  17.783  0.00  0.00    +0.000 C 
BRANCH  15  16
ATOM     16  C   UNL     1       4.550   5.980  16.456  0.00  0.00    +0.000 C 
ATOM     17  C   UNL     1       5.508   5.466  15.664  0.00  0.00    +0.000 C 
ATOM     18  C   UNL     1       5.280   4.621  14.469  0.00  0.00    +0.000 C 
ATOM     19  C   UNL     1       6.653   4.038  14.227  0.00  0.00    +0.000 C 
ATOM     20  O   UNL     1       7.595   4.860  14.920  0.00  0.00    +0.000 OA
ATOM     21  C   UNL     1       6.970   5.617  15.851  0.00  0.00    +0.000 C 
ATOM     22  O   UNL     1       7.531   6.318  16.669  0.00  0.00    +0.000 OA
ENDBRANCH  15  16
ENDBRANCH  14  15
TORSDOF 2
ENDMDL
MODEL 2
REMARK VINA RESULT:      -8.5      2.903      5.394
REMARK  Name = 
REMARK  5 active torsions:
REMARK  status: ('A' for Active; 'I' for Inactive)
REMARK    1  A    between atoms: C_6  and  C_7
REMARK    2  A    between atoms: C_6  and  C_8
REMARK    3  A    between atoms: C_12  and  C_13
REMARK    4  A    between atoms: C_14  and  C_15
REMARK    5  A    between atoms: C_15  and  C_16
REMARK                            x       y       z     vdW  Elec       q    Type
REMARK                         _______ _______ _______ _____ _____    ______ ____
ROOT
ATOM      1  C   UNL     1       5.799   6.884  16.722  0.00  0.00    +0.000 C 
ATOM      2  C   UNL     1       4.697   6.117  16.780  0.00  0.00    +0.000 C 
ATOM      3  C   UNL     1       4.663   4.775  16.096  0.00  0.00    +0.000 C 
ATOM      4  C   UNL     1       4.580   3.673  17.156  0.00  0.00    +0.000 C 
ATOM      5  C   UNL     1       3.365   3.872  18.094  0.00  0.00    +0.000 C 
ATOM      6  C   UNL     1       3.091   2.658  19.055  0.00  0.00    +0.000 C 
ATOM      7  C   UNL     1       2.795   1.382  18.223  0.00  0.00    +0.000 C 
ATOM      8  C   UNL     1       4.268   2.288  19.980  0.00  0.00    +0.000 C 
ATOM      9  C   UNL     1       1.819   2.948  19.893  0.00  0.00    +0.000 C 
ATOM     10  C   UNL     1       1.805   4.315  20.563  0.00  0.00    +0.000 C 
ATOM     11  C   UNL     1       2.032   5.448  19.562  0.00  0.00    +0.000 C 
ATOM     12  C   UNL     1       3.356   5.311  18.763  0.00  0.00    +0.000 C 
ATOM     13  C   UNL     1       4.540   5.563  19.732  0.00  0.00    +0.000 C 
ATOM     14  C   UNL     1       3.428   6.392  17.592  0.00  0.00    +0.000 C 
ENDROOT
BRANCH  14  15
ATOM     15  C   UNL     1       3.217   7.850  18.085  0.00  0.00    +0.000 C 
BRANCH  15  16
ATOM     16  C   UNL     1       1.958   8.553  17.662  0.00  0.00    +0.000 C 
ATOM     17  C   UNL     1       1.069   9.160  18.468  0.00  0.00    +0.000 C 
ATOM     18  C   UNL     1      -0.049  10.026  18.025  0.00  0.00    +0.000 C 
ATOM     19  C   UNL     1      -0.445  10.714  19.310  0.00  0.00    +0.000 C 
ATOM     20  O   UNL     1       0.082   9.940  20.390  0.00  0.00    +0.000 OA
ATOM     21  C   UNL     1       1.055   9.109  19.949  0.00  0.00    +0.000 C 
ATOM     22  O   UNL     1       1.761   8.424  20.660  0.00  0.00    +0.000 OA
ENDBRANCH  15  16
ENDBRANCH  14  15
TORSDOF 2
ENDMDL
MODEL 3
REMARK VINA RESULT:      -8.4      1.328      2.395
REMARK  Name = 
REMARK  5 active torsions:
REMARK  status: ('A' for Active; 'I' for Inactive)
REMARK    1  A    between atoms: C_6  and  C_7
REMARK    2  A    between atoms: C_6  and  C_8
REMARK    3  A    between atoms: C_12  and  C_13
REMARK    4  A    between atoms: C_14  and  C_15
REMARK    5  A    between atoms: C_15  and  C_16
REMARK                            x       y       z     vdW  Elec       q    Type
REMARK                         _______ _______ _______ _____ _____    ______ ____
ROOT
ATOM      1  C   UNL     1       4.780   6.720  15.631  0.00  0.00    +0.000 C 
ATOM      2  C   UNL     1       4.844   6.315  16.910  0.00  0.00    +0.000 C 
ATOM      3  C   UNL     1       4.197   7.126  18.003  0.00  0.00    +0.000 C 
ATOM      4  C   UNL     1       3.026   6.335  18.590  0.00  0.00    +0.000 C 
ATOM      5  C   UNL     1       3.472   4.943  19.096  0.00  0.00    +0.000 C 
ATOM      6  C   UNL     1       2.371   4.174  19.913  0.00  0.00    +0.000 C 
ATOM      7  C   UNL     1       1.983   4.991  21.174  0.00  0.00    +0.000 C 
ATOM      8  C   UNL     1       1.052   3.932  19.152  0.00  0.00    +0.000 C 
ATOM      9  C   UNL     1       2.955   2.829  20.417  0.00  0.00    +0.000 C 
ATOM     10  C   UNL     1       3.653   2.005  19.345  0.00  0.00    +0.000 C 
ATOM     11  C   UNL     1       4.740   2.801  18.623  0.00  0.00    +0.000 C 
ATOM     12  C   UNL     1       4.218   4.109  17.969  0.00  0.00    +0.000 C 
ATOM     13  C   UNL     1       3.316   3.728  16.767  0.00  0.00    +0.000 C 
ATOM     14  C   UNL     1       5.427   4.997  17.427  0.00  0.00    +0.000 C 
ENDROOT
BRANCH  14  15
ATOM     15  C   UNL     1       6.375   4.227  16.467  0.00  0.00    +0.000 C 
BRANCH  15  16
ATOM     16  C   UNL     1       5.807   3.757  15.157  0.00  0.00    +0.000 C 
ATOM     17  C   UNL     1       6.311   3.994  13.934  0.00  0.00    +0.000 C 
ATOM     18  C   UNL     1       5.864   3.352  12.675  0.00  0.00    +0.000 C 
ATOM     19  C   UNL     1       6.995   3.686  11.730  0.00  0.00    +0.000 C 
ATOM     20  O   UNL     1       7.714   4.784  12.295  0.00  0.00    +0.000 OA
ATOM     21  C   UNL     1       7.428   4.913  13.611  0.00  0.00    +0.000 C 
ATOM     22  O   UNL     1       7.982   5.681  14.372  0.00  0.00    +0.000 OA
ENDBRANCH  15  16
ENDBRANCH  14  15
TORSDOF 2
ENDMDL
MODEL 4
REMARK VINA RESULT:      -8.3      1.164      1.550
REMARK  Name = 
REMARK  5 active torsions:
REMARK  status: ('A' for Active; 'I' for Inactive)
REMARK    1  A    between atoms: C_6  and  C_7
REMARK    2  A    between atoms: C_6  and  C_8
REMARK    3  A    between atoms: C_12  and  C_13
REMARK    4  A    between atoms: C_14  and  C_15
REMARK    5  A    between atoms: C_15  and  C_16
REMARK                            x       y       z     vdW  Elec       q    Type
REMARK                         _______ _______ _______ _____ _____    ______ ____
ROOT
ATOM      1  C   UNL     1       3.687   7.240  17.058  0.00  0.00    +0.000 C 
ATOM      2  C   UNL     1       3.859   6.378  18.075  0.00  0.00    +0.000 C 
ATOM      3  C   UNL     1       3.153   6.594  19.388  0.00  0.00    +0.000 C 
ATOM      4  C   UNL     1       2.128   5.476  19.596  0.00  0.00    +0.000 C 
ATOM      5  C   UNL     1       2.783   4.076  19.518  0.00  0.00    +0.000 C 
ATOM      6  C   UNL     1       1.834   2.898  19.948  0.00  0.00    +0.000 C 
ATOM      7  C   UNL     1       1.390   3.090  21.423  0.00  0.00    +0.000 C 
ATOM      8  C   UNL     1       0.531   2.789  19.132  0.00  0.00    +0.000 C 
ATOM      9  C   UNL     1       2.619   1.563  19.890  0.00  0.00    +0.000 C 
ATOM     10  C   UNL     1       3.379   1.336  18.591  0.00  0.00    +0.000 C 
ATOM     11  C   UNL     1       4.314   2.499  18.260  0.00  0.00    +0.000 C 
ATOM     12  C   UNL     1       3.589   3.868  18.167  0.00  0.00    +0.000 C 
ATOM     13  C   UNL     1       2.700   3.865  16.897  0.00  0.00    +0.000 C 
ATOM     14  C   UNL     1       4.640   5.062  18.039  0.00  0.00    +0.000 C 
ENDROOT
BRANCH  14  15
ATOM     15  C   UNL     1       5.644   4.876  16.868  0.00  0.00    +0.000 C 
BRANCH  15  16
ATOM     16  C   UNL     1       5.098   4.400  15.551  0.00  0.00    +0.000 C 
ATOM     17  C   UNL     1       5.754   4.361  14.379  0.00  0.00    +0.000 C 
ATOM     18  C   UNL     1       5.277   3.696  13.143  0.00  0.00    +0.000 C 
ATOM     19  C   UNL     1       6.536   3.636  12.310  0.00  0.00    +0.000 C 
ATOM     20  O   UNL     1       7.452   4.592  12.848  0.00  0.00    +0.000 OA
ATOM     21  C   UNL     1       7.089   4.942  14.104  0.00  0.00    +0.000 C 
ATOM     22  O   UNL     1       7.745   5.643  14.848  0.00  0.00    +0.000 OA
ENDBRANCH  15  16
ENDBRANCH  14  15
TORSDOF 2
ENDMDL
MODEL 5
REMARK VINA RESULT:      -8.1      3.043      6.338
REMARK  Name = 
REMARK  5 active torsions:
REMARK  status: ('A' for Active; 'I' for Inactive)
REMARK    1  A    between atoms: C_6  and  C_7
REMARK    2  A    between atoms: C_6  and  C_8
REMARK    3  A    between atoms: C_12  and  C_13
REMARK    4  A    between atoms: C_14  and  C_15
REMARK    5  A    between atoms: C_15  and  C_16
REMARK                            x       y       z     vdW  Elec       q    Type
REMARK                         _______ _______ _______ _____ _____    ______ ____
ROOT
ATOM      1  C   UNL     1       1.494   3.344  20.555  0.00  0.00    +0.000 C 
ATOM      2  C   UNL     1       2.623   4.053  20.390  0.00  0.00    +0.000 C 
ATOM      3  C   UNL     1       3.969   3.388  20.518  0.00  0.00    +0.000 C 
ATOM      4  C   UNL     1       4.658   3.380  19.150  0.00  0.00    +0.000 C 
ATOM      5  C   UNL     1       4.774   4.806  18.560  0.00  0.00    +0.000 C 
ATOM      6  C   UNL     1       5.670   4.895  17.270  0.00  0.00    +0.000 C 
ATOM      7  C   UNL     1       7.116   4.440  17.600  0.00  0.00    +0.000 C 
ATOM      8  C   UNL     1       5.209   4.003  16.101  0.00  0.00    +0.000 C 
ATOM      9  C   UNL     1       5.762   6.374  16.814  0.00  0.00    +0.000 C 
ATOM     10  C   UNL     1       4.420   7.087  16.716  0.00  0.00    +0.000 C 
ATOM     11  C   UNL     1       3.624   6.997  18.019  0.00  0.00    +0.000 C 
ATOM     12  C   UNL     1       3.368   5.540  18.488  0.00  0.00    +0.000 C 
ATOM     13  C   UNL     1       2.363   4.881  17.510  0.00  0.00    +0.000 C 
ATOM     14  C   UNL     1       2.733   5.516  19.951  0.00  0.00    +0.000 C 
ENDROOT
BRANCH  14  15
ATOM     15  C   UNL     1       1.450   6.382  20.080  0.00  0.00    +0.000 C 
BRANCH  15  16
ATOM     16  C   UNL     1       1.318   7.256  21.296  0.00  0.00    +0.000 C 
ATOM     17  C   UNL     1       0.983   8.557  21.315  0.00  0.00    +0.000 C 
ATOM     18  C   UNL     1       0.651   9.347  22.524  0.00  0.00    +0.000 C 
ATOM     19  C   UNL     1      -0.000  10.575  21.932  0.00  0.00    +0.000 C 
ATOM     20  O   UNL     1       0.384  10.642  20.557  0.00  0.00    +0.000 OA
ATOM     21  C   UNL     1       0.848   9.443  20.135  0.00  0.00    +0.000 C 
ATOM     22  O   UNL     1       1.131   9.171  18.985  0.00  0.00    +0.000 OA
ENDBRANCH  15  16
ENDBRANCH  14  15
TORSDOF 2
ENDMDL
MODEL 6
REMARK VINA RESULT:      -8.0      1.857      3.345
REMARK  Name = 
REMARK  5 active torsions:
REMARK  status: ('A' for Active; 'I' for Inactive)
REMARK    1  A    between atoms: C_6  and  C_7
REMARK    2  A    between atoms: C_6  and  C_8
REMARK    3  A    between atoms: C_12  and  C_13
REMARK    4  A    between atoms: C_14  and  C_15
REMARK    5  A    between atoms: C_15  and  C_16
REMARK                            x       y       z     vdW  Elec       q    Type
REMARK                         _______ _______ _______ _____ _____    ______ ____
ROOT
ATOM      1  C   UNL     1       7.178   7.191  17.400  0.00  0.00    +0.000 C 
ATOM      2  C   UNL     1       6.821   5.912  17.610  0.00  0.00    +0.000 C 
ATOM      3  C   UNL     1       7.134   5.236  18.920  0.00  0.00    +0.000 C 
ATOM      4  C   UNL     1       5.826   4.943  19.660  0.00  0.00    +0.000 C 
ATOM      5  C   UNL     1       4.856   4.102  18.796  0.00  0.00    +0.000 C 
ATOM      6  C   UNL     1       3.596   3.574  19.575  0.00  0.00    +0.000 C 
ATOM      7  C   UNL     1       4.044   2.658  20.744  0.00  0.00    +0.000 C 
ATOM      8  C   UNL     1       2.727   4.674  20.216  0.00  0.00    +0.000 C 
ATOM      9  C   UNL     1       2.740   2.697  18.626  0.00  0.00    +0.000 C 
ATOM     10  C   UNL     1       2.441   3.336  17.277  0.00  0.00    +0.000 C 
ATOM     11  C   UNL     1       3.714   3.783  16.557  0.00  0.00    +0.000 C 
ATOM     12  C   UNL     1       4.577   4.773  17.385  0.00  0.00    +0.000 C 
ATOM     13  C   UNL     1       3.823   6.125  17.469  0.00  0.00    +0.000 C 
ATOM     14  C   UNL     1       5.986   5.028  16.680  0.00  0.00    +0.000 C 
ENDROOT
BRANCH  14  15
ATOM     15  C   UNL     1       5.861   5.490  15.202  0.00  0.00    +0.000 C 
BRANCH  15  16
ATOM     16  C   UNL     1       5.342   4.495  14.203  0.00  0.00    +0.000 C 
ATOM     17  C   UNL     1       5.987   4.040  13.115  0.00  0.00    +0.000 C 
ATOM     18  C   UNL     1       5.552   2.909  12.262  0.00  0.00    +0.000 C 
ATOM     19  C   UNL     1       6.804   2.610  11.470  0.00  0.00    +0.000 C 
ATOM     20  O   UNL     1       7.646   3.762  11.550  0.00  0.00    +0.000 OA
ATOM     21  C   UNL     1       7.269   4.555  12.580  0.00  0.00    +0.000 C 
ATOM     22  O   UNL     1       7.875   5.537  12.961  0.00  0.00    +0.000 OA
ENDBRANCH  15  16
ENDBRANCH  14  15
TORSDOF 2
ENDMDL
MODEL 7
REMARK VINA RESULT:      -7.9      1.076      1.364
REMARK  Name = 
REMARK  5 active torsions:
REMARK  status: ('A' for Active; 'I' for Inactive)
REMARK    1  A    between atoms: C_6  and  C_7
REMARK    2  A    between atoms: C_6  and  C_8
REMARK    3  A    between atoms: C_12  and  C_13
REMARK    4  A    between atoms: C_14  and  C_15
REMARK    5  A    between atoms: C_15  and  C_16
REMARK                            x       y       z     vdW  Elec       q    Type
REMARK                         _______ _______ _______ _____ _____    ______ ____
ROOT
ATOM      1  C   UNL     1       1.842   8.209  17.995  0.00  0.00    +0.000 C 
ATOM      2  C   UNL     1       2.529   7.332  18.746  0.00  0.00    +0.000 C 
ATOM      3  C   UNL     1       2.246   7.200  20.220  0.00  0.00    +0.000 C 
ATOM      4  C   UNL     1       1.640   5.822  20.494  0.00  0.00    +0.000 C 
ATOM      5  C   UNL     1       2.553   4.683  19.980  0.00  0.00    +0.000 C 
ATOM      6  C   UNL     1       2.101   3.245  20.431  0.00  0.00    +0.000 C 
ATOM      7  C   UNL     1       2.115   3.150  21.979  0.00  0.00    +0.000 C 
ATOM      8  C   UNL     1       0.673   2.853  20.002  0.00  0.00    +0.000 C 
ATOM      9  C   UNL     1       3.124   2.203  19.911  0.00  0.00    +0.000 C 
ATOM     10  C   UNL     1       3.463   2.336  18.433  0.00  0.00    +0.000 C 
ATOM     11  C   UNL     1       3.937   3.746  18.076  0.00  0.00    +0.000 C 
ATOM     12  C   UNL     1       2.913   4.854  18.443  0.00  0.00    +0.000 C 
ATOM     13  C   UNL     1       1.695   4.728  17.493  0.00  0.00    +0.000 C 
ATOM     14  C   UNL     1       3.551   6.304  18.252  0.00  0.00    +0.000 C 
ENDROOT
BRANCH  14  15
ATOM     15  C   UNL     1       4.145   6.534  16.835  0.00  0.00    +0.000 C 
BRANCH  15  16
ATOM     16  C   UNL     1       5.617   6.295  16.650  0.00  0.00    +0.000 C 
ATOM     17  C   UNL     1       6.191   5.507  15.724  0.00  0.00    +0.000 C 
ATOM     18  C   UNL     1       7.640   5.447  15.419  0.00  0.00    +0.000 C 
ATOM     19  C   UNL     1       7.654   4.725  14.092  0.00  0.00    +0.000 C 
ATOM     20  O   UNL     1       6.398   4.057  13.955  0.00  0.00    +0.000 OA
ATOM     21  C   UNL     1       5.488   4.576  14.811  0.00  0.00    +0.000 C 
ATOM     22  O   UNL     1       4.308   4.288  14.833  0.00  0.00    +0.000 OA
ENDBRANCH  15  16
ENDBRANCH  14  15
TORSDOF 2
ENDMDL
MODEL 8
REMARK VINA RESULT:      -7.5      3.008      5.626
REMARK  Name = 
REMARK  5 active torsions:
REMARK  status: ('A' for Active; 'I' for Inactive)
REMARK    1  A    between atoms: C_6  and  C_7
REMARK    2  A    between atoms: C_6  and  C_8
REMARK    3  A    between atoms: C_12  and  C_13
REMARK    4  A    between atoms: C_14  and  C_15
REMARK    5  A    between atoms: C_15  and  C_16
REMARK                            x       y       z     vdW  Elec       q    Type
REMARK                         _______ _______ _______ _____ _____    ______ ____
ROOT
ATOM      1  C   UNL     1       5.210   7.279  17.329  0.00  0.00    +0.000 C 
ATOM      2  C   UNL     1       4.373   6.244  17.147  0.00  0.00    +0.000 C 
ATOM      3  C   UNL     1       4.847   4.989  16.462  0.00  0.00    +0.000 C 
ATOM      4  C   UNL     1       4.857   3.839  17.473  0.00  0.00    +0.000 C 
ATOM      5  C   UNL     1       3.471   3.645  18.134  0.00  0.00    +0.000 C 
ATOM      6  C   UNL     1       3.352   2.343  19.007  0.00  0.00    +0.000 C 
ATOM      7  C   UNL     1       3.592   1.091  18.123  0.00  0.00    +0.000 C 
ATOM      8  C   UNL     1       4.374   2.242  20.157  0.00  0.00    +0.000 C 
ATOM      9  C   UNL     1       1.908   2.229  19.559  0.00  0.00    +0.000 C 
ATOM     10  C   UNL     1       1.385   3.496  20.220  0.00  0.00    +0.000 C 
ATOM     11  C   UNL     1       1.490   4.711  19.298  0.00  0.00    +0.000 C 
ATOM     12  C   UNL     1       2.933   4.984  18.796  0.00  0.00    +0.000 C 
ATOM     13  C   UNL     1       3.782   5.479  19.995  0.00  0.00    +0.000 C 
ATOM     14  C   UNL     1       2.941   6.119  17.674  0.00  0.00    +0.000 C 
ENDROOT
BRANCH  14  15
ATOM     15  C   UNL     1       2.243   7.432  18.122  0.00  0.00    +0.000 C 
BRANCH  15  16
ATOM     16  C   UNL     1       2.154   7.707  19.596  0.00  0.00    +0.000 C 
ATOM     17  C   UNL     1       1.369   8.618  20.196  0.00  0.00    +0.000 C 
ATOM     18  C   UNL     1       1.135   8.731  21.655  0.00  0.00    +0.000 C 
ATOM     19  C   UNL     1      -0.080   9.627  21.713  0.00  0.00    +0.000 C 
ATOM     20  O   UNL     1      -0.178  10.297  20.455  0.00  0.00    +0.000 OA
ATOM     21  C   UNL     1       0.562   9.659  19.518  0.00  0.00    +0.000 C 
ATOM     22  O   UNL     1       0.572   9.931  18.334  0.00  0.00    +0.000 OA
ENDBRANCH  15  16
ENDBRANCH  14  15
TORSDOF 2
ENDMDL
MODEL 9
REMARK VINA RESULT:      -7.5      1.965      2.618
REMARK  Name = 
REMARK  5 active torsions:
REMARK  status: ('A' for Active; 'I' for Inactive)
REMARK    1  A    between atoms: C_6  and  C_7
REMARK    2  A    between atoms: C_6  and  C_8
REMARK    3  A    between atoms: C_12  and  C_13
REMARK    4  A    between atoms: C_14  and  C_15
REMARK    5  A    between atoms: C_15  and  C_16
REMARK                            x       y       z     vdW  Elec       q    Type
REMARK                         _______ _______ _______ _____ _____    ______ ____
ROOT
ATOM      1  C   UNL     1       4.846   6.894  17.129  0.00  0.00    +0.000 C 
ATOM      2  C   UNL     1       4.868   5.791  17.895  0.00  0.00    +0.000 C 
ATOM      3  C   UNL     1       4.896   5.903  19.398  0.00  0.00    +0.000 C 
ATOM      4  C   UNL     1       3.579   5.368  19.966  0.00  0.00    +0.000 C 
ATOM      5  C   UNL     1       3.303   3.917  19.503  0.00  0.00    +0.000 C 
ATOM      6  C   UNL     1       2.090   3.231  20.230  0.00  0.00    +0.000 C 
ATOM      7  C   UNL     1       2.362   3.158  21.756  0.00  0.00    +0.000 C 
ATOM      8  C   UNL     1       0.746   3.972  20.083  0.00  0.00    +0.000 C 
ATOM      9  C   UNL     1       1.956   1.770  19.731  0.00  0.00    +0.000 C 
ATOM     10  C   UNL     1       1.967   1.618  18.217  0.00  0.00    +0.000 C 
ATOM     11  C   UNL     1       3.197   2.269  17.582  0.00  0.00    +0.000 C 
ATOM     12  C   UNL     1       3.343   3.777  17.922  0.00  0.00    +0.000 C 
ATOM     13  C   UNL     1       2.217   4.554  17.193  0.00  0.00    +0.000 C 
ATOM     14  C   UNL     1       4.748   4.340  17.419  0.00  0.00    +0.000 C 
ENDROOT
BRANCH  14  15
ATOM     15  C   UNL     1       5.015   4.075  15.912  0.00  0.00    +0.000 C 
BRANCH  15  16
ATOM     16  C   UNL     1       6.306   4.582  15.333  0.00  0.00    +0.000 C 
ATOM     17  C   UNL     1       6.704   4.483  14.053  0.00  0.00    +0.000 C 
ATOM     18  C   UNL     1       7.874   5.170  13.457  0.00  0.00    +0.000 C 
ATOM     19  C   UNL     1       7.612   5.013  11.977  0.00  0.00    +0.000 C 
ATOM     20  O   UNL     1       6.670   3.950  11.819  0.00  0.00    +0.000 OA
ATOM     21  C   UNL     1       6.035   3.700  12.988  0.00  0.00    +0.000 C 
ATOM     22  O   UNL     1       5.102   2.935  13.124  0.00  0.00    +0.000 OA
ENDBRANCH  15  16
ENDBRANCH  14  15
TORSDOF 2
ENDMDL
