MODEL 1
REMARK VINA RESULT:      -8.6      0.000      0.000
REMARK  Name = 
REMARK  7 active torsions:
REMARK  status: ('A' for Active; 'I' for Inactive)
REMARK    1  A    between atoms: C_1  and  O_2
REMARK    2  A    between atoms: O_2  and  C_3
REMARK    3  A    between atoms: C_5  and  C_6
REMARK    4  A    between atoms: C_7  and  C_8
REMARK    5  A    between atoms: N_10  and  C_11
REMARK    6  A    between atoms: C_22  and  N_23
REMARK    7  A    between atoms: C_26  and  O_27
REMARK                            x       y       z     vdW  Elec       q    Type
REMARK                         _______ _______ _______ _____ _____    ______ ____
ROOT
ATOM      1  C   UNL     1       8.183   7.661  18.510  0.00  0.00    +0.000 C 
ATOM      2  C   UNL     1       8.124   8.902  17.990  0.00  0.00    +0.000 C 
ENDROOT
BRANCH   1   5
ATOM      3  C   UNL     1       6.018   4.532  18.360  0.00  0.00    +0.000 A 
ATOM      4  C   UNL     1       6.743   5.646  18.840  0.00  0.00    +0.000 A 
ATOM      5  C   UNL     1       7.452   6.497  17.980  0.00  0.00    +0.000 A 
ATOM      6  C   UNL     1       7.392   6.243  16.609  0.00  0.00    +0.000 A 
ATOM      7  C   UNL     1       6.674   5.138  16.116  0.00  0.00    +0.000 A 
ATOM      8  C   UNL     1       5.990   4.269  16.982  0.00  0.00    +0.000 A 
BRANCH   7   9
ATOM      9  N   UNL     1       6.673   4.919  14.668  0.00  0.00    +0.000 N 
ATOM     10  O   UNL     1       7.669   5.276  14.020  0.00  0.00    +0.000 OA
ATOM     11  O   UNL     1       5.677   4.378  14.164  0.00  0.00    +0.000 OA
ENDBRANCH   7   9
BRANCH   3  13
ATOM     12  C   UNL     1       4.014   4.027  19.597  0.00  0.00    +0.000 C 
ATOM     13  O   UNL     1       5.404   3.826  19.366  0.00  0.00    +0.000 OA
ENDBRANCH   3  13
BRANCH   8  14
ATOM     14  O   UNL     1       5.296   3.177  16.528  0.00  0.00    +0.000 OA
ATOM     15  H   UNL     1       5.677   2.345  16.878  0.00  0.00    +0.000 HD
ENDBRANCH   8  14
ENDBRANCH   1   5
BRANCH   2  16
ATOM     16  C   UNL     1       8.887  10.010  18.626  0.00  0.00    +0.000 C 
ATOM     17  O   UNL     1       9.494   9.845  19.676  0.00  0.00    +0.000 OA
ATOM     18  N   UNL     1       8.829  11.200  17.924  0.00  0.00    +0.000 N 
ATOM     19  H   UNL     1       8.274  11.250  17.080  0.00  0.00    +0.000 HD
BRANCH  18  20
ATOM     20  C   UNL     1       9.520  12.426  18.360  0.00  0.00    +0.000 C 
ATOM     21  C   UNL     1       8.849  13.681  17.746  0.00  0.00    +0.000 C 
ATOM     22  C   UNL     1       9.581  14.960  18.174  0.00  0.00    +0.000 C 
ATOM     23  C   UNL     1       9.504  15.093  19.702  0.00  0.00    +0.000 C 
ATOM     24  C   UNL     1      10.163  13.872  20.366  0.00  0.00    +0.000 C 
ATOM     25  C   UNL     1      11.638  13.820  19.939  0.00  0.00    +0.000 C 
ATOM     26  C   UNL     1      11.736  13.669  18.414  0.00  0.00    +0.000 C 
ATOM     27  C   UNL     1      11.052  14.867  17.734  0.00  0.00    +0.000 C 
ATOM     28  C   UNL     1      11.023  12.377  17.985  0.00  0.00    +0.000 C 
ATOM     29  C   UNL     1       9.445  12.582  19.908  0.00  0.00    +0.000 C 
ENDBRANCH  18  20
ENDBRANCH   2  16
TORSDOF 6
ENDMDL
MODEL 2
REMARK VINA RESULT:      -8.6      0.251      1.521
REMARK  Name = 
REMARK  7 active torsions:
REMARK  status: ('A' for Active; 'I' for Inactive)
REMARK    1  A    between atoms: C_1  and  O_2
REMARK    2  A    between atoms: O_2  and  C_3
REMARK    3  A    between atoms: C_5  and  C_6
REMARK    4  A    between atoms: C_7  and  C_8
REMARK    5  A    between atoms: N_10  and  C_11
REMARK    6  A    between atoms: C_22  and  N_23
REMARK    7  A    between atoms: C_26  and  O_27
REMARK                            x       y       z     vdW  Elec       q    Type
REMARK                         _______ _______ _______ _____ _____    ______ ____
ROOT
ATOM      1  C   UNL     1       8.155   7.757  18.480  0.00  0.00    +0.000 C 
ATOM      2  C   UNL     1       8.152   8.972  17.898  0.00  0.00    +0.000 C 
ENDROOT
BRANCH   1   5
ATOM      3  C   UNL     1       6.085   4.565  18.319  0.00  0.00    +0.000 A 
ATOM      4  C   UNL     1       6.775   5.699  18.802  0.00  0.00    +0.000 A 
ATOM      5  C   UNL     1       7.461   6.572  17.946  0.00  0.00    +0.000 A 
ATOM      6  C   UNL     1       7.412   6.319  16.574  0.00  0.00    +0.000 A 
ATOM      7  C   UNL     1       6.729   5.194  16.077  0.00  0.00    +0.000 A 
ATOM      8  C   UNL     1       6.069   4.304  16.940  0.00  0.00    +0.000 A 
BRANCH   7   9
ATOM      9  N   UNL     1       6.738   4.978  14.629  0.00  0.00    +0.000 N 
ATOM     10  O   UNL     1       5.750   4.438  14.110  0.00  0.00    +0.000 OA
ATOM     11  O   UNL     1       7.734   5.357  13.993  0.00  0.00    +0.000 OA
ENDBRANCH   7   9
BRANCH   3  13
ATOM     12  C   UNL     1       4.100   4.023  19.571  0.00  0.00    +0.000 C 
ATOM     13  O   UNL     1       5.490   3.839  19.322  0.00  0.00    +0.000 OA
ENDBRANCH   3  13
BRANCH   8  14
ATOM     14  O   UNL     1       5.409   3.192  16.482  0.00  0.00    +0.000 OA
ATOM     15  H   UNL     1       5.558   2.424  17.072  0.00  0.00    +0.000 HD
ENDBRANCH   8  14
ENDBRANCH   1   5
BRANCH   2  16
ATOM     16  C   UNL     1       8.869  10.105  18.542  0.00  0.00    +0.000 C 
ATOM     17  O   UNL     1       9.540   9.942  19.553  0.00  0.00    +0.000 OA
ATOM     18  N   UNL     1       8.693  11.314  17.896  0.00  0.00    +0.000 N 
ATOM     19  H   UNL     1       8.093  11.358  17.084  0.00  0.00    +0.000 HD
BRANCH  18  20
ATOM     20  C   UNL     1       9.320  12.568  18.350  0.00  0.00    +0.000 C 
ATOM     21  C   UNL     1      10.743  12.717  17.753  0.00  0.00    +0.000 C 
ATOM     22  C   UNL     1      11.412  14.008  18.245  0.00  0.00    +0.000 C 
ATOM     23  C   UNL     1      10.582  15.212  17.776  0.00  0.00    +0.000 C 
ATOM     24  C   UNL     1       9.157  15.118  18.347  0.00  0.00    +0.000 C 
ATOM     25  C   UNL     1       9.242  15.132  19.881  0.00  0.00    +0.000 C 
ATOM     26  C   UNL     1      10.054  13.924  20.370  0.00  0.00    +0.000 C 
ATOM     27  C   UNL     1      11.474  13.986  19.781  0.00  0.00    +0.000 C 
ATOM     28  C   UNL     1       9.373  12.630  19.898  0.00  0.00    +0.000 C 
ATOM     29  C   UNL     1       8.496  13.802  17.876  0.00  0.00    +0.000 C 
ENDBRANCH  18  20
ENDBRANCH   2  16
TORSDOF 6
ENDMDL
MODEL 3
REMARK VINA RESULT:      -8.6      0.268      1.645
REMARK  Name = 
REMARK  7 active torsions:
REMARK  status: ('A' for Active; 'I' for Inactive)
REMARK    1  A    between atoms: C_1  and  O_2
REMARK    2  A    between atoms: O_2  and  C_3
REMARK    3  A    between atoms: C_5  and  C_6
REMARK    4  A    between atoms: C_7  and  C_8
REMARK    5  A    between atoms: N_10  and  C_11
REMARK    6  A    between atoms: C_22  and  N_23
REMARK    7  A    between atoms: C_26  and  O_27
REMARK                            x       y       z     vdW  Elec       q    Type
REMARK                         _______ _______ _______ _____ _____    ______ ____
ROOT
ATOM      1  C   UNL     1       8.151   7.713  18.441  0.00  0.00    +0.000 C 
ATOM      2  C   UNL     1       8.106   8.939  17.883  0.00  0.00    +0.000 C 
ENDROOT
BRANCH   1   5
ATOM      3  C   UNL     1       6.052   4.539  18.303  0.00  0.00    +0.000 A 
ATOM      4  C   UNL     1       6.749   5.673  18.778  0.00  0.00    +0.000 A 
ATOM      5  C   UNL     1       7.450   6.529  17.916  0.00  0.00    +0.000 A 
ATOM      6  C   UNL     1       7.409   6.260  16.547  0.00  0.00    +0.000 A 
ATOM      7  C   UNL     1       6.719   5.135  16.058  0.00  0.00    +0.000 A 
ATOM      8  C   UNL     1       6.044   4.262  16.927  0.00  0.00    +0.000 A 
BRANCH   7   9
ATOM      9  N   UNL     1       6.738   4.901  14.613  0.00  0.00    +0.000 N 
ATOM     10  O   UNL     1       5.791   4.281  14.107  0.00  0.00    +0.000 OA
ATOM     11  O   UNL     1       7.698   5.347  13.967  0.00  0.00    +0.000 OA
ENDBRANCH   7   9
BRANCH   3  13
ATOM     12  C   UNL     1       4.055   4.038  19.552  0.00  0.00    +0.000 C 
ATOM     13  O   UNL     1       5.443   3.831  19.309  0.00  0.00    +0.000 OA
ENDBRANCH   3  13
BRANCH   8  14
ATOM     14  O   UNL     1       5.377   3.151  16.477  0.00  0.00    +0.000 OA
ATOM     15  H   UNL     1       5.791   2.795  15.663  0.00  0.00    +0.000 HD
ENDBRANCH   8  14
ENDBRANCH   1   5
BRANCH   2  16
ATOM     16  C   UNL     1       8.836  10.070  18.516  0.00  0.00    +0.000 C 
ATOM     17  O   UNL     1       9.536   9.902  19.505  0.00  0.00    +0.000 OA
ATOM     18  N   UNL     1       8.635  11.284  17.886  0.00  0.00    +0.000 N 
ATOM     19  H   UNL     1       8.011  11.332  17.092  0.00  0.00    +0.000 HD
BRANCH  18  20
ATOM     20  C   UNL     1       9.268  12.537  18.333  0.00  0.00    +0.000 C 
ATOM     21  C   UNL     1       9.421  12.553  19.876  0.00  0.00    +0.000 C 
ATOM     22  C   UNL     1      10.055  13.868  20.351  0.00  0.00    +0.000 C 
ATOM     23  C   UNL     1      11.459  13.996  19.742  0.00  0.00    +0.000 C 
ATOM     24  C   UNL     1      11.365  13.990  18.208  0.00  0.00    +0.000 C 
ATOM     25  C   UNL     1      10.515  15.192  17.765  0.00  0.00    +0.000 C 
ATOM     26  C   UNL     1       9.099  15.073  18.350  0.00  0.00    +0.000 C 
ATOM     27  C   UNL     1       9.178  15.043  19.886  0.00  0.00    +0.000 C 
ATOM     28  C   UNL     1       8.455  13.767  17.857  0.00  0.00    +0.000 C 
ATOM     29  C   UNL     1      10.698  12.679  17.732  0.00  0.00    +0.000 C 
ENDBRANCH  18  20
ENDBRANCH   2  16
TORSDOF 6
ENDMDL
MODEL 4
REMARK VINA RESULT:      -8.4      6.731     11.013
REMARK  Name = 
REMARK  7 active torsions:
REMARK  status: ('A' for Active; 'I' for Inactive)
REMARK    1  A    between atoms: C_1  and  O_2
REMARK    2  A    between atoms: O_2  and  C_3
REMARK    3  A    between atoms: C_5  and  C_6
REMARK    4  A    between atoms: C_7  and  C_8
REMARK    5  A    between atoms: N_10  and  C_11
REMARK    6  A    between atoms: C_22  and  N_23
REMARK    7  A    between atoms: C_26  and  O_27
REMARK                            x       y       z     vdW  Elec       q    Type
REMARK                         _______ _______ _______ _____ _____    ______ ____
ROOT
ATOM      1  C   UNL     1       1.326   9.004  18.547  0.00  0.00    +0.000 C 
ATOM      2  C   UNL     1       2.456   8.598  17.937  0.00  0.00    +0.000 C 
ENDROOT
BRANCH   1   5
ATOM      3  C   UNL     1      -1.065  11.966  18.495  0.00  0.00    +0.000 A 
ATOM      4  C   UNL     1      -0.552  10.650  18.483  0.00  0.00    +0.000 A 
ATOM      5  C   UNL     1       0.824  10.389  18.543  0.00  0.00    +0.000 A 
ATOM      6  C   UNL     1       1.694  11.474  18.661  0.00  0.00    +0.000 A 
ATOM      7  C   UNL     1       1.198  12.791  18.675  0.00  0.00    +0.000 A 
ATOM      8  C   UNL     1      -0.179  13.051  18.583  0.00  0.00    +0.000 A 
BRANCH   7   9
ATOM      9  N   UNL     1       2.170  13.882  18.778  0.00  0.00    +0.000 N 
ATOM     10  O   UNL     1       3.178  13.838  18.058  0.00  0.00    +0.000 OA
ATOM     11  O   UNL     1       1.927  14.800  19.576  0.00  0.00    +0.000 OA
ENDBRANCH   7   9
BRANCH   3  13
ATOM     12  C   UNL     1      -3.077  11.423  17.287  0.00  0.00    +0.000 C 
ATOM     13  O   UNL     1      -2.436  12.002  18.420  0.00  0.00    +0.000 OA
ENDBRANCH   3  13
BRANCH   8  14
ATOM     14  O   UNL     1      -0.686  14.325  18.580  0.00  0.00    +0.000 OA
ATOM     15  H   UNL     1      -0.498  14.783  19.425  0.00  0.00    +0.000 HD
ENDBRANCH   8  14
ENDBRANCH   1   5
BRANCH   2  16
ATOM     16  C   UNL     1       2.880   7.175  18.029  0.00  0.00    +0.000 C 
ATOM     17  O   UNL     1       3.892   6.774  17.469  0.00  0.00    +0.000 OA
ATOM     18  N   UNL     1       2.031   6.389  18.784  0.00  0.00    +0.000 N 
ATOM     19  H   UNL     1       1.198   6.801  19.183  0.00  0.00    +0.000 HD
BRANCH  18  20
ATOM     20  C   UNL     1       2.261   4.953  19.021  0.00  0.00    +0.000 C 
ATOM     21  C   UNL     1       3.710   4.704  19.515  0.00  0.00    +0.000 C 
ATOM     22  C   UNL     1       3.965   3.207  19.737  0.00  0.00    +0.000 C 
ATOM     23  C   UNL     1       3.008   2.691  20.822  0.00  0.00    +0.000 C 
ATOM     24  C   UNL     1       1.551   2.909  20.379  0.00  0.00    +0.000 C 
ATOM     25  C   UNL     1       1.311   2.121  19.082  0.00  0.00    +0.000 C 
ATOM     26  C   UNL     1       2.247   2.635  17.978  0.00  0.00    +0.000 C 
ATOM     27  C   UNL     1       3.710   2.455  18.420  0.00  0.00    +0.000 C 
ATOM     28  C   UNL     1       1.978   4.129  17.739  0.00  0.00    +0.000 C 
ATOM     29  C   UNL     1       1.305   4.414  20.126  0.00  0.00    +0.000 C 
ENDBRANCH  18  20
ENDBRANCH   2  16
TORSDOF 6
ENDMDL
MODEL 5
REMARK VINA RESULT:      -8.4      6.487      8.222
REMARK  Name = 
REMARK  7 active torsions:
REMARK  status: ('A' for Active; 'I' for Inactive)
REMARK    1  A    between atoms: C_1  and  O_2
REMARK    2  A    between atoms: O_2  and  C_3
REMARK    3  A    between atoms: C_5  and  C_6
REMARK    4  A    between atoms: C_7  and  C_8
REMARK    5  A    between atoms: N_10  and  C_11
REMARK    6  A    between atoms: C_22  and  N_23
REMARK    7  A    between atoms: C_26  and  O_27
REMARK                            x       y       z     vdW  Elec       q    Type
REMARK                         _______ _______ _______ _____ _____    ______ ____
ROOT
ATOM      1  C   UNL     1       2.639   7.195  19.284  0.00  0.00    +0.000 C 
ATOM      2  C   UNL     1       2.425   7.873  18.140  0.00  0.00    +0.000 C 
ENDROOT
BRANCH   1   5
ATOM      3  C   UNL     1       5.132   4.319  19.191  0.00  0.00    +0.000 A 
ATOM      4  C   UNL     1       4.561   5.608  19.111  0.00  0.00    +0.000 A 
ATOM      5  C   UNL     1       3.199   5.834  19.358  0.00  0.00    +0.000 A 
ATOM      6  C   UNL     1       2.411   4.746  19.734  0.00  0.00    +0.000 A 
ATOM      7  C   UNL     1       2.965   3.455  19.818  0.00  0.00    +0.000 A 
ATOM      8  C   UNL     1       4.323   3.227  19.540  0.00  0.00    +0.000 A 
BRANCH   7   9
ATOM      9  N   UNL     1       2.074   2.356  20.197  0.00  0.00    +0.000 N 
ATOM     10  O   UNL     1       1.791   1.509  19.337  0.00  0.00    +0.000 OA
ATOM     11  O   UNL     1       1.656   2.326  21.364  0.00  0.00    +0.000 OA
ENDBRANCH   7   9
BRANCH   3  13
ATOM     12  C   UNL     1       6.903   4.736  17.612  0.00  0.00    +0.000 C 
ATOM     13  O   UNL     1       6.475   4.315  18.904  0.00  0.00    +0.000 OA
ENDBRANCH   3  13
BRANCH   8  14
ATOM     14  O   UNL     1       4.883   1.976  19.601  0.00  0.00    +0.000 OA
ATOM     15  H   UNL     1       5.339   1.834  20.456  0.00  0.00    +0.000 HD
ENDBRANCH   8  14
ENDBRANCH   1   5
BRANCH   2  16
ATOM     16  C   UNL     1       1.829   9.235  18.184  0.00  0.00    +0.000 C 
ATOM     17  O   UNL     1       2.073  10.065  17.318  0.00  0.00    +0.000 OA
ATOM     18  N   UNL     1       1.007   9.448  19.275  0.00  0.00    +0.000 N 
ATOM     19  H   UNL     1       0.891   8.712  19.958  0.00  0.00    +0.000 HD
BRANCH  18  20
ATOM     20  C   UNL     1       0.302  10.720  19.515  0.00  0.00    +0.000 C 
ATOM     21  C   UNL     1       1.295  11.910  19.488  0.00  0.00    +0.000 C 
ATOM     22  C   UNL     1       0.571  13.235  19.765  0.00  0.00    +0.000 C 
ATOM     23  C   UNL     1      -0.473  13.475  18.664  0.00  0.00    +0.000 C 
ATOM     24  C   UNL     1      -1.490  12.322  18.649  0.00  0.00    +0.000 C 
ATOM     25  C   UNL     1      -2.199  12.276  20.012  0.00  0.00    +0.000 C 
ATOM     26  C   UNL     1      -1.173  12.019  21.125  0.00  0.00    +0.000 C 
ATOM     27  C   UNL     1      -0.128  13.148  21.133  0.00  0.00    +0.000 C 
ATOM     28  C   UNL     1      -0.462  10.682  20.862  0.00  0.00    +0.000 C 
ATOM     29  C   UNL     1      -0.755  10.984  18.402  0.00  0.00    +0.000 C 
ENDBRANCH  18  20
ENDBRANCH   2  16
TORSDOF 6
ENDMDL
MODEL 6
REMARK VINA RESULT:      -8.4      6.761     11.045
REMARK  Name = 
REMARK  7 active torsions:
REMARK  status: ('A' for Active; 'I' for Inactive)
REMARK    1  A    between atoms: C_1  and  O_2
REMARK    2  A    between atoms: O_2  and  C_3
REMARK    3  A    between atoms: C_5  and  C_6
REMARK    4  A    between atoms: C_7  and  C_8
REMARK    5  A    between atoms: N_10  and  C_11
REMARK    6  A    between atoms: C_22  and  N_23
REMARK    7  A    between atoms: C_26  and  O_27
REMARK                            x       y       z     vdW  Elec       q    Type
REMARK                         _______ _______ _______ _____ _____    ______ ____
ROOT
ATOM      1  C   UNL     1       1.280   8.969  18.537  0.00  0.00    +0.000 C 
ATOM      2  C   UNL     1       2.442   8.576  17.980  0.00  0.00    +0.000 C 
ENDROOT
BRANCH   1   5
ATOM      3  C   UNL     1      -1.107  11.935  18.487  0.00  0.00    +0.000 A 
ATOM      4  C   UNL     1      -0.595  10.619  18.469  0.00  0.00    +0.000 A 
ATOM      5  C   UNL     1       0.781  10.355  18.539  0.00  0.00    +0.000 A 
ATOM      6  C   UNL     1       1.650  11.438  18.673  0.00  0.00    +0.000 A 
ATOM      7  C   UNL     1       1.156  12.756  18.693  0.00  0.00    +0.000 A 
ATOM      8  C   UNL     1      -0.220  13.018  18.591  0.00  0.00    +0.000 A 
BRANCH   7   9
ATOM      9  N   UNL     1       2.128  13.844  18.813  0.00  0.00    +0.000 N 
ATOM     10  O   UNL     1       3.121  13.828  18.071  0.00  0.00    +0.000 OA
ATOM     11  O   UNL     1       1.902  14.733  19.648  0.00  0.00    +0.000 OA
ENDBRANCH   7   9
BRANCH   3  13
ATOM     12  C   UNL     1      -3.109  11.380  17.270  0.00  0.00    +0.000 C 
ATOM     13  O   UNL     1      -2.477  11.973  18.399  0.00  0.00    +0.000 OA
ENDBRANCH   3  13
BRANCH   8  14
ATOM     14  O   UNL     1      -0.725  14.293  18.593  0.00  0.00    +0.000 OA
ATOM     15  H   UNL     1      -1.613  14.322  18.180  0.00  0.00    +0.000 HD
ENDBRANCH   8  14
ENDBRANCH   1   5
BRANCH   2  16
ATOM     16  C   UNL     1       2.859   7.150  18.060  0.00  0.00    +0.000 C 
ATOM     17  O   UNL     1       3.857   6.745  17.478  0.00  0.00    +0.000 OA
ATOM     18  N   UNL     1       2.021   6.368  18.832  0.00  0.00    +0.000 N 
ATOM     19  H   UNL     1       1.200   6.784  19.249  0.00  0.00    +0.000 HD
BRANCH  18  20
ATOM     20  C   UNL     1       2.248   4.930  19.061  0.00  0.00    +0.000 C 
ATOM     21  C   UNL     1       1.995   4.122  17.762  0.00  0.00    +0.000 C 
ATOM     22  C   UNL     1       2.203   2.620  18.000  0.00  0.00    +0.000 C 
ATOM     23  C   UNL     1       3.658   2.376  18.424  0.00  0.00    +0.000 C 
ATOM     24  C   UNL     1       3.963   3.153  19.715  0.00  0.00    +0.000 C 
ATOM     25  C   UNL     1       3.027   2.647  20.823  0.00  0.00    +0.000 C 
ATOM     26  C   UNL     1       1.564   2.898  20.426  0.00  0.00    +0.000 C 
ATOM     27  C   UNL     1       1.252   2.154  19.116  0.00  0.00    +0.000 C 
ATOM     28  C   UNL     1       1.349   4.404  20.209  0.00  0.00    +0.000 C 
ATOM     29  C   UNL     1       3.723   4.662  19.482  0.00  0.00    +0.000 C 
ENDBRANCH  18  20
ENDBRANCH   2  16
TORSDOF 6
ENDMDL
MODEL 7
REMARK VINA RESULT:      -8.4      6.750     11.033
REMARK  Name = 
REMARK  7 active torsions:
REMARK  status: ('A' for Active; 'I' for Inactive)
REMARK    1  A    between atoms: C_1  and  O_2
REMARK    2  A    between atoms: O_2  and  C_3
REMARK    3  A    between atoms: C_5  and  C_6
REMARK    4  A    between atoms: C_7  and  C_8
REMARK    5  A    between atoms: N_10  and  C_11
REMARK    6  A    between atoms: C_22  and  N_23
REMARK    7  A    between atoms: C_26  and  O_27
REMARK                            x       y       z     vdW  Elec       q    Type
REMARK                         _______ _______ _______ _____ _____    ______ ____
ROOT
ATOM      1  C   UNL     1       1.263   8.942  18.399  0.00  0.00    +0.000 C 
ATOM      2  C   UNL     1       2.519   8.589  18.064  0.00  0.00    +0.000 C 
ENDROOT
BRANCH   1   5
ATOM      3  C   UNL     1      -1.118  11.913  18.384  0.00  0.00    +0.000 A 
ATOM      4  C   UNL     1      -0.607  10.596  18.337  0.00  0.00    +0.000 A 
ATOM      5  C   UNL     1       0.766  10.328  18.434  0.00  0.00    +0.000 A 
ATOM      6  C   UNL     1       1.633  11.404  18.626  0.00  0.00    +0.000 A 
ATOM      7  C   UNL     1       1.140  12.721  18.676  0.00  0.00    +0.000 A 
ATOM      8  C   UNL     1      -0.233  12.990  18.547  0.00  0.00    +0.000 A 
BRANCH   7   9
ATOM      9  N   UNL     1       2.110  13.803  18.857  0.00  0.00    +0.000 N 
ATOM     10  O   UNL     1       3.046  13.893  18.049  0.00  0.00    +0.000 OA
ATOM     11  O   UNL     1       1.938  14.582  19.808  0.00  0.00    +0.000 OA
ENDBRANCH   7   9
BRANCH   3  13
ATOM     12  C   UNL     1      -3.098  11.291  17.162  0.00  0.00    +0.000 C 
ATOM     13  O   UNL     1      -2.485  11.956  18.262  0.00  0.00    +0.000 OA
ENDBRANCH   3  13
BRANCH   8  14
ATOM     14  O   UNL     1      -0.736  14.265  18.578  0.00  0.00    +0.000 OA
ATOM     15  H   UNL     1      -1.652  14.276  18.925  0.00  0.00    +0.000 HD
ENDBRANCH   8  14
ENDBRANCH   1   5
BRANCH   2  16
ATOM     16  C   UNL     1       2.920   7.156  18.088  0.00  0.00    +0.000 C 
ATOM     17  O   UNL     1       3.897   6.758  17.468  0.00  0.00    +0.000 OA
ATOM     18  N   UNL     1       2.091   6.360  18.855  0.00  0.00    +0.000 N 
ATOM     19  H   UNL     1       1.286   6.772  19.306  0.00  0.00    +0.000 HD
BRANCH  18  20
ATOM     20  C   UNL     1       2.305   4.912  19.032  0.00  0.00    +0.000 C 
ATOM     21  C   UNL     1       1.362   4.349  20.127  0.00  0.00    +0.000 C 
ATOM     22  C   UNL     1       1.598   2.847  20.336  0.00  0.00    +0.000 C 
ATOM     23  C   UNL     1       1.288   2.105  19.028  0.00  0.00    +0.000 C 
ATOM     24  C   UNL     1       2.202   2.622  17.905  0.00  0.00    +0.000 C 
ATOM     25  C   UNL     1       3.663   2.354  18.300  0.00  0.00    +0.000 C 
ATOM     26  C   UNL     1       3.998   3.104  19.599  0.00  0.00    +0.000 C 
ATOM     27  C   UNL     1       3.069   2.621  20.726  0.00  0.00    +0.000 C 
ATOM     28  C   UNL     1       3.783   4.611  19.385  0.00  0.00    +0.000 C 
ATOM     29  C   UNL     1       1.986   4.141  17.717  0.00  0.00    +0.000 C 
ENDBRANCH  18  20
ENDBRANCH   2  16
TORSDOF 6
ENDMDL
MODEL 8
REMARK VINA RESULT:      -8.3      6.538      8.248
REMARK  Name = 
REMARK  7 active torsions:
REMARK  status: ('A' for Active; 'I' for Inactive)
REMARK    1  A    between atoms: C_1  and  O_2
REMARK    2  A    between atoms: O_2  and  C_3
REMARK    3  A    between atoms: C_5  and  C_6
REMARK    4  A    between atoms: C_7  and  C_8
REMARK    5  A    between atoms: N_10  and  C_11
REMARK    6  A    between atoms: C_22  and  N_23
REMARK    7  A    between atoms: C_26  and  O_27
REMARK                            x       y       z     vdW  Elec       q    Type
REMARK                         _______ _______ _______ _____ _____    ______ ____
ROOT
ATOM      1  C   UNL     1       2.768   7.220  19.311  0.00  0.00    +0.000 C 
ATOM      2  C   UNL     1       2.303   7.773  18.174  0.00  0.00    +0.000 C 
ENDROOT
BRANCH   1   5
ATOM      3  C   UNL     1       5.180   4.280  19.119  0.00  0.00    +0.000 A 
ATOM      4  C   UNL     1       4.625   5.575  19.015  0.00  0.00    +0.000 A 
ATOM      5  C   UNL     1       3.311   5.854  19.416  0.00  0.00    +0.000 A 
ATOM      6  C   UNL     1       2.560   4.817  19.971  0.00  0.00    +0.000 A 
ATOM      7  C   UNL     1       3.098   3.522  20.082  0.00  0.00    +0.000 A 
ATOM      8  C   UNL     1       4.405   3.238  19.651  0.00  0.00    +0.000 A 
BRANCH   7   9
ATOM      9  N   UNL     1       2.246   2.478  20.654  0.00  0.00    +0.000 N 
ATOM     10  O   UNL     1       1.692   1.684  19.879  0.00  0.00    +0.000 OA
ATOM     11  O   UNL     1       2.130   2.436  21.888  0.00  0.00    +0.000 OA
ENDBRANCH   7   9
BRANCH   3  13
ATOM     12  C   UNL     1       6.758   4.659  17.339  0.00  0.00    +0.000 C 
ATOM     13  O   UNL     1       6.475   4.220  18.664  0.00  0.00    +0.000 OA
ENDBRANCH   3  13
BRANCH   8  14
ATOM     14  O   UNL     1       4.948   1.981  19.734  0.00  0.00    +0.000 OA
ATOM     15  H   UNL     1       5.255   1.670  18.858  0.00  0.00    +0.000 HD
ENDBRANCH   8  14
ENDBRANCH   1   5
BRANCH   2  16
ATOM     16  C   UNL     1       1.754   9.155  18.191  0.00  0.00    +0.000 C 
ATOM     17  O   UNL     1       2.049   9.968  17.325  0.00  0.00    +0.000 OA
ATOM     18  N   UNL     1       0.911   9.406  19.257  0.00  0.00    +0.000 N 
ATOM     19  H   UNL     1       0.751   8.681  19.943  0.00  0.00    +0.000 HD
BRANCH  18  20
ATOM     20  C   UNL     1       0.244  10.703  19.468  0.00  0.00    +0.000 C 
ATOM     21  C   UNL     1      -0.431  10.752  20.863  0.00  0.00    +0.000 C 
ATOM     22  C   UNL     1      -1.152  12.091  21.077  0.00  0.00    +0.000 C 
ATOM     23  C   UNL     1      -0.122  13.228  21.018  0.00  0.00    +0.000 C 
ATOM     24  C   UNL     1       0.576  13.230  19.648  0.00  0.00    +0.000 C 
ATOM     25  C   UNL     1      -0.484  13.454  18.558  0.00  0.00    +0.000 C 
ATOM     26  C   UNL     1      -1.514  12.315  18.590  0.00  0.00    +0.000 C 
ATOM     27  C   UNL     1      -2.199  12.280  19.967  0.00  0.00    +0.000 C 
ATOM     28  C   UNL     1      -0.797  10.976  18.353  0.00  0.00    +0.000 C 
ATOM     29  C   UNL     1       1.275  11.870  19.420  0.00  0.00    +0.000 C 
ENDBRANCH  18  20
ENDBRANCH   2  16
TORSDOF 6
ENDMDL
MODEL 9
REMARK VINA RESULT:      -8.3      6.723     11.182
REMARK  Name = 
REMARK  7 active torsions:
REMARK  status: ('A' for Active; 'I' for Inactive)
REMARK    1  A    between atoms: C_1  and  O_2
REMARK    2  A    between atoms: O_2  and  C_3
REMARK    3  A    between atoms: C_5  and  C_6
REMARK    4  A    between atoms: C_7  and  C_8
REMARK    5  A    between atoms: N_10  and  C_11
REMARK    6  A    between atoms: C_22  and  N_23
REMARK    7  A    between atoms: C_26  and  O_27
REMARK                            x       y       z     vdW  Elec       q    Type
REMARK                         _______ _______ _______ _____ _____    ______ ____
ROOT
ATOM      1  C   UNL     1       1.359   8.991  18.629  0.00  0.00    +0.000 C 
ATOM      2  C   UNL     1       2.437   8.582  17.931  0.00  0.00    +0.000 C 
ENDROOT
BRANCH   1   5
ATOM      3  C   UNL     1       1.244  12.792  18.441  0.00  0.00    +0.000 A 
ATOM      4  C   UNL     1       1.710  11.458  18.456  0.00  0.00    +0.000 A 
ATOM      5  C   UNL     1       0.843  10.371  18.637  0.00  0.00    +0.000 A 
ATOM      6  C   UNL     1      -0.522  10.633  18.762  0.00  0.00    +0.000 A 
ATOM      7  C   UNL     1      -1.001  11.956  18.749  0.00  0.00    +0.000 A 
ATOM      8  C   UNL     1      -0.127  13.045  18.599  0.00  0.00    +0.000 A 
BRANCH   7   9
ATOM      9  N   UNL     1      -2.443  12.158  18.908  0.00  0.00    +0.000 N 
ATOM     10  O   UNL     1      -3.198  11.710  18.033  0.00  0.00    +0.000 OA
ATOM     11  O   UNL     1      -2.836  12.760  19.919  0.00  0.00    +0.000 OA
ENDBRANCH   7   9
BRANCH   3  13
ATOM     12  C   UNL     1       2.989  14.150  19.396  0.00  0.00    +0.000 C 
ATOM     13  O   UNL     1       2.254  13.705  18.260  0.00  0.00    +0.000 OA
ENDBRANCH   3  13
BRANCH   8  14
ATOM     14  O   UNL     1      -0.568  14.344  18.598  0.00  0.00    +0.000 OA
ATOM     15  H   UNL     1      -0.229  14.833  19.376  0.00  0.00    +0.000 HD
ENDBRANCH   8  14
ENDBRANCH   1   5
BRANCH   2  16
ATOM     16  C   UNL     1       2.883   7.165  18.017  0.00  0.00    +0.000 C 
ATOM     17  O   UNL     1       3.914   6.789  17.475  0.00  0.00    +0.000 OA
ATOM     18  N   UNL     1       2.031   6.357  18.745  0.00  0.00    +0.000 N 
ATOM     19  H   UNL     1       1.183   6.750  19.129  0.00  0.00    +0.000 HD
BRANCH  18  20
ATOM     20  C   UNL     1       2.281   4.922  18.971  0.00  0.00    +0.000 C 
ATOM     21  C   UNL     1       3.726   4.692  19.485  0.00  0.00    +0.000 C 
ATOM     22  C   UNL     1       4.002   3.197  19.696  0.00  0.00    +0.000 C 
ATOM     23  C   UNL     1       3.038   2.655  20.761  0.00  0.00    +0.000 C 
ATOM     24  C   UNL     1       1.585   2.854  20.299  0.00  0.00    +0.000 C 
ATOM     25  C   UNL     1       1.376   2.075  18.991  0.00  0.00    +0.000 C 
ATOM     26  C   UNL     1       2.321   2.615  17.906  0.00  0.00    +0.000 C 
ATOM     27  C   UNL     1       3.779   2.454  18.368  0.00  0.00    +0.000 C 
ATOM     28  C   UNL     1       2.030   4.107  17.677  0.00  0.00    +0.000 C 
ATOM     29  C   UNL     1       1.317   4.357  20.056  0.00  0.00    +0.000 C 
ENDBRANCH  18  20
ENDBRANCH   2  16
TORSDOF 6
ENDMDL
