MODEL 1
REMARK VINA RESULT:      -7.3      0.000      0.000
REMARK  Name = 
REMARK  3 active torsions:
REMARK  status: ('A' for Active; 'I' for Inactive)
REMARK    1  A    between atoms: O_1  and  C_2
REMARK    2  A    between atoms: C_5  and  C_6
REMARK    3  A    between atoms: C_12  and  C_13
REMARK                            x       y       z     vdW  Elec       q    Type
REMARK                         _______ _______ _______ _____ _____    ______ ____
ROOT
ATOM      1  C   UNL     1       2.367   4.141  18.286  0.00  0.00    +0.000 A 
ATOM      2  N   UNL     1       3.076   3.164  17.698  0.00  0.00    +0.000 NA
ATOM      3  O   UNL     1       4.090   3.727  17.103  0.00  0.00    +0.000 OA
ATOM      4  C   UNL     1       4.100   5.036  17.279  0.00  0.00    +0.000 A 
ATOM      5  C   UNL     1       2.974   5.373  18.064  0.00  0.00    +0.000 A 
ENDROOT
BRANCH   4   6
ATOM      6  C   UNL     1       5.170   5.945  16.686  0.00  0.00    +0.000 C 
ATOM      7  C   UNL     1       5.667   5.554  15.278  0.00  0.00    +0.000 C 
ATOM      8  C   UNL     1       6.606   4.343  15.294  0.00  0.00    +0.000 C 
ATOM      9  N   UNL     1       7.752   4.598  16.175  0.00  0.00    +0.000 NA
ATOM     10  C   UNL     1       7.309   4.864  17.553  0.00  0.00    +0.000 C 
ATOM     11  C   UNL     1       6.392   6.106  17.616  0.00  0.00    +0.000 C 
ATOM     12  H   UNL     1       8.296   5.421  15.814  0.00  0.00    +0.000 HD
ENDBRANCH   4   6
BRANCH   5  13
ATOM     13  C   UNL     1       2.442   6.700  18.549  0.00  0.00    +0.000 A 
ATOM     14  C   UNL     1       2.234   7.761  17.636  0.00  0.00    +0.000 A 
ATOM     15  C   UNL     1       1.739   8.994  18.063  0.00  0.00    +0.000 A 
ATOM     16  C   UNL     1       1.456   9.186  19.410  0.00  0.00    +0.000 A 
ATOM     17  N   UNL     1       1.668   8.182  20.291  0.00  0.00    +0.000 NA
ATOM     18  C   UNL     1       2.140   6.969  19.904  0.00  0.00    +0.000 A 
ENDBRANCH   5  13
BRANCH   1  19
ATOM     19  O   UNL     1       1.208   3.921  18.935  0.00  0.00    +0.000 OA
ATOM     20  H   UNL     1       0.396   3.701  18.459  0.00  0.00    +0.000 HD
ENDBRANCH   1  19
TORSDOF 3
ENDMDL
MODEL 2
REMARK VINA RESULT:      -7.2      2.713      5.855
REMARK  Name = 
REMARK  3 active torsions:
REMARK  status: ('A' for Active; 'I' for Inactive)
REMARK    1  A    between atoms: O_1  and  C_2
REMARK    2  A    between atoms: C_5  and  C_6
REMARK    3  A    between atoms: C_12  and  C_13
REMARK                            x       y       z     vdW  Elec       q    Type
REMARK                         _______ _______ _______ _____ _____    ______ ____
ROOT
ATOM      1  C   UNL     1       6.523   4.671  18.679  0.00  0.00    +0.000 A 
ATOM      2  N   UNL     1       5.795   4.575  19.803  0.00  0.00    +0.000 NA
ATOM      3  O   UNL     1       4.559   4.365  19.446  0.00  0.00    +0.000 OA
ATOM      4  C   UNL     1       4.429   4.300  18.134  0.00  0.00    +0.000 A 
ATOM      5  C   UNL     1       5.708   4.496  17.565  0.00  0.00    +0.000 A 
ENDROOT
BRANCH   4   6
ATOM      6  C   UNL     1       3.090   4.070  17.442  0.00  0.00    +0.000 C 
ATOM      7  C   UNL     1       1.892   4.833  18.046  0.00  0.00    +0.000 C 
ATOM      8  C   UNL     1       1.398   4.218  19.359  0.00  0.00    +0.000 C 
ATOM      9  N   UNL     1       1.043   2.807  19.162  0.00  0.00    +0.000 NA
ATOM     10  C   UNL     1       2.203   2.033  18.691  0.00  0.00    +0.000 C 
ATOM     11  C   UNL     1       2.726   2.573  17.341  0.00  0.00    +0.000 C 
ATOM     12  H   UNL     1       0.264   2.736  18.461  0.00  0.00    +0.000 HD
ENDBRANCH   4   6
BRANCH   5  13
ATOM     13  C   UNL     1       6.175   4.568  16.131  0.00  0.00    +0.000 A 
ATOM     14  C   UNL     1       5.624   3.702  15.157  0.00  0.00    +0.000 A 
ATOM     15  C   UNL     1       6.038   3.756  13.825  0.00  0.00    +0.000 A 
ATOM     16  C   UNL     1       7.017   4.669  13.452  0.00  0.00    +0.000 A 
ATOM     17  N   UNL     1       7.561   5.488  14.381  0.00  0.00    +0.000 NA
ATOM     18  C   UNL     1       7.172   5.466  15.681  0.00  0.00    +0.000 A 
ENDBRANCH   5  13
BRANCH   1  19
ATOM     19  O   UNL     1       7.838   4.958  18.676  0.00  0.00    +0.000 OA
ATOM     20  H   UNL     1       8.496   4.313  18.386  0.00  0.00    +0.000 HD
ENDBRANCH   1  19
TORSDOF 3
ENDMDL
MODEL 3
REMARK VINA RESULT:      -7.1      1.961      5.278
REMARK  Name = 
REMARK  3 active torsions:
REMARK  status: ('A' for Active; 'I' for Inactive)
REMARK    1  A    between atoms: O_1  and  C_2
REMARK    2  A    between atoms: C_5  and  C_6
REMARK    3  A    between atoms: C_12  and  C_13
REMARK                            x       y       z     vdW  Elec       q    Type
REMARK                         _______ _______ _______ _____ _____    ______ ____
ROOT
ATOM      1  C   UNL     1       3.357   6.885  18.353  0.00  0.00    +0.000 A 
ATOM      2  N   UNL     1       2.419   6.914  19.314  0.00  0.00    +0.000 NA
ATOM      3  O   UNL     1       2.425   5.746  19.893  0.00  0.00    +0.000 OA
ATOM      4  C   UNL     1       3.335   4.943  19.374  0.00  0.00    +0.000 A 
ATOM      5  C   UNL     1       3.992   5.648  18.341  0.00  0.00    +0.000 A 
ENDROOT
BRANCH   4   6
ATOM      6  C   UNL     1       3.554   3.514  19.858  0.00  0.00    +0.000 C 
ATOM      7  C   UNL     1       3.893   2.486  18.758  0.00  0.00    +0.000 C 
ATOM      8  C   UNL     1       2.674   2.089  17.920  0.00  0.00    +0.000 C 
ATOM      9  N   UNL     1       1.609   1.563  18.783  0.00  0.00    +0.000 NA
ATOM     10  C   UNL     1       1.189   2.568  19.773  0.00  0.00    +0.000 C 
ATOM     11  C   UNL     1       2.365   2.981  20.686  0.00  0.00    +0.000 C 
ATOM     12  H   UNL     1       1.952   0.703  19.279  0.00  0.00    +0.000 HD
ENDBRANCH   4   6
BRANCH   5  13
ATOM     13  C   UNL     1       5.080   5.243  17.375  0.00  0.00    +0.000 A 
ATOM     14  C   UNL     1       4.752   4.853  16.055  0.00  0.00    +0.000 A 
ATOM     15  C   UNL     1       5.743   4.478  15.146  0.00  0.00    +0.000 A 
ATOM     16  C   UNL     1       7.073   4.479  15.548  0.00  0.00    +0.000 A 
ATOM     17  N   UNL     1       7.393   4.834  16.813  0.00  0.00    +0.000 NA
ATOM     18  C   UNL     1       6.452   5.212  17.717  0.00  0.00    +0.000 A 
ENDBRANCH   5  13
BRANCH   1  19
ATOM     19  O   UNL     1       3.574   7.909  17.506  0.00  0.00    +0.000 OA
ATOM     20  H   UNL     1       3.768   7.759  16.571  0.00  0.00    +0.000 HD
ENDBRANCH   1  19
TORSDOF 3
ENDMDL
MODEL 4
REMARK VINA RESULT:      -7.1      2.174      3.502
REMARK  Name = 
REMARK  3 active torsions:
REMARK  status: ('A' for Active; 'I' for Inactive)
REMARK    1  A    between atoms: O_1  and  C_2
REMARK    2  A    between atoms: C_5  and  C_6
REMARK    3  A    between atoms: C_12  and  C_13
REMARK                            x       y       z     vdW  Elec       q    Type
REMARK                         _______ _______ _______ _____ _____    ______ ____
ROOT
ATOM      1  C   UNL     1       2.753   7.133  18.402  0.00  0.00    +0.000 A 
ATOM      2  N   UNL     1       3.535   7.747  17.499  0.00  0.00    +0.000 NA
ATOM      3  O   UNL     1       4.327   6.842  16.995  0.00  0.00    +0.000 OA
ATOM      4  C   UNL     1       4.099   5.647  17.508  0.00  0.00    +0.000 A 
ATOM      5  C   UNL     1       3.057   5.776  18.454  0.00  0.00    +0.000 A 
ENDROOT
BRANCH   4   6
ATOM      6  C   UNL     1       4.887   4.406  17.103  0.00  0.00    +0.000 C 
ATOM      7  C   UNL     1       6.235   4.210  17.828  0.00  0.00    +0.000 C 
ATOM      8  C   UNL     1       7.327   5.155  17.317  0.00  0.00    +0.000 C 
ATOM      9  N   UNL     1       7.510   4.989  15.870  0.00  0.00    +0.000 NA
ATOM     10  C   UNL     1       6.263   5.280  15.144  0.00  0.00    +0.000 C 
ATOM     11  C   UNL     1       5.126   4.328  15.580  0.00  0.00    +0.000 C 
ATOM     12  H   UNL     1       7.815   4.005  15.665  0.00  0.00    +0.000 HD
ENDBRANCH   4   6
BRANCH   5  13
ATOM     13  C   UNL     1       2.401   4.777  19.376  0.00  0.00    +0.000 A 
ATOM     14  C   UNL     1       1.444   3.865  18.874  0.00  0.00    +0.000 A 
ATOM     15  C   UNL     1       0.829   2.929  19.709  0.00  0.00    +0.000 A 
ATOM     16  C   UNL     1       1.156   2.903  21.059  0.00  0.00    +0.000 A 
ATOM     17  N   UNL     1       2.058   3.783  21.550  0.00  0.00    +0.000 NA
ATOM     18  C   UNL     1       2.679   4.697  20.761  0.00  0.00    +0.000 A 
ENDBRANCH   5  13
BRANCH   1  19
ATOM     19  O   UNL     1       1.860   7.787  19.169  0.00  0.00    +0.000 OA
ATOM     20  H   UNL     1       1.014   8.088  18.814  0.00  0.00    +0.000 HD
ENDBRANCH   1  19
TORSDOF 3
ENDMDL
MODEL 5
REMARK VINA RESULT:      -7.0      1.066      1.101
REMARK  Name = 
REMARK  3 active torsions:
REMARK  status: ('A' for Active; 'I' for Inactive)
REMARK    1  A    between atoms: O_1  and  C_2
REMARK    2  A    between atoms: C_5  and  C_6
REMARK    3  A    between atoms: C_12  and  C_13
REMARK                            x       y       z     vdW  Elec       q    Type
REMARK                         _______ _______ _______ _____ _____    ______ ____
ROOT
ATOM      1  C   UNL     1       2.791   4.697  19.653  0.00  0.00    +0.000 A 
ATOM      2  N   UNL     1       3.681   3.709  19.463  0.00  0.00    +0.000 NA
ATOM      3  O   UNL     1       4.670   4.206  18.775  0.00  0.00    +0.000 OA
ATOM      4  C   UNL     1       4.490   5.486  18.509  0.00  0.00    +0.000 A 
ATOM      5  C   UNL     1       3.252   5.873  19.071  0.00  0.00    +0.000 A 
ENDROOT
BRANCH   4   6
ATOM      6  C   UNL     1       5.489   6.316  17.711  0.00  0.00    +0.000 C 
ATOM      7  C   UNL     1       5.396   6.173  16.177  0.00  0.00    +0.000 C 
ATOM      8  C   UNL     1       5.981   4.852  15.667  0.00  0.00    +0.000 C 
ATOM      9  N   UNL     1       7.378   4.712  16.098  0.00  0.00    +0.000 NA
ATOM     10  C   UNL     1       7.481   4.733  17.566  0.00  0.00    +0.000 C 
ATOM     11  C   UNL     1       6.949   6.063  18.146  0.00  0.00    +0.000 C 
ATOM     12  H   UNL     1       7.950   5.494  15.693  0.00  0.00    +0.000 HD
ENDBRANCH   4   6
BRANCH   5  13
ATOM     13  C   UNL     1       2.503   7.184  19.057  0.00  0.00    +0.000 A 
ATOM     14  C   UNL     1       2.383   7.924  17.858  0.00  0.00    +0.000 A 
ATOM     15  C   UNL     1       1.691   9.136  17.823  0.00  0.00    +0.000 A 
ATOM     16  C   UNL     1       1.119   9.628  18.990  0.00  0.00    +0.000 A 
ATOM     17  N   UNL     1       1.244   8.935  20.145  0.00  0.00    +0.000 NA
ATOM     18  C   UNL     1       1.903   7.749  20.207  0.00  0.00    +0.000 A 
ENDBRANCH   5  13
BRANCH   1  19
ATOM     19  O   UNL     1       1.608   4.514  20.269  0.00  0.00    +0.000 OA
ATOM     20  H   UNL     1       1.062   5.261  20.546  0.00  0.00    +0.000 HD
ENDBRANCH   1  19
TORSDOF 3
ENDMDL
MODEL 6
REMARK VINA RESULT:      -7.0      0.601      1.155
REMARK  Name = 
REMARK  3 active torsions:
REMARK  status: ('A' for Active; 'I' for Inactive)
REMARK    1  A    between atoms: O_1  and  C_2
REMARK    2  A    between atoms: C_5  and  C_6
REMARK    3  A    between atoms: C_12  and  C_13
REMARK                            x       y       z     vdW  Elec       q    Type
REMARK                         _______ _______ _______ _____ _____    ______ ____
ROOT
ATOM      1  C   UNL     1       2.285   4.027  18.096  0.00  0.00    +0.000 A 
ATOM      2  N   UNL     1       2.972   3.097  17.415  0.00  0.00    +0.000 NA
ATOM      3  O   UNL     1       4.012   3.688  16.897  0.00  0.00    +0.000 OA
ATOM      4  C   UNL     1       4.060   4.968  17.213  0.00  0.00    +0.000 A 
ATOM      5  C   UNL     1       2.932   5.256  18.016  0.00  0.00    +0.000 A 
ENDROOT
BRANCH   4   6
ATOM      6  C   UNL     1       5.167   5.901  16.735  0.00  0.00    +0.000 C 
ATOM      7  C   UNL     1       5.759   5.571  15.348  0.00  0.00    +0.000 C 
ATOM      8  C   UNL     1       6.696   4.360  15.375  0.00  0.00    +0.000 C 
ATOM      9  N   UNL     1       7.780   4.573  16.343  0.00  0.00    +0.000 NA
ATOM     10  C   UNL     1       7.244   4.779  17.697  0.00  0.00    +0.000 C 
ATOM     11  C   UNL     1       6.322   6.019  17.753  0.00  0.00    +0.000 C 
ATOM     12  H   UNL     1       8.346   5.410  16.057  0.00  0.00    +0.000 HD
ENDBRANCH   4   6
BRANCH   5  13
ATOM     13  C   UNL     1       2.435   6.539  18.635  0.00  0.00    +0.000 A 
ATOM     14  C   UNL     1       2.123   6.592  20.014  0.00  0.00    +0.000 A 
ATOM     15  C   UNL     1       1.666   7.770  20.607  0.00  0.00    +0.000 A 
ATOM     16  C   UNL     1       1.505   8.908  19.826  0.00  0.00    +0.000 A 
ATOM     17  N   UNL     1       1.784   8.861  18.503  0.00  0.00    +0.000 NA
ATOM     18  C   UNL     1       2.239   7.732  17.901  0.00  0.00    +0.000 A 
ENDBRANCH   5  13
BRANCH   1  19
ATOM     19  O   UNL     1       1.109   3.777  18.703  0.00  0.00    +0.000 OA
ATOM     20  H   UNL     1       0.594   2.985  18.501  0.00  0.00    +0.000 HD
ENDBRANCH   1  19
TORSDOF 3
ENDMDL
MODEL 7
REMARK VINA RESULT:      -7.0      2.155      3.608
REMARK  Name = 
REMARK  3 active torsions:
REMARK  status: ('A' for Active; 'I' for Inactive)
REMARK    1  A    between atoms: O_1  and  C_2
REMARK    2  A    between atoms: C_5  and  C_6
REMARK    3  A    between atoms: C_12  and  C_13
REMARK                            x       y       z     vdW  Elec       q    Type
REMARK                         _______ _______ _______ _____ _____    ______ ____
ROOT
ATOM      1  C   UNL     1       2.744   7.163  18.453  0.00  0.00    +0.000 A 
ATOM      2  N   UNL     1       3.511   7.800  17.553  0.00  0.00    +0.000 NA
ATOM      3  O   UNL     1       4.241   6.897  16.961  0.00  0.00    +0.000 OA
ATOM      4  C   UNL     1       3.986   5.683  17.412  0.00  0.00    +0.000 A 
ATOM      5  C   UNL     1       2.991   5.795  18.411  0.00  0.00    +0.000 A 
ENDROOT
BRANCH   4   6
ATOM      6  C   UNL     1       4.701   4.439  16.898  0.00  0.00    +0.000 C 
ATOM      7  C   UNL     1       5.788   3.865  17.833  0.00  0.00    +0.000 C 
ATOM      8  C   UNL     1       7.076   4.694  17.826  0.00  0.00    +0.000 C 
ATOM      9  N   UNL     1       7.602   4.808  16.460  0.00  0.00    +0.000 NA
ATOM     10  C   UNL     1       6.625   5.456  15.571  0.00  0.00    +0.000 C 
ATOM     11  C   UNL     1       5.312   4.644  15.495  0.00  0.00    +0.000 C 
ATOM     12  H   UNL     1       7.833   3.852  16.092  0.00  0.00    +0.000 HD
ENDBRANCH   4   6
BRANCH   5  13
ATOM     13  C   UNL     1       2.335   4.768  19.301  0.00  0.00    +0.000 A 
ATOM     14  C   UNL     1       2.694   4.674  20.666  0.00  0.00    +0.000 A 
ATOM     15  C   UNL     1       2.095   3.734  21.508  0.00  0.00    +0.000 A 
ATOM     16  C   UNL     1       1.138   2.870  20.991  0.00  0.00    +0.000 A 
ATOM     17  N   UNL     1       0.802   2.942  19.684  0.00  0.00    +0.000 NA
ATOM     18  C   UNL     1       1.359   3.851  18.844  0.00  0.00    +0.000 A 
ENDBRANCH   5  13
BRANCH   1  19
ATOM     19  O   UNL     1       1.914   7.804  19.297  0.00  0.00    +0.000 OA
ATOM     20  H   UNL     1       2.221   8.530  19.855  0.00  0.00    +0.000 HD
ENDBRANCH   1  19
TORSDOF 3
ENDMDL
MODEL 8
REMARK VINA RESULT:      -7.0      2.000      5.377
REMARK  Name = 
REMARK  3 active torsions:
REMARK  status: ('A' for Active; 'I' for Inactive)
REMARK    1  A    between atoms: O_1  and  C_2
REMARK    2  A    between atoms: C_5  and  C_6
REMARK    3  A    between atoms: C_12  and  C_13
REMARK                            x       y       z     vdW  Elec       q    Type
REMARK                         _______ _______ _______ _____ _____    ______ ____
ROOT
ATOM      1  C   UNL     1       3.166   6.944  18.567  0.00  0.00    +0.000 A 
ATOM      2  N   UNL     1       2.131   7.019  19.419  0.00  0.00    +0.000 NA
ATOM      3  O   UNL     1       2.040   5.864  20.017  0.00  0.00    +0.000 OA
ATOM      4  C   UNL     1       2.977   5.025  19.615  0.00  0.00    +0.000 A 
ATOM      5  C   UNL     1       3.762   5.690  18.646  0.00  0.00    +0.000 A 
ENDROOT
BRANCH   4   6
ATOM      6  C   UNL     1       3.100   3.602  20.146  0.00  0.00    +0.000 C 
ATOM      7  C   UNL     1       3.700   2.576  19.160  0.00  0.00    +0.000 C 
ATOM      8  C   UNL     1       2.714   2.157  18.065  0.00  0.00    +0.000 C 
ATOM      9  N   UNL     1       1.487   1.615  18.663  0.00  0.00    +0.000 NA
ATOM     10  C   UNL     1       0.834   2.616  19.521  0.00  0.00    +0.000 C 
ATOM     11  C   UNL     1       1.760   3.051  20.680  0.00  0.00    +0.000 C 
ATOM     12  H   UNL     1       1.720   0.762  19.230  0.00  0.00    +0.000 HD
ENDBRANCH   4   6
BRANCH   5  13
ATOM     13  C   UNL     1       4.935   5.235  17.812  0.00  0.00    +0.000 A 
ATOM     14  C   UNL     1       6.233   5.186  18.373  0.00  0.00    +0.000 A 
ATOM     15  C   UNL     1       7.330   4.763  17.620  0.00  0.00    +0.000 A 
ATOM     16  C   UNL     1       7.144   4.395  16.293  0.00  0.00    +0.000 A 
ATOM     17  N   UNL     1       5.910   4.455  15.744  0.00  0.00    +0.000 NA
ATOM     18  C   UNL     1       4.823   4.853  16.455  0.00  0.00    +0.000 A 
ENDBRANCH   5  13
BRANCH   1  19
ATOM     19  O   UNL     1       3.503   7.943  17.729  0.00  0.00    +0.000 OA
ATOM     20  H   UNL     1       3.111   8.020  16.850  0.00  0.00    +0.000 HD
ENDBRANCH   1  19
TORSDOF 3
ENDMDL
MODEL 9
REMARK VINA RESULT:      -6.9      2.316      3.718
REMARK  Name = 
REMARK  3 active torsions:
REMARK  status: ('A' for Active; 'I' for Inactive)
REMARK    1  A    between atoms: O_1  and  C_2
REMARK    2  A    between atoms: C_5  and  C_6
REMARK    3  A    between atoms: C_12  and  C_13
REMARK                            x       y       z     vdW  Elec       q    Type
REMARK                         _______ _______ _______ _____ _____    ______ ____
ROOT
ATOM      1  C   UNL     1       2.215   7.406  19.248  0.00  0.00    +0.000 A 
ATOM      2  N   UNL     1       2.779   8.231  18.352  0.00  0.00    +0.000 NA
ATOM      3  O   UNL     1       3.495   7.497  17.548  0.00  0.00    +0.000 OA
ATOM      4  C   UNL     1       3.424   6.215  17.856  0.00  0.00    +0.000 A 
ATOM      5  C   UNL     1       2.581   6.090  18.984  0.00  0.00    +0.000 A 
ENDROOT
BRANCH   4   6
ATOM      6  C   UNL     1       4.170   5.133  17.084  0.00  0.00    +0.000 C 
ATOM      7  C   UNL     1       4.877   4.069  17.950  0.00  0.00    +0.000 C 
ATOM      8  C   UNL     1       6.164   4.590  18.599  0.00  0.00    +0.000 C 
ATOM      9  N   UNL     1       7.086   5.093  17.573  0.00  0.00    +0.000 NA
ATOM     10  C   UNL     1       6.473   6.188  16.805  0.00  0.00    +0.000 C 
ATOM     11  C   UNL     1       5.190   5.717  16.083  0.00  0.00    +0.000 C 
ATOM     12  H   UNL     1       7.348   4.310  16.923  0.00  0.00    +0.000 HD
ENDBRANCH   4   6
BRANCH   5  13
ATOM     13  C   UNL     1       2.162   4.893  19.803  0.00  0.00    +0.000 A 
ATOM     14  C   UNL     1       1.316   3.907  19.243  0.00  0.00    +0.000 A 
ATOM     15  C   UNL     1       0.920   2.791  19.981  0.00  0.00    +0.000 A 
ATOM     16  C   UNL     1       1.356   2.652  21.293  0.00  0.00    +0.000 A 
ATOM     17  N   UNL     1       2.151   3.599  21.842  0.00  0.00    +0.000 NA
ATOM     18  C   UNL     1       2.560   4.691  21.145  0.00  0.00    +0.000 A 
ENDBRANCH   5  13
BRANCH   1  19
ATOM     19  O   UNL     1       1.461   7.840  20.276  0.00  0.00    +0.000 OA
ATOM     20  H   UNL     1       1.059   7.225  20.903  0.00  0.00    +0.000 HD
ENDBRANCH   1  19
TORSDOF 3
ENDMDL
