MODEL 1
REMARK VINA RESULT:      -8.1      0.000      0.000
REMARK  Name = 
REMARK  6 active torsions:
REMARK  status: ('A' for Active; 'I' for Inactive)
REMARK    1  A    between atoms: C_1  and  C_2
REMARK    2  A    between atoms: C_7  and  C_8
REMARK    3  A    between atoms: C_8  and  C_9
REMARK    4  A    between atoms: C_9  and  N_10
REMARK    5  A    between atoms: C_11  and  C_13
REMARK    6  A    between atoms: C_18  and  O_19
REMARK                            x       y       z     vdW  Elec       q    Type
REMARK                         _______ _______ _______ _____ _____    ______ ____
ROOT
ATOM      1  C   UNL     1       1.203   2.331  21.051  0.00  0.00    +0.000 C 
ATOM      2  C   UNL     1       1.943   3.102  20.003  0.00  0.00    +0.000 A 
ATOM      3  C   UNL     1       1.257   3.791  19.003  0.00  0.00    +0.000 A 
ATOM      4  C   UNL     1       1.965   4.510  18.053  0.00  0.00    +0.000 A 
ATOM      5  C   UNL     1       3.367   4.526  18.089  0.00  0.00    +0.000 A 
ATOM      6  C   UNL     1       4.090   5.220  17.125  0.00  0.00    +0.000 A 
ATOM      7  C   UNL     1       5.487   5.246  17.144  0.00  0.00    +0.000 A 
ATOM      8  C   UNL     1       6.098   4.507  18.153  0.00  0.00    +0.000 A 
ATOM      9  N   UNL     1       5.428   3.836  19.114  0.00  0.00    +0.000 NA
ATOM     10  C   UNL     1       4.083   3.842  19.083  0.00  0.00    +0.000 A 
ATOM     11  C   UNL     1       3.348   3.149  20.034  0.00  0.00    +0.000 A 
ENDROOT
BRANCH   8  12
ATOM     12  O   UNL     1       7.450   4.382  18.260  0.00  0.00    +0.000 OA
ATOM     13  H   UNL     1       7.737   4.777  19.093  0.00  0.00    +0.000 HD
ENDBRANCH   8  12
BRANCH   7  14
ATOM     14  C   UNL     1       6.238   5.978  16.056  0.00  0.00    +0.000 C 
BRANCH  14  15
ATOM     15  C   UNL     1       7.274   5.106  15.320  0.00  0.00    +0.000 C 
BRANCH  15  16
ATOM     16  N   UNL     1       6.750   4.421  14.159  0.00  0.00    +0.000 N 
ATOM     17  C   UNL     1       7.305   4.677  12.920  0.00  0.00    +0.000 C 
ATOM     18  O   UNL     1       8.125   5.563  12.724  0.00  0.00    +0.000 OA
ATOM     19  H   UNL     1       6.320   3.517  14.303  0.00  0.00    +0.000 HD
BRANCH  17  20
ATOM     20  C   UNL     1       6.780   3.777  11.823  0.00  0.00    +0.000 C 
ATOM     21  C   UNL     1       7.677   2.566  11.597  0.00  0.00    +0.000 C 
ATOM     22  C   UNL     1       6.791   1.601  10.830  0.00  0.00    +0.000 C 
ATOM     23  C   UNL     1       5.366   1.887  11.299  0.00  0.00    +0.000 C 
ATOM     24  C   UNL     1       5.437   3.138  12.170  0.00  0.00    +0.000 C 
ENDBRANCH  17  20
ENDBRANCH  15  16
ENDBRANCH  14  15
ENDBRANCH   7  14
TORSDOF 5
ENDMDL
MODEL 2
REMARK VINA RESULT:      -7.9      3.936      7.192
REMARK  Name = 
REMARK  6 active torsions:
REMARK  status: ('A' for Active; 'I' for Inactive)
REMARK    1  A    between atoms: C_1  and  C_2
REMARK    2  A    between atoms: C_7  and  C_8
REMARK    3  A    between atoms: C_8  and  C_9
REMARK    4  A    between atoms: C_9  and  N_10
REMARK    5  A    between atoms: C_11  and  C_13
REMARK    6  A    between atoms: C_18  and  O_19
REMARK                            x       y       z     vdW  Elec       q    Type
REMARK                         _______ _______ _______ _____ _____    ______ ____
ROOT
ATOM      1  C   UNL     1       7.813   7.950  17.547  0.00  0.00    +0.000 C 
ATOM      2  C   UNL     1       6.822   6.835  17.421  0.00  0.00    +0.000 A 
ATOM      3  C   UNL     1       6.007   6.725  16.294  0.00  0.00    +0.000 A 
ATOM      4  C   UNL     1       5.108   5.675  16.196  0.00  0.00    +0.000 A 
ATOM      5  C   UNL     1       5.006   4.741  17.237  0.00  0.00    +0.000 A 
ATOM      6  C   UNL     1       4.088   3.699  17.163  0.00  0.00    +0.000 A 
ATOM      7  C   UNL     1       3.971   2.759  18.190  0.00  0.00    +0.000 A 
ATOM      8  C   UNL     1       4.795   2.958  19.295  0.00  0.00    +0.000 A 
ATOM      9  N   UNL     1       5.708   3.946  19.393  0.00  0.00    +0.000 NA
ATOM     10  C   UNL     1       5.812   4.827  18.382  0.00  0.00    +0.000 A 
ATOM     11  C   UNL     1       6.720   5.875  18.443  0.00  0.00    +0.000 A 
ENDROOT
BRANCH   8  12
ATOM     12  O   UNL     1       4.747   2.165  20.402  0.00  0.00    +0.000 OA
ATOM     13  H   UNL     1       5.288   1.379  20.249  0.00  0.00    +0.000 HD
ENDBRANCH   8  12
BRANCH   7  14
ATOM     14  C   UNL     1       2.934   1.666  18.092  0.00  0.00    +0.000 C 
BRANCH  14  15
ATOM     15  C   UNL     1       1.573   2.041  18.710  0.00  0.00    +0.000 C 
BRANCH  15  16
ATOM     16  N   UNL     1       1.288   3.458  18.692  0.00  0.00    +0.000 N 
ATOM     17  C   UNL     1       1.402   4.183  19.863  0.00  0.00    +0.000 C 
ATOM     18  O   UNL     1       1.593   3.665  20.954  0.00  0.00    +0.000 OA
ATOM     19  H   UNL     1       1.423   3.952  17.819  0.00  0.00    +0.000 HD
BRANCH  17  20
ATOM     20  C   UNL     1       1.239   5.675  19.671  0.00  0.00    +0.000 C 
ATOM     21  C   UNL     1       1.637   6.459  20.916  0.00  0.00    +0.000 C 
ATOM     22  C   UNL     1       1.838   7.873  20.401  0.00  0.00    +0.000 C 
ATOM     23  C   UNL     1       2.306   7.723  18.955  0.00  0.00    +0.000 C 
ATOM     24  C   UNL     1       2.172   6.243  18.605  0.00  0.00    +0.000 C 
ENDBRANCH  17  20
ENDBRANCH  15  16
ENDBRANCH  14  15
ENDBRANCH   7  14
TORSDOF 5
ENDMDL
MODEL 3
REMARK VINA RESULT:      -7.9      3.866      5.684
REMARK  Name = 
REMARK  6 active torsions:
REMARK  status: ('A' for Active; 'I' for Inactive)
REMARK    1  A    between atoms: C_1  and  C_2
REMARK    2  A    between atoms: C_7  and  C_8
REMARK    3  A    between atoms: C_8  and  C_9
REMARK    4  A    between atoms: C_9  and  N_10
REMARK    5  A    between atoms: C_11  and  C_13
REMARK    6  A    between atoms: C_18  and  O_19
REMARK                            x       y       z     vdW  Elec       q    Type
REMARK                         _______ _______ _______ _____ _____    ______ ____
ROOT
ATOM      1  C   UNL     1       0.978   9.866  21.309  0.00  0.00    +0.000 C 
ATOM      2  C   UNL     1       1.370   8.747  20.395  0.00  0.00    +0.000 A 
ATOM      3  C   UNL     1       1.659   8.986  19.052  0.00  0.00    +0.000 A 
ATOM      4  C   UNL     1       2.034   7.935  18.231  0.00  0.00    +0.000 A 
ATOM      5  C   UNL     1       2.103   6.633  18.748  0.00  0.00    +0.000 A 
ATOM      6  C   UNL     1       2.451   5.565  17.928  0.00  0.00    +0.000 A 
ATOM      7  C   UNL     1       2.523   4.261  18.425  0.00  0.00    +0.000 A 
ATOM      8  C   UNL     1       2.188   4.100  19.766  0.00  0.00    +0.000 A 
ATOM      9  N   UNL     1       1.863   5.115  20.595  0.00  0.00    +0.000 NA
ATOM     10  C   UNL     1       1.817   6.363  20.095  0.00  0.00    +0.000 A 
ATOM     11  C   UNL     1       1.467   7.438  20.900  0.00  0.00    +0.000 A 
ENDROOT
BRANCH   8  12
ATOM     12  O   UNL     1       2.147   2.882  20.375  0.00  0.00    +0.000 OA
ATOM     13  H   UNL     1       2.323   2.996  21.318  0.00  0.00    +0.000 HD
ENDBRANCH   8  12
BRANCH   7  14
ATOM     14  C   UNL     1       2.865   3.122  17.494  0.00  0.00    +0.000 C 
BRANCH  14  15
ATOM     15  C   UNL     1       4.367   2.780  17.455  0.00  0.00    +0.000 C 
BRANCH  15  16
ATOM     16  N   UNL     1       5.224   3.916  17.196  0.00  0.00    +0.000 N 
ATOM     17  C   UNL     1       5.985   4.434  18.227  0.00  0.00    +0.000 C 
ATOM     18  O   UNL     1       5.867   4.076  19.391  0.00  0.00    +0.000 OA
ATOM     19  H   UNL     1       5.568   4.038  16.253  0.00  0.00    +0.000 HD
BRANCH  17  20
ATOM     20  C   UNL     1       6.955   5.508  17.785  0.00  0.00    +0.000 C 
ATOM     21  C   UNL     1       6.239   6.773  17.328  0.00  0.00    +0.000 C 
ATOM     22  C   UNL     1       7.325   7.833  17.365  0.00  0.00    +0.000 C 
ATOM     23  C   UNL     1       8.279   7.408  18.480  0.00  0.00    +0.000 C 
ATOM     24  C   UNL     1       7.837   6.015  18.923  0.00  0.00    +0.000 C 
ENDBRANCH  17  20
ENDBRANCH  15  16
ENDBRANCH  14  15
ENDBRANCH   7  14
TORSDOF 5
ENDMDL
MODEL 4
REMARK VINA RESULT:      -7.7      4.726      6.968
REMARK  Name = 
REMARK  6 active torsions:
REMARK  status: ('A' for Active; 'I' for Inactive)
REMARK    1  A    between atoms: C_1  and  C_2
REMARK    2  A    between atoms: C_7  and  C_8
REMARK    3  A    between atoms: C_8  and  C_9
REMARK    4  A    between atoms: C_9  and  N_10
REMARK    5  A    between atoms: C_11  and  C_13
REMARK    6  A    between atoms: C_18  and  O_19
REMARK                            x       y       z     vdW  Elec       q    Type
REMARK                         _______ _______ _______ _____ _____    ______ ____
ROOT
ATOM      1  C   UNL     1       0.998   3.743  20.257  0.00  0.00    +0.000 C 
ATOM      2  C   UNL     1       2.079   4.541  19.598  0.00  0.00    +0.000 A 
ATOM      3  C   UNL     1       1.770   5.557  18.695  0.00  0.00    +0.000 A 
ATOM      4  C   UNL     1       2.789   6.291  18.109  0.00  0.00    +0.000 A 
ATOM      5  C   UNL     1       4.127   5.996  18.410  0.00  0.00    +0.000 A 
ATOM      6  C   UNL     1       5.159   6.707  17.809  0.00  0.00    +0.000 A 
ATOM      7  C   UNL     1       6.498   6.426  18.095  0.00  0.00    +0.000 A 
ATOM      8  C   UNL     1       6.725   5.376  18.980  0.00  0.00    +0.000 A 
ATOM      9  N   UNL     1       5.748   4.677  19.596  0.00  0.00    +0.000 NA
ATOM     10  C   UNL     1       4.467   4.979  19.314  0.00  0.00    +0.000 A 
ATOM     11  C   UNL     1       3.426   4.276  19.904  0.00  0.00    +0.000 A 
ENDROOT
BRANCH   8  12
ATOM     12  O   UNL     1       7.975   4.942  19.304  0.00  0.00    +0.000 OA
ATOM     13  H   UNL     1       8.584   5.691  19.280  0.00  0.00    +0.000 HD
ENDBRANCH   8  12
BRANCH   7  14
ATOM     14  C   UNL     1       7.592   7.192  17.390  0.00  0.00    +0.000 C 
BRANCH  14  15
ATOM     15  C   UNL     1       8.385   8.137  18.314  0.00  0.00    +0.000 C 
BRANCH  15  16
ATOM     16  N   UNL     1       8.460   9.500  17.837  0.00  0.00    +0.000 N 
ATOM     17  C   UNL     1       8.990  10.474  18.663  0.00  0.00    +0.000 C 
ATOM     18  O   UNL     1       9.269  10.275  19.837  0.00  0.00    +0.000 OA
ATOM     19  H   UNL     1       8.528   9.644  16.838  0.00  0.00    +0.000 HD
BRANCH  17  20
ATOM     20  C   UNL     1       9.162  11.816  17.985  0.00  0.00    +0.000 C 
ATOM     21  C   UNL     1       8.982  12.975  18.958  0.00  0.00    +0.000 C 
ATOM     22  C   UNL     1       9.617  14.151  18.237  0.00  0.00    +0.000 C 
ATOM     23  C   UNL     1      10.727  13.555  17.373  0.00  0.00    +0.000 C 
ATOM     24  C   UNL     1      10.578  12.038  17.459  0.00  0.00    +0.000 C 
ENDBRANCH  17  20
ENDBRANCH  15  16
ENDBRANCH  14  15
ENDBRANCH   7  14
TORSDOF 5
ENDMDL
MODEL 5
REMARK VINA RESULT:      -7.7      3.145      5.235
REMARK  Name = 
REMARK  6 active torsions:
REMARK  status: ('A' for Active; 'I' for Inactive)
REMARK    1  A    between atoms: C_1  and  C_2
REMARK    2  A    between atoms: C_7  and  C_8
REMARK    3  A    between atoms: C_8  and  C_9
REMARK    4  A    between atoms: C_9  and  N_10
REMARK    5  A    between atoms: C_11  and  C_13
REMARK    6  A    between atoms: C_18  and  O_19
REMARK                            x       y       z     vdW  Elec       q    Type
REMARK                         _______ _______ _______ _____ _____    ______ ____
ROOT
ATOM      1  C   UNL     1       0.891   9.639  20.935  0.00  0.00    +0.000 C 
ATOM      2  C   UNL     1       1.413   8.436  20.214  0.00  0.00    +0.000 A 
ATOM      3  C   UNL     1       1.806   8.516  18.878  0.00  0.00    +0.000 A 
ATOM      4  C   UNL     1       2.300   7.391  18.237  0.00  0.00    +0.000 A 
ATOM      5  C   UNL     1       2.383   6.173  18.927  0.00  0.00    +0.000 A 
ATOM      6  C   UNL     1       2.850   5.030  18.288  0.00  0.00    +0.000 A 
ATOM      7  C   UNL     1       2.939   3.807  18.958  0.00  0.00    +0.000 A 
ATOM      8  C   UNL     1       2.496   3.801  20.277  0.00  0.00    +0.000 A 
ATOM      9  N   UNL     1       2.053   4.894  20.934  0.00  0.00    +0.000 NA
ATOM     10  C   UNL     1       1.994   6.062  20.271  0.00  0.00    +0.000 A 
ATOM     11  C   UNL     1       1.525   7.210  20.894  0.00  0.00    +0.000 A 
ENDROOT
BRANCH   8  12
ATOM     12  O   UNL     1       2.458   2.671  21.037  0.00  0.00    +0.000 OA
ATOM     13  H   UNL     1       1.777   2.081  20.690  0.00  0.00    +0.000 HD
ENDBRANCH   8  12
BRANCH   7  14
ATOM     14  C   UNL     1       3.412   2.579  18.217  0.00  0.00    +0.000 C 
BRANCH  14  15
ATOM     15  C   UNL     1       4.371   2.887  17.050  0.00  0.00    +0.000 C 
BRANCH  15  16
ATOM     16  N   UNL     1       5.466   3.763  17.402  0.00  0.00    +0.000 N 
ATOM     17  C   UNL     1       6.224   4.331  16.396  0.00  0.00    +0.000 C 
ATOM     18  O   UNL     1       6.112   4.021  15.218  0.00  0.00    +0.000 OA
ATOM     19  H   UNL     1       5.404   4.260  18.281  0.00  0.00    +0.000 HD
BRANCH  17  20
ATOM     20  C   UNL     1       7.226   5.350  16.893  0.00  0.00    +0.000 C 
ATOM     21  C   UNL     1       6.695   6.775  16.786  0.00  0.00    +0.000 C 
ATOM     22  C   UNL     1       7.602   7.567  17.711  0.00  0.00    +0.000 C 
ATOM     23  C   UNL     1       8.026   6.592  18.807  0.00  0.00    +0.000 C 
ATOM     24  C   UNL     1       7.521   5.215  18.384  0.00  0.00    +0.000 C 
ENDBRANCH  17  20
ENDBRANCH  15  16
ENDBRANCH  14  15
ENDBRANCH   7  14
TORSDOF 5
ENDMDL
MODEL 6
REMARK VINA RESULT:      -7.5      0.892      1.248
REMARK  Name = 
REMARK  6 active torsions:
REMARK  status: ('A' for Active; 'I' for Inactive)
REMARK    1  A    between atoms: C_1  and  C_2
REMARK    2  A    between atoms: C_7  and  C_8
REMARK    3  A    between atoms: C_8  and  C_9
REMARK    4  A    between atoms: C_9  and  N_10
REMARK    5  A    between atoms: C_11  and  C_13
REMARK    6  A    between atoms: C_18  and  O_19
REMARK                            x       y       z     vdW  Elec       q    Type
REMARK                         _______ _______ _______ _____ _____    ______ ____
ROOT
ATOM      1  C   UNL     1       0.940   2.824  21.122  0.00  0.00    +0.000 C 
ATOM      2  C   UNL     1       1.768   3.557  20.113  0.00  0.00    +0.000 A 
ATOM      3  C   UNL     1       1.239   3.908  18.871  0.00  0.00    +0.000 A 
ATOM      4  C   UNL     1       2.022   4.600  17.960  0.00  0.00    +0.000 A 
ATOM      5  C   UNL     1       3.348   4.925  18.282  0.00  0.00    +0.000 A 
ATOM      6  C   UNL     1       4.152   5.594  17.366  0.00  0.00    +0.000 A 
ATOM      7  C   UNL     1       5.476   5.926  17.668  0.00  0.00    +0.000 A 
ATOM      8  C   UNL     1       5.939   5.512  18.913  0.00  0.00    +0.000 A 
ATOM      9  N   UNL     1       5.182   4.877  19.833  0.00  0.00    +0.000 NA
ATOM     10  C   UNL     1       3.906   4.584  19.523  0.00  0.00    +0.000 A 
ATOM     11  C   UNL     1       3.093   3.913  20.425  0.00  0.00    +0.000 A 
ENDROOT
BRANCH   8  12
ATOM     12  O   UNL     1       7.225   5.703  19.322  0.00  0.00    +0.000 OA
ATOM     13  H   UNL     1       7.798   5.745  18.547  0.00  0.00    +0.000 HD
ENDBRANCH   8  12
BRANCH   7  14
ATOM     14  C   UNL     1       6.330   6.616  16.632  0.00  0.00    +0.000 C 
BRANCH  14  15
ATOM     15  C   UNL     1       7.250   5.661  15.846  0.00  0.00    +0.000 C 
BRANCH  15  16
ATOM     16  N   UNL     1       6.542   4.672  15.064  0.00  0.00    +0.000 N 
ATOM     17  C   UNL     1       6.827   4.550  13.717  0.00  0.00    +0.000 C 
ATOM     18  O   UNL     1       7.545   5.334  13.111  0.00  0.00    +0.000 OA
ATOM     19  H   UNL     1       6.196   3.853  15.546  0.00  0.00    +0.000 HD
BRANCH  17  20
ATOM     20  C   UNL     1       6.141   3.374  13.056  0.00  0.00    +0.000 C 
ATOM     21  C   UNL     1       4.882   3.793  12.306  0.00  0.00    +0.000 C 
ATOM     22  C   UNL     1       4.611   2.623  11.378  0.00  0.00    +0.000 C 
ATOM     23  C   UNL     1       5.980   2.026  11.055  0.00  0.00    +0.000 C 
ATOM     24  C   UNL     1       6.986   2.734  11.958  0.00  0.00    +0.000 C 
ENDBRANCH  17  20
ENDBRANCH  15  16
ENDBRANCH  14  15
ENDBRANCH   7  14
TORSDOF 5
ENDMDL
MODEL 7
REMARK VINA RESULT:      -7.5      5.101      7.334
REMARK  Name = 
REMARK  6 active torsions:
REMARK  status: ('A' for Active; 'I' for Inactive)
REMARK    1  A    between atoms: C_1  and  C_2
REMARK    2  A    between atoms: C_7  and  C_8
REMARK    3  A    between atoms: C_8  and  C_9
REMARK    4  A    between atoms: C_9  and  N_10
REMARK    5  A    between atoms: C_11  and  C_13
REMARK    6  A    between atoms: C_18  and  O_19
REMARK                            x       y       z     vdW  Elec       q    Type
REMARK                         _______ _______ _______ _____ _____    ______ ____
ROOT
ATOM      1  C   UNL     1       2.620   2.065  19.065  0.00  0.00    +0.000 C 
ATOM      2  C   UNL     1       3.455   3.211  18.584  0.00  0.00    +0.000 A 
ATOM      3  C   UNL     1       3.045   3.991  17.503  0.00  0.00    +0.000 A 
ATOM      4  C   UNL     1       3.829   5.056  17.087  0.00  0.00    +0.000 A 
ATOM      5  C   UNL     1       5.040   5.331  17.740  0.00  0.00    +0.000 A 
ATOM      6  C   UNL     1       5.849   6.378  17.315  0.00  0.00    +0.000 A 
ATOM      7  C   UNL     1       7.059   6.667  17.952  0.00  0.00    +0.000 A 
ATOM      8  C   UNL     1       7.413   5.822  19.000  0.00  0.00    +0.000 A 
ATOM      9  N   UNL     1       6.645   4.807  19.450  0.00  0.00    +0.000 NA
ATOM     10  C   UNL     1       5.477   4.562  18.829  0.00  0.00    +0.000 A 
ATOM     11  C   UNL     1       4.661   3.517  19.240  0.00  0.00    +0.000 A 
ENDROOT
BRANCH   8  12
ATOM     12  O   UNL     1       8.592   5.935  19.672  0.00  0.00    +0.000 OA
ATOM     13  H   UNL     1       9.064   6.714  19.351  0.00  0.00    +0.000 HD
ENDBRANCH   8  12
BRANCH   7  14
ATOM     14  C   UNL     1       7.930   7.787  17.435  0.00  0.00    +0.000 C 
BRANCH  14  15
ATOM     15  C   UNL     1       8.303   8.830  18.506  0.00  0.00    +0.000 C 
BRANCH  15  16
ATOM     16  N   UNL     1       8.557  10.152  17.978  0.00  0.00    +0.000 N 
ATOM     17  C   UNL     1       9.517  10.944  18.579  0.00  0.00    +0.000 C 
ATOM     18  O   UNL     1      10.069  10.646  19.628  0.00  0.00    +0.000 OA
ATOM     19  H   UNL     1       8.365  10.310  16.997  0.00  0.00    +0.000 HD
BRANCH  17  20
ATOM     20  C   UNL     1       9.798  12.230  17.831  0.00  0.00    +0.000 C 
ATOM     21  C   UNL     1       8.883  13.364  18.278  0.00  0.00    +0.000 C 
ATOM     22  C   UNL     1       9.588  14.612  17.779  0.00  0.00    +0.000 C 
ATOM     23  C   UNL     1      11.079  14.280  17.799  0.00  0.00    +0.000 C 
ATOM     24  C   UNL     1      11.189  12.790  18.115  0.00  0.00    +0.000 C 
ENDBRANCH  17  20
ENDBRANCH  15  16
ENDBRANCH  14  15
ENDBRANCH   7  14
TORSDOF 5
ENDMDL
MODEL 8
REMARK VINA RESULT:      -7.5      4.836      7.123
REMARK  Name = 
REMARK  6 active torsions:
REMARK  status: ('A' for Active; 'I' for Inactive)
REMARK    1  A    between atoms: C_1  and  C_2
REMARK    2  A    between atoms: C_7  and  C_8
REMARK    3  A    between atoms: C_8  and  C_9
REMARK    4  A    between atoms: C_9  and  N_10
REMARK    5  A    between atoms: C_11  and  C_13
REMARK    6  A    between atoms: C_18  and  O_19
REMARK                            x       y       z     vdW  Elec       q    Type
REMARK                         _______ _______ _______ _____ _____    ______ ____
ROOT
ATOM      1  C   UNL     1       1.303   3.040  18.183  0.00  0.00    +0.000 C 
ATOM      2  C   UNL     1       2.505   3.924  18.309  0.00  0.00    +0.000 A 
ATOM      3  C   UNL     1       2.678   4.742  19.425  0.00  0.00    +0.000 A 
ATOM      4  C   UNL     1       3.808   5.539  19.525  0.00  0.00    +0.000 A 
ATOM      5  C   UNL     1       4.760   5.536  18.495  0.00  0.00    +0.000 A 
ATOM      6  C   UNL     1       5.883   6.351  18.570  0.00  0.00    +0.000 A 
ATOM      7  C   UNL     1       6.842   6.363  17.554  0.00  0.00    +0.000 A 
ATOM      8  C   UNL     1       6.580   5.545  16.459  0.00  0.00    +0.000 A 
ATOM      9  N   UNL     1       5.510   4.727  16.361  0.00  0.00    +0.000 NA
ATOM     10  C   UNL     1       4.611   4.723  17.361  0.00  0.00    +0.000 A 
ATOM     11  C   UNL     1       3.483   3.918  17.299  0.00  0.00    +0.000 A 
ENDROOT
BRANCH   8  12
ATOM     12  O   UNL     1       7.387   5.499  15.362  0.00  0.00    +0.000 OA
ATOM     13  H   UNL     1       8.252   5.159  15.623  0.00  0.00    +0.000 HD
ENDBRANCH   8  12
BRANCH   7  14
ATOM     14  C   UNL     1       8.028   7.293  17.652  0.00  0.00    +0.000 C 
BRANCH  14  15
ATOM     15  C   UNL     1       7.646   8.786  17.692  0.00  0.00    +0.000 C 
BRANCH  15  16
ATOM     16  N   UNL     1       8.682   9.645  18.221  0.00  0.00    +0.000 N 
ATOM     17  C   UNL     1       8.603  11.007  18.004  0.00  0.00    +0.000 C 
ATOM     18  O   UNL     1       7.777  11.519  17.261  0.00  0.00    +0.000 OA
ATOM     19  H   UNL     1       9.177   9.330  19.045  0.00  0.00    +0.000 HD
BRANCH  17  20
ATOM     20  C   UNL     1       9.654  11.803  18.747  0.00  0.00    +0.000 C 
ATOM     21  C   UNL     1       9.737  11.408  20.216  0.00  0.00    +0.000 C 
ATOM     22  C   UNL     1      11.085  11.950  20.658  0.00  0.00    +0.000 C 
ATOM     23  C   UNL     1      11.975  11.905  19.417  0.00  0.00    +0.000 C 
ATOM     24  C   UNL     1      11.070  11.530  18.246  0.00  0.00    +0.000 C 
ENDBRANCH  17  20
ENDBRANCH  15  16
ENDBRANCH  14  15
ENDBRANCH   7  14
TORSDOF 5
ENDMDL
MODEL 9
REMARK VINA RESULT:      -7.4      5.134      7.680
REMARK  Name = 
REMARK  6 active torsions:
REMARK  status: ('A' for Active; 'I' for Inactive)
REMARK    1  A    between atoms: C_1  and  C_2
REMARK    2  A    between atoms: C_7  and  C_8
REMARK    3  A    between atoms: C_8  and  C_9
REMARK    4  A    between atoms: C_9  and  N_10
REMARK    5  A    between atoms: C_11  and  C_13
REMARK    6  A    between atoms: C_18  and  O_19
REMARK                            x       y       z     vdW  Elec       q    Type
REMARK                         _______ _______ _______ _____ _____    ______ ____
ROOT
ATOM      1  C   UNL     1      -1.444  11.219  23.266  0.00  0.00    +0.000 C 
ATOM      2  C   UNL     1      -0.653  10.416  22.279  0.00  0.00    +0.000 A 
ATOM      3  C   UNL     1      -0.437   9.053  22.475  0.00  0.00    +0.000 A 
ATOM      4  C   UNL     1       0.286   8.330  21.539  0.00  0.00    +0.000 A 
ATOM      5  C   UNL     1       0.813   8.976  20.411  0.00  0.00    +0.000 A 
ATOM      6  C   UNL     1       1.564   8.267  19.479  0.00  0.00    +0.000 A 
ATOM      7  C   UNL     1       2.099   8.894  18.350  0.00  0.00    +0.000 A 
ATOM      8  C   UNL     1       1.867  10.262  18.245  0.00  0.00    +0.000 A 
ATOM      9  N   UNL     1       1.130  10.977  19.120  0.00  0.00    +0.000 NA
ATOM     10  C   UNL     1       0.612  10.346  20.189  0.00  0.00    +0.000 A 
ATOM     11  C   UNL     1      -0.135  11.040  21.130  0.00  0.00    +0.000 A 
ENDROOT
BRANCH   8  12
ATOM     12  O   UNL     1       2.381  11.021  17.237  0.00  0.00    +0.000 OA
ATOM     13  H   UNL     1       2.867  10.450  16.629  0.00  0.00    +0.000 HD
ENDBRANCH   8  12
BRANCH   7  14
ATOM     14  C   UNL     1       2.943   8.099  17.382  0.00  0.00    +0.000 C 
BRANCH  14  15
ATOM     15  C   UNL     1       3.886   7.088  18.062  0.00  0.00    +0.000 C 
BRANCH  15  16
ATOM     16  N   UNL     1       3.261   5.825  18.386  0.00  0.00    +0.000 N 
ATOM     17  C   UNL     1       3.837   5.016  19.347  0.00  0.00    +0.000 C 
ATOM     18  O   UNL     1       4.932   5.241  19.842  0.00  0.00    +0.000 OA
ATOM     19  H   UNL     1       2.263   5.746  18.243  0.00  0.00    +0.000 HD
BRANCH  17  20
ATOM     20  C   UNL     1       2.997   3.809  19.706  0.00  0.00    +0.000 C 
ATOM     21  C   UNL     1       2.329   3.960  21.067  0.00  0.00    +0.000 C 
ATOM     22  C   UNL     1       1.226   2.918  21.043  0.00  0.00    +0.000 C 
ATOM     23  C   UNL     1       0.807   2.793  19.580  0.00  0.00    +0.000 C 
ATOM     24  C   UNL     1       1.808   3.613  18.770  0.00  0.00    +0.000 C 
ENDBRANCH  17  20
ENDBRANCH  15  16
ENDBRANCH  14  15
ENDBRANCH   7  14
TORSDOF 5
ENDMDL
