MODEL 1
REMARK VINA RESULT:      -8.8      0.000      0.000
REMARK  Name = 
REMARK  6 active torsions:
REMARK  status: ('A' for Active; 'I' for Inactive)
REMARK    1  A    between atoms: C_2  and  C_10
REMARK    2  A    between atoms: N_3  and  C_4
REMARK    3  A    between atoms: C_4  and  C_5
REMARK    4  A    between atoms: C_13  and  O_14
REMARK    5  A    between atoms: O_14  and  C_15
REMARK    6  A    between atoms: C_23  and  C_24
REMARK                            x       y       z     vdW  Elec       q    Type
REMARK                         _______ _______ _______ _____ _____    ______ ____
ROOT
ATOM      1  O   UNL     1       1.363   6.002  20.952  0.00  0.00    +0.000 OA
ENDROOT
BRANCH   1   2
ATOM      2  C   UNL     1       1.272   7.367  20.829  0.00  0.00    +0.000 A 
ATOM      3  C   UNL     1       0.907   8.194  21.894  0.00  0.00    +0.000 A 
ATOM      4  C   UNL     1       0.760   9.562  21.689  0.00  0.00    +0.000 A 
ATOM      5  C   UNL     1       0.991  10.099  20.426  0.00  0.00    +0.000 A 
ATOM      6  C   UNL     1       1.477   9.302  19.383  0.00  0.00    +0.000 A 
ATOM      7  C   UNL     1       1.611   7.923  19.593  0.00  0.00    +0.000 A 
ATOM      8  C   UNL     1       1.797   9.899  18.042  0.00  0.00    +0.000 C 
ATOM      9  C   UNL     1       1.620  11.415  18.053  0.00  0.00    +0.000 C 
ATOM     10  C   UNL     1       0.404  11.806  18.903  0.00  0.00    +0.000 C 
ATOM     11  O   UNL     1       0.671  11.424  20.271  0.00  0.00    +0.000 OA
BRANCH  10  12
ATOM     12  C   UNL     1      -0.966  11.338  18.404  0.00  0.00    +0.000 A 
ATOM     13  C   UNL     1      -1.076  10.263  17.504  0.00  0.00    +0.000 A 
ATOM     14  C   UNL     1      -2.322   9.824  17.050  0.00  0.00    +0.000 A 
ATOM     15  C   UNL     1      -3.485  10.435  17.505  0.00  0.00    +0.000 A 
ATOM     16  C   UNL     1      -3.402  11.486  18.414  0.00  0.00    +0.000 A 
ATOM     17  C   UNL     1      -2.155  11.928  18.866  0.00  0.00    +0.000 A 
ENDBRANCH  10  12
ENDBRANCH   1   2
BRANCH   1  21
ATOM     18  C   UNL     1       4.083   4.730  19.133  0.00  0.00    +0.000 A 
ATOM     19  C   UNL     1       3.243   3.717  18.700  0.00  0.00    +0.000 A 
ATOM     20  S   UNL     1       1.698   3.875  19.415  0.00  0.00    +0.000 S 
ATOM     21  C   UNL     1       2.224   5.304  20.203  0.00  0.00    +0.000 A 
ATOM     22  N   UNL     1       3.490   5.629  20.019  0.00  0.00    +0.000 NA
BRANCH  18  24
ATOM     23  O   UNL     1       6.313   5.487  19.313  0.00  0.00    +0.000 OA
ATOM     24  C   UNL     1       5.473   4.852  18.681  0.00  0.00    +0.000 C 
ATOM     25  N   UNL     1       5.769   4.210  17.497  0.00  0.00    +0.000 N 
ATOM     26  H   UNL     1       4.995   3.838  16.954  0.00  0.00    +0.000 HD
BRANCH  25  27
ATOM     27  C   UNL     1       7.074   4.406  16.916  0.00  0.00    +0.000 C 
BRANCH  27  28
ATOM     28  C   UNL     1       7.016   4.604  15.454  0.00  0.00    +0.000 A 
ATOM     29  C   UNL     1       6.361   3.958  14.433  0.00  0.00    +0.000 A 
ATOM     30  C   UNL     1       6.859   4.566  13.268  0.00  0.00    +0.000 A 
ATOM     31  N   UNL     1       7.738   5.532  13.544  0.00  0.00    +0.000 NA
ATOM     32  O   UNL     1       7.838   5.554  14.928  0.00  0.00    +0.000 OA
ENDBRANCH  27  28
ENDBRANCH  25  27
ENDBRANCH  18  24
ENDBRANCH   1  21
TORSDOF 6
ENDMDL
MODEL 2
REMARK VINA RESULT:      -8.7      0.653      1.080
REMARK  Name = 
REMARK  6 active torsions:
REMARK  status: ('A' for Active; 'I' for Inactive)
REMARK    1  A    between atoms: C_2  and  C_10
REMARK    2  A    between atoms: N_3  and  C_4
REMARK    3  A    between atoms: C_4  and  C_5
REMARK    4  A    between atoms: C_13  and  O_14
REMARK    5  A    between atoms: O_14  and  C_15
REMARK    6  A    between atoms: C_23  and  C_24
REMARK                            x       y       z     vdW  Elec       q    Type
REMARK                         _______ _______ _______ _____ _____    ______ ____
ROOT
ATOM      1  O   UNL     1       1.523   6.408  21.041  0.00  0.00    +0.000 OA
ENDROOT
BRANCH   1   2
ATOM      2  C   UNL     1       1.258   7.752  20.948  0.00  0.00    +0.000 A 
ATOM      3  C   UNL     1       0.752   8.493  22.018  0.00  0.00    +0.000 A 
ATOM      4  C   UNL     1       0.434   9.836  21.841  0.00  0.00    +0.000 A 
ATOM      5  C   UNL     1       0.633  10.434  20.601  0.00  0.00    +0.000 A 
ATOM      6  C   UNL     1       1.255   9.738  19.558  0.00  0.00    +0.000 A 
ATOM      7  C   UNL     1       1.562   8.383  19.739  0.00  0.00    +0.000 A 
ATOM      8  C   UNL     1       1.537  10.410  18.245  0.00  0.00    +0.000 C 
ATOM      9  C   UNL     1       1.163  11.889  18.286  0.00  0.00    +0.000 C 
ATOM     10  C   UNL     1      -0.122  12.094  19.100  0.00  0.00    +0.000 C 
ATOM     11  O   UNL     1       0.147  11.710  20.467  0.00  0.00    +0.000 OA
BRANCH  10  12
ATOM     12  C   UNL     1      -1.401  11.465  18.540  0.00  0.00    +0.000 A 
ATOM     13  C   UNL     1      -2.668  11.907  18.966  0.00  0.00    +0.000 A 
ATOM     14  C   UNL     1      -3.840  11.346  18.455  0.00  0.00    +0.000 A 
ATOM     15  C   UNL     1      -3.772  10.348  17.489  0.00  0.00    +0.000 A 
ATOM     16  C   UNL     1      -2.531   9.912  17.034  0.00  0.00    +0.000 A 
ATOM     17  C   UNL     1      -1.357  10.471  17.549  0.00  0.00    +0.000 A 
ENDBRANCH  10  12
ENDBRANCH   1   2
BRANCH   1  21
ATOM     18  C   UNL     1       3.928   5.343  18.714  0.00  0.00    +0.000 A 
ATOM     19  C   UNL     1       3.037   4.351  18.339  0.00  0.00    +0.000 A 
ATOM     20  S   UNL     1       1.625   4.418  19.300  0.00  0.00    +0.000 S 
ATOM     21  C   UNL     1       2.259   5.790  20.110  0.00  0.00    +0.000 A 
ATOM     22  N   UNL     1       3.477   6.155  19.755  0.00  0.00    +0.000 NA
BRANCH  18  24
ATOM     23  O   UNL     1       5.571   6.609  17.585  0.00  0.00    +0.000 OA
ATOM     24  C   UNL     1       5.226   5.530  18.060  0.00  0.00    +0.000 C 
ATOM     25  N   UNL     1       6.030   4.410  18.008  0.00  0.00    +0.000 N 
ATOM     26  H   UNL     1       5.620   3.522  18.280  0.00  0.00    +0.000 HD
BRANCH  25  27
ATOM     27  C   UNL     1       7.257   4.479  17.253  0.00  0.00    +0.000 C 
BRANCH  27  28
ATOM     28  C   UNL     1       7.018   4.564  15.799  0.00  0.00    +0.000 A 
ATOM     29  C   UNL     1       6.253   3.837  14.917  0.00  0.00    +0.000 A 
ATOM     30  C   UNL     1       6.597   4.356  13.658  0.00  0.00    +0.000 A 
ATOM     31  N   UNL     1       7.489   5.344  13.750  0.00  0.00    +0.000 NA
ATOM     32  O   UNL     1       7.757   5.473  15.105  0.00  0.00    +0.000 OA
ENDBRANCH  27  28
ENDBRANCH  25  27
ENDBRANCH  18  24
ENDBRANCH   1  21
TORSDOF 6
ENDMDL
MODEL 3
REMARK VINA RESULT:      -8.5      1.865      2.613
REMARK  Name = 
REMARK  6 active torsions:
REMARK  status: ('A' for Active; 'I' for Inactive)
REMARK    1  A    between atoms: C_2  and  C_10
REMARK    2  A    between atoms: N_3  and  C_4
REMARK    3  A    between atoms: C_4  and  C_5
REMARK    4  A    between atoms: C_13  and  O_14
REMARK    5  A    between atoms: O_14  and  C_15
REMARK    6  A    between atoms: C_23  and  C_24
REMARK                            x       y       z     vdW  Elec       q    Type
REMARK                         _______ _______ _______ _____ _____    ______ ____
ROOT
ATOM      1  O   UNL     1       2.492   5.674  18.440  0.00  0.00    +0.000 OA
ENDROOT
BRANCH   1   2
ATOM      2  C   UNL     1       2.138   6.871  19.012  0.00  0.00    +0.000 A 
ATOM      3  C   UNL     1       1.669   6.968  20.324  0.00  0.00    +0.000 A 
ATOM      4  C   UNL     1       1.257   8.200  20.822  0.00  0.00    +0.000 A 
ATOM      5  C   UNL     1       1.326   9.330  20.012  0.00  0.00    +0.000 A 
ATOM      6  C   UNL     1       1.909   9.270  18.742  0.00  0.00    +0.000 A 
ATOM      7  C   UNL     1       2.311   8.024  18.242  0.00  0.00    +0.000 A 
ATOM      8  C   UNL     1       2.050  10.506  17.900  0.00  0.00    +0.000 C 
ATOM      9  C   UNL     1       1.590  11.749  18.658  0.00  0.00    +0.000 C 
ATOM     10  C   UNL     1       0.360  11.427  19.516  0.00  0.00    +0.000 C 
ATOM     11  O   UNL     1       0.753  10.468  20.523  0.00  0.00    +0.000 OA
BRANCH  10  12
ATOM     12  C   UNL     1      -0.917  11.027  18.771  0.00  0.00    +0.000 A 
ATOM     13  C   UNL     1      -2.147  11.643  19.067  0.00  0.00    +0.000 A 
ATOM     14  C   UNL     1      -3.315  11.291  18.387  0.00  0.00    +0.000 A 
ATOM     15  C   UNL     1      -3.274  10.332  17.381  0.00  0.00    +0.000 A 
ATOM     16  C   UNL     1      -2.064   9.726  17.054  0.00  0.00    +0.000 A 
ATOM     17  C   UNL     1      -0.896  10.076  17.738  0.00  0.00    +0.000 A 
ENDBRANCH  10  12
ENDBRANCH   1   2
BRANCH   1  21
ATOM     18  C   UNL     1       5.625   5.148  16.946  0.00  0.00    +0.000 A 
ATOM     19  C   UNL     1       6.069   4.696  18.177  0.00  0.00    +0.000 A 
ATOM     20  S   UNL     1       4.827   4.823  19.345  0.00  0.00    +0.000 S 
ATOM     21  C   UNL     1       3.767   5.412  18.133  0.00  0.00    +0.000 A 
ATOM     22  N   UNL     1       4.299   5.580  16.937  0.00  0.00    +0.000 NA
BRANCH  18  24
ATOM     23  O   UNL     1       7.509   5.813  15.687  0.00  0.00    +0.000 OA
ATOM     24  C   UNL     1       6.475   5.153  15.751  0.00  0.00    +0.000 C 
ATOM     25  N   UNL     1       6.031   4.372  14.705  0.00  0.00    +0.000 N 
ATOM     26  H   UNL     1       5.096   3.981  14.771  0.00  0.00    +0.000 HD
BRANCH  25  27
ATOM     27  C   UNL     1       6.735   4.442  13.448  0.00  0.00    +0.000 C 
BRANCH  27  28
ATOM     28  C   UNL     1       6.207   3.487  12.453  0.00  0.00    +0.000 A 
ATOM     29  C   UNL     1       4.946   3.206  11.982  0.00  0.00    +0.000 A 
ATOM     30  C   UNL     1       5.133   2.087  11.154  0.00  0.00    +0.000 A 
ATOM     31  N   UNL     1       6.413   1.714  11.096  0.00  0.00    +0.000 NA
ATOM     32  O   UNL     1       7.092   2.600  11.920  0.00  0.00    +0.000 OA
ENDBRANCH  27  28
ENDBRANCH  25  27
ENDBRANCH  18  24
ENDBRANCH   1  21
TORSDOF 6
ENDMDL
MODEL 4
REMARK VINA RESULT:      -8.4      4.061      6.039
REMARK  Name = 
REMARK  6 active torsions:
REMARK  status: ('A' for Active; 'I' for Inactive)
REMARK    1  A    between atoms: C_2  and  C_10
REMARK    2  A    between atoms: N_3  and  C_4
REMARK    3  A    between atoms: C_4  and  C_5
REMARK    4  A    between atoms: C_13  and  O_14
REMARK    5  A    between atoms: O_14  and  C_15
REMARK    6  A    between atoms: C_23  and  C_24
REMARK                            x       y       z     vdW  Elec       q    Type
REMARK                         _______ _______ _______ _____ _____    ______ ____
ROOT
ATOM      1  O   UNL     1       0.162  11.354  19.531  0.00  0.00    +0.000 OA
ENDROOT
BRANCH   1   2
ATOM      2  C   UNL     1       0.841  12.523  19.770  0.00  0.00    +0.000 A 
ATOM      3  C   UNL     1       0.753  13.208  20.984  0.00  0.00    +0.000 A 
ATOM      4  C   UNL     1       1.406  14.427  21.141  0.00  0.00    +0.000 A 
ATOM      5  C   UNL     1       2.152  14.949  20.089  0.00  0.00    +0.000 A 
ATOM      6  C   UNL     1       2.350  14.216  18.913  0.00  0.00    +0.000 A 
ATOM      7  C   UNL     1       1.681  12.995  18.758  0.00  0.00    +0.000 A 
ATOM      8  C   UNL     1       3.219  14.750  17.810  0.00  0.00    +0.000 C 
ATOM      9  C   UNL     1       3.879  16.066  18.211  0.00  0.00    +0.000 C 
ATOM     10  C   UNL     1       2.909  16.922  19.035  0.00  0.00    +0.000 C 
ATOM     11  O   UNL     1       2.629  16.223  20.268  0.00  0.00    +0.000 OA
BRANCH  10  12
ATOM     12  C   UNL     1       1.646  17.414  18.323  0.00  0.00    +0.000 A 
ATOM     13  C   UNL     1       0.391  17.355  18.957  0.00  0.00    +0.000 A 
ATOM     14  C   UNL     1      -0.765  17.809  18.319  0.00  0.00    +0.000 A 
ATOM     15  C   UNL     1      -0.689  18.353  17.041  0.00  0.00    +0.000 A 
ATOM     16  C   UNL     1       0.545  18.444  16.403  0.00  0.00    +0.000 A 
ATOM     17  C   UNL     1       1.702  17.986  17.041  0.00  0.00    +0.000 A 
ENDBRANCH  10  12
ENDBRANCH   1   2
BRANCH   1  21
ATOM     18  C   UNL     1       1.673   8.210  19.930  0.00  0.00    +0.000 A 
ATOM     19  C   UNL     1       1.156   8.192  21.215  0.00  0.00    +0.000 A 
ATOM     20  S   UNL     1       0.323   9.647  21.546  0.00  0.00    +0.000 S 
ATOM     21  C   UNL     1       0.650  10.181  19.950  0.00  0.00    +0.000 A 
ATOM     22  N   UNL     1       1.394   9.374  19.216  0.00  0.00    +0.000 NA
BRANCH  18  24
ATOM     23  O   UNL     1       2.715   7.023  18.175  0.00  0.00    +0.000 OA
ATOM     24  C   UNL     1       2.436   7.091  19.368  0.00  0.00    +0.000 C 
ATOM     25  N   UNL     1       2.811   6.118  20.271  0.00  0.00    +0.000 N 
ATOM     26  H   UNL     1       2.415   6.161  21.205  0.00  0.00    +0.000 HD
BRANCH  25  27
ATOM     27  C   UNL     1       3.434   4.918  19.769  0.00  0.00    +0.000 C 
BRANCH  27  28
ATOM     28  C   UNL     1       2.451   3.950  19.245  0.00  0.00    +0.000 A 
ATOM     29  C   UNL     1       1.235   3.492  19.695  0.00  0.00    +0.000 A 
ATOM     30  C   UNL     1       0.898   2.470  18.791  0.00  0.00    +0.000 A 
ATOM     31  N   UNL     1       1.822   2.319  17.840  0.00  0.00    +0.000 NA
ATOM     32  O   UNL     1       2.805   3.254  18.129  0.00  0.00    +0.000 OA
ENDBRANCH  27  28
ENDBRANCH  25  27
ENDBRANCH  18  24
ENDBRANCH   1  21
TORSDOF 6
ENDMDL
MODEL 5
REMARK VINA RESULT:      -8.4      3.841      6.932
REMARK  Name = 
REMARK  6 active torsions:
REMARK  status: ('A' for Active; 'I' for Inactive)
REMARK    1  A    between atoms: C_2  and  C_10
REMARK    2  A    between atoms: N_3  and  C_4
REMARK    3  A    between atoms: C_4  and  C_5
REMARK    4  A    between atoms: C_13  and  O_14
REMARK    5  A    between atoms: O_14  and  C_15
REMARK    6  A    between atoms: C_23  and  C_24
REMARK                            x       y       z     vdW  Elec       q    Type
REMARK                         _______ _______ _______ _____ _____    ______ ____
ROOT
ATOM      1  O   UNL     1      -1.305  12.230  19.003  0.00  0.00    +0.000 OA
ENDROOT
BRANCH   1   2
ATOM      2  C   UNL     1      -2.625  11.943  18.756  0.00  0.00    +0.000 A 
ATOM      3  C   UNL     1      -3.045  11.269  17.606  0.00  0.00    +0.000 A 
ATOM      4  C   UNL     1      -4.403  11.074  17.376  0.00  0.00    +0.000 A 
ATOM      5  C   UNL     1      -5.333  11.540  18.300  0.00  0.00    +0.000 A 
ATOM      6  C   UNL     1      -4.922  12.103  19.513  0.00  0.00    +0.000 A 
ATOM      7  C   UNL     1      -3.554  12.308  19.733  0.00  0.00    +0.000 A 
ATOM      8  C   UNL     1      -5.929  12.536  20.540  0.00  0.00    +0.000 C 
ATOM      9  C   UNL     1      -7.349  12.179  20.112  0.00  0.00    +0.000 C 
ATOM     10  C   UNL     1      -7.519  12.381  18.600  0.00  0.00    +0.000 C 
ATOM     11  O   UNL     1      -6.649  11.448  17.922  0.00  0.00    +0.000 OA
BRANCH  10  12
ATOM     12  C   UNL     1      -7.389  13.815  18.077  0.00  0.00    +0.000 A 
ATOM     13  C   UNL     1      -7.469  14.912  18.954  0.00  0.00    +0.000 A 
ATOM     14  C   UNL     1      -7.343  16.222  18.487  0.00  0.00    +0.000 A 
ATOM     15  C   UNL     1      -7.111  16.462  17.136  0.00  0.00    +0.000 A 
ATOM     16  C   UNL     1      -7.004  15.391  16.254  0.00  0.00    +0.000 A 
ATOM     17  C   UNL     1      -7.134  14.080  16.721  0.00  0.00    +0.000 A 
ENDBRANCH  10  12
ENDBRANCH   1   2
BRANCH   1  21
ATOM     18  C   UNL     1       1.026   9.606  19.105  0.00  0.00    +0.000 A 
ATOM     19  C   UNL     1       0.855   9.588  20.479  0.00  0.00    +0.000 A 
ATOM     20  S   UNL     1      -0.225  10.820  20.965  0.00  0.00    +0.000 S 
ATOM     21  C   UNL     1      -0.441  11.258  19.321  0.00  0.00    +0.000 A 
ATOM     22  N   UNL     1       0.289  10.591  18.448  0.00  0.00    +0.000 NA
BRANCH  18  24
ATOM     23  O   UNL     1       2.337   8.882  17.279  0.00  0.00    +0.000 OA
ATOM     24  C   UNL     1       1.897   8.658  18.403  0.00  0.00    +0.000 C 
ATOM     25  N   UNL     1       2.181   7.495  19.089  0.00  0.00    +0.000 N 
ATOM     26  H   UNL     1       1.660   7.310  19.941  0.00  0.00    +0.000 HD
BRANCH  25  27
ATOM     27  C   UNL     1       2.908   6.454  18.406  0.00  0.00    +0.000 C 
BRANCH  27  28
ATOM     28  C   UNL     1       2.285   5.127  18.577  0.00  0.00    +0.000 A 
ATOM     29  C   UNL     1       1.936   4.122  17.706  0.00  0.00    +0.000 A 
ATOM     30  C   UNL     1       1.252   3.195  18.510  0.00  0.00    +0.000 A 
ATOM     31  N   UNL     1       1.199   3.582  19.786  0.00  0.00    +0.000 NA
ATOM     32  O   UNL     1       1.852   4.805  19.827  0.00  0.00    +0.000 OA
ENDBRANCH  27  28
ENDBRANCH  25  27
ENDBRANCH  18  24
ENDBRANCH   1  21
TORSDOF 6
ENDMDL
MODEL 6
REMARK VINA RESULT:      -8.4      3.822      5.428
REMARK  Name = 
REMARK  6 active torsions:
REMARK  status: ('A' for Active; 'I' for Inactive)
REMARK    1  A    between atoms: C_2  and  C_10
REMARK    2  A    between atoms: N_3  and  C_4
REMARK    3  A    between atoms: C_4  and  C_5
REMARK    4  A    between atoms: C_13  and  O_14
REMARK    5  A    between atoms: O_14  and  C_15
REMARK    6  A    between atoms: C_23  and  C_24
REMARK                            x       y       z     vdW  Elec       q    Type
REMARK                         _______ _______ _______ _____ _____    ______ ____
ROOT
ATOM      1  O   UNL     1       0.448  11.036  19.162  0.00  0.00    +0.000 OA
ENDROOT
BRANCH   1   2
ATOM      2  C   UNL     1       1.073  12.212  19.498  0.00  0.00    +0.000 A 
ATOM      3  C   UNL     1       0.908  12.820  20.745  0.00  0.00    +0.000 A 
ATOM      4  C   UNL     1       1.508  14.049  21.001  0.00  0.00    +0.000 A 
ATOM      5  C   UNL     1       2.279  14.658  20.016  0.00  0.00    +0.000 A 
ATOM      6  C   UNL     1       2.555  14.003  18.810  0.00  0.00    +0.000 A 
ATOM      7  C   UNL     1       1.938  12.771  18.554  0.00  0.00    +0.000 A 
ATOM      8  C   UNL     1       3.450  14.631  17.780  0.00  0.00    +0.000 C 
ATOM      9  C   UNL     1       4.044  15.942  18.285  0.00  0.00    +0.000 C 
ATOM     10  C   UNL     1       3.008  16.715  19.113  0.00  0.00    +0.000 C 
ATOM     11  O   UNL     1       2.701  15.934  20.290  0.00  0.00    +0.000 OA
BRANCH  10  12
ATOM     12  C   UNL     1       1.759  17.205  18.374  0.00  0.00    +0.000 A 
ATOM     13  C   UNL     1       0.482  17.068  18.948  0.00  0.00    +0.000 A 
ATOM     14  C   UNL     1      -0.662  17.519  18.285  0.00  0.00    +0.000 A 
ATOM     15  C   UNL     1      -0.550  18.138  17.045  0.00  0.00    +0.000 A 
ATOM     16  C   UNL     1       0.705  18.306  16.468  0.00  0.00    +0.000 A 
ATOM     17  C   UNL     1       1.850  17.851  17.130  0.00  0.00    +0.000 A 
ENDBRANCH  10  12
ENDBRANCH   1   2
BRANCH   1  21
ATOM     18  C   UNL     1       1.866   7.865  19.669  0.00  0.00    +0.000 A 
ATOM     19  C   UNL     1       1.348   7.906  20.953  0.00  0.00    +0.000 A 
ATOM     20  S   UNL     1       0.558   9.395  21.234  0.00  0.00    +0.000 S 
ATOM     21  C   UNL     1       0.901   9.864  19.621  0.00  0.00    +0.000 A 
ATOM     22  N   UNL     1       1.621   9.012  18.915  0.00  0.00    +0.000 NA
BRANCH  18  24
ATOM     23  O   UNL     1       2.471   5.582  19.628  0.00  0.00    +0.000 OA
ATOM     24  C   UNL     1       2.595   6.705  19.147  0.00  0.00    +0.000 C 
ATOM     25  N   UNL     1       3.434   6.964  18.082  0.00  0.00    +0.000 N 
ATOM     26  H   UNL     1       3.603   7.935  17.839  0.00  0.00    +0.000 HD
BRANCH  25  27
ATOM     27  C   UNL     1       4.292   5.905  17.610  0.00  0.00    +0.000 C 
BRANCH  27  28
ATOM     28  C   UNL     1       5.641   5.966  18.206  0.00  0.00    +0.000 A 
ATOM     29  C   UNL     1       6.852   6.451  17.770  0.00  0.00    +0.000 A 
ATOM     30  C   UNL     1       7.757   6.059  18.769  0.00  0.00    +0.000 A 
ATOM     31  N   UNL     1       7.154   5.400  19.761  0.00  0.00    +0.000 NA
ATOM     32  O   UNL     1       5.815   5.341  19.403  0.00  0.00    +0.000 OA
ENDBRANCH  27  28
ENDBRANCH  25  27
ENDBRANCH  18  24
ENDBRANCH   1  21
TORSDOF 6
ENDMDL
MODEL 7
REMARK VINA RESULT:      -8.4      4.081     10.310
REMARK  Name = 
REMARK  6 active torsions:
REMARK  status: ('A' for Active; 'I' for Inactive)
REMARK    1  A    between atoms: C_2  and  C_10
REMARK    2  A    between atoms: N_3  and  C_4
REMARK    3  A    between atoms: C_4  and  C_5
REMARK    4  A    between atoms: C_13  and  O_14
REMARK    5  A    between atoms: O_14  and  C_15
REMARK    6  A    between atoms: C_23  and  C_24
REMARK                            x       y       z     vdW  Elec       q    Type
REMARK                         _______ _______ _______ _____ _____    ______ ____
ROOT
ATOM      1  O   UNL     1       1.275   9.353  17.676  0.00  0.00    +0.000 OA
ENDROOT
BRANCH   1   2
ATOM      2  C   UNL     1       1.646   8.212  18.344  0.00  0.00    +0.000 A 
ATOM      3  C   UNL     1       1.903   8.195  19.716  0.00  0.00    +0.000 A 
ATOM      4  C   UNL     1       2.347   7.025  20.323  0.00  0.00    +0.000 A 
ATOM      5  C   UNL     1       2.521   5.875  19.558  0.00  0.00    +0.000 A 
ATOM      6  C   UNL     1       2.149   5.845  18.210  0.00  0.00    +0.000 A 
ATOM      7  C   UNL     1       1.713   7.030  17.603  0.00  0.00    +0.000 A 
ATOM      8  C   UNL     1       2.267   4.580  17.407  0.00  0.00    +0.000 C 
ATOM      9  C   UNL     1       2.718   3.410  18.277  0.00  0.00    +0.000 C 
ATOM     10  C   UNL     1       3.755   3.877  19.307  0.00  0.00    +0.000 C 
ATOM     11  O   UNL     1       3.111   4.815  20.199  0.00  0.00    +0.000 OA
BRANCH  10  12
ATOM     12  C   UNL     1       5.091   4.388  18.758  0.00  0.00    +0.000 A 
ATOM     13  C   UNL     1       5.950   5.162  19.560  0.00  0.00    +0.000 A 
ATOM     14  C   UNL     1       7.173   5.625  19.072  0.00  0.00    +0.000 A 
ATOM     15  C   UNL     1       7.575   5.305  17.779  0.00  0.00    +0.000 A 
ATOM     16  C   UNL     1       6.752   4.521  16.976  0.00  0.00    +0.000 A 
ATOM     17  C   UNL     1       5.525   4.060  17.463  0.00  0.00    +0.000 A 
ENDBRANCH  10  12
ENDBRANCH   1   2
BRANCH   1  21
ATOM     18  C   UNL     1      -1.690  11.070  18.445  0.00  0.00    +0.000 A 
ATOM     19  C   UNL     1      -0.935  11.876  19.281  0.00  0.00    +0.000 A 
ATOM     20  S   UNL     1       0.695  11.361  19.299  0.00  0.00    +0.000 S 
ATOM     21  C   UNL     1       0.307  10.143  18.156  0.00  0.00    +0.000 A 
ATOM     22  N   UNL     1      -0.966  10.057  17.817  0.00  0.00    +0.000 NA
BRANCH  18  24
ATOM     23  O   UNL     1      -3.724  10.777  17.282  0.00  0.00    +0.000 OA
ATOM     24  C   UNL     1      -3.125  11.278  18.230  0.00  0.00    +0.000 C 
ATOM     25  N   UNL     1      -3.753  12.080  19.160  0.00  0.00    +0.000 N 
ATOM     26  H   UNL     1      -3.169  12.582  19.822  0.00  0.00    +0.000 HD
BRANCH  25  27
ATOM     27  C   UNL     1      -5.129  12.448  18.933  0.00  0.00    +0.000 C 
BRANCH  27  28
ATOM     28  C   UNL     1      -6.068  11.636  19.731  0.00  0.00    +0.000 A 
ATOM     29  C   UNL     1      -7.030  10.707  19.411  0.00  0.00    +0.000 A 
ATOM     30  C   UNL     1      -7.658  10.428  20.637  0.00  0.00    +0.000 A 
ATOM     31  N   UNL     1      -7.114  11.113  21.645  0.00  0.00    +0.000 NA
ATOM     32  O   UNL     1      -6.109  11.878  21.071  0.00  0.00    +0.000 OA
ENDBRANCH  27  28
ENDBRANCH  25  27
ENDBRANCH  18  24
ENDBRANCH   1  21
TORSDOF 6
ENDMDL
MODEL 8
REMARK VINA RESULT:      -8.4      3.746      6.906
REMARK  Name = 
REMARK  6 active torsions:
REMARK  status: ('A' for Active; 'I' for Inactive)
REMARK    1  A    between atoms: C_2  and  C_10
REMARK    2  A    between atoms: N_3  and  C_4
REMARK    3  A    between atoms: C_4  and  C_5
REMARK    4  A    between atoms: C_13  and  O_14
REMARK    5  A    between atoms: O_14  and  C_15
REMARK    6  A    between atoms: C_23  and  C_24
REMARK                            x       y       z     vdW  Elec       q    Type
REMARK                         _______ _______ _______ _____ _____    ______ ____
ROOT
ATOM      1  O   UNL     1      -1.136  11.914  18.235  0.00  0.00    +0.000 OA
ENDROOT
BRANCH   1   2
ATOM      2  C   UNL     1      -2.487  11.677  18.164  0.00  0.00    +0.000 A 
ATOM      3  C   UNL     1      -3.078  11.013  17.087  0.00  0.00    +0.000 A 
ATOM      4  C   UNL     1      -4.461  10.869  17.037  0.00  0.00    +0.000 A 
ATOM      5  C   UNL     1      -5.245  11.377  18.069  0.00  0.00    +0.000 A 
ATOM      6  C   UNL     1      -4.658  11.932  19.212  0.00  0.00    +0.000 A 
ATOM      7  C   UNL     1      -3.266  12.085  19.250  0.00  0.00    +0.000 A 
ATOM      8  C   UNL     1      -5.505  12.410  20.356  0.00  0.00    +0.000 C 
ATOM      9  C   UNL     1      -6.982  12.105  20.120  0.00  0.00    +0.000 C 
ATOM     10  C   UNL     1      -7.340  12.304  18.641  0.00  0.00    +0.000 C 
ATOM     11  O   UNL     1      -6.601  11.334  17.866  0.00  0.00    +0.000 OA
BRANCH  10  12
ATOM     12  C   UNL     1      -7.225  13.728  18.089  0.00  0.00    +0.000 A 
ATOM     13  C   UNL     1      -7.181  13.962  16.702  0.00  0.00    +0.000 A 
ATOM     14  C   UNL     1      -7.084  15.257  16.188  0.00  0.00    +0.000 A 
ATOM     15  C   UNL     1      -7.054  16.348  17.050  0.00  0.00    +0.000 A 
ATOM     16  C   UNL     1      -7.122  16.143  18.425  0.00  0.00    +0.000 A 
ATOM     17  C   UNL     1      -7.214  14.846  18.939  0.00  0.00    +0.000 A 
ENDBRANCH  10  12
ENDBRANCH   1   2
BRANCH   1  21
ATOM     18  C   UNL     1       1.137   9.384  19.108  0.00  0.00    +0.000 A 
ATOM     19  C   UNL     1       0.850   9.668  20.433  0.00  0.00    +0.000 A 
ATOM     20  S   UNL     1      -0.249  10.973  20.543  0.00  0.00    +0.000 S 
ATOM     21  C   UNL     1      -0.318  11.039  18.831  0.00  0.00    +0.000 A 
ATOM     22  N   UNL     1       0.473  10.198  18.191  0.00  0.00    +0.000 NA
BRANCH  18  24
ATOM     23  O   UNL     1       2.641   8.318  17.633  0.00  0.00    +0.000 OA
ATOM     24  C   UNL     1       2.049   8.308  18.709  0.00  0.00    +0.000 C 
ATOM     25  N   UNL     1       2.190   7.283  19.621  0.00  0.00    +0.000 N 
ATOM     26  H   UNL     1       1.556   7.265  20.414  0.00  0.00    +0.000 HD
BRANCH  25  27
ATOM     27  C   UNL     1       2.954   6.122  19.236  0.00  0.00    +0.000 C 
BRANCH  27  28
ATOM     28  C   UNL     1       2.500   4.897  19.924  0.00  0.00    +0.000 A 
ATOM     29  C   UNL     1       1.389   4.581  20.669  0.00  0.00    +0.000 A 
ATOM     30  C   UNL     1       1.654   3.288  21.150  0.00  0.00    +0.000 A 
ATOM     31  N   UNL     1       2.830   2.826  20.719  0.00  0.00    +0.000 NA
ATOM     32  O   UNL     1       3.365   3.845  19.945  0.00  0.00    +0.000 OA
ENDBRANCH  27  28
ENDBRANCH  25  27
ENDBRANCH  18  24
ENDBRANCH   1  21
TORSDOF 6
ENDMDL
MODEL 9
REMARK VINA RESULT:      -8.3      1.848      3.174
REMARK  Name = 
REMARK  6 active torsions:
REMARK  status: ('A' for Active; 'I' for Inactive)
REMARK    1  A    between atoms: C_2  and  C_10
REMARK    2  A    between atoms: N_3  and  C_4
REMARK    3  A    between atoms: C_4  and  C_5
REMARK    4  A    between atoms: C_13  and  O_14
REMARK    5  A    between atoms: O_14  and  C_15
REMARK    6  A    between atoms: C_23  and  C_24
REMARK                            x       y       z     vdW  Elec       q    Type
REMARK                         _______ _______ _______ _____ _____    ______ ____
ROOT
ATOM      1  O   UNL     1       1.946   7.517  20.845  0.00  0.00    +0.000 OA
ENDROOT
BRANCH   1   2
ATOM      2  C   UNL     1       1.313   8.486  20.106  0.00  0.00    +0.000 A 
ATOM      3  C   UNL     1       1.450   8.583  18.720  0.00  0.00    +0.000 A 
ATOM      4  C   UNL     1       0.843   9.632  18.036  0.00  0.00    +0.000 A 
ATOM      5  C   UNL     1       0.093  10.570  18.738  0.00  0.00    +0.000 A 
ATOM      6  C   UNL     1      -0.156  10.415  20.106  0.00  0.00    +0.000 A 
ATOM      7  C   UNL     1       0.468   9.363  20.791  0.00  0.00    +0.000 A 
ATOM      8  C   UNL     1      -1.029  11.389  20.845  0.00  0.00    +0.000 C 
ATOM      9  C   UNL     1      -1.634  12.421  19.899  0.00  0.00    +0.000 C 
ATOM     10  C   UNL     1      -0.618  12.821  18.821  0.00  0.00    +0.000 C 
ATOM     11  O   UNL     1      -0.336  11.655  18.015  0.00  0.00    +0.000 OA
BRANCH  10  12
ATOM     12  C   UNL     1       0.646  13.542  19.299  0.00  0.00    +0.000 A 
ATOM     13  C   UNL     1       1.878  13.343  18.648  0.00  0.00    +0.000 A 
ATOM     14  C   UNL     1       3.034  14.003  19.071  0.00  0.00    +0.000 A 
ATOM     15  C   UNL     1       2.979  14.893  20.138  0.00  0.00    +0.000 A 
ATOM     16  C   UNL     1       1.766  15.124  20.781  0.00  0.00    +0.000 A 
ATOM     17  C   UNL     1       0.610  14.461  20.361  0.00  0.00    +0.000 A 
ENDBRANCH  10  12
ENDBRANCH   1   2
BRANCH   1  21
ATOM     18  C   UNL     1       3.431   4.788  19.209  0.00  0.00    +0.000 A 
ATOM     19  C   UNL     1       2.245   4.102  19.406  0.00  0.00    +0.000 A 
ATOM     20  S   UNL     1       1.136   5.061  20.283  0.00  0.00    +0.000 S 
ATOM     21  C   UNL     1       2.275   6.342  20.295  0.00  0.00    +0.000 A 
ATOM     22  N   UNL     1       3.446   6.075  19.747  0.00  0.00    +0.000 NA
BRANCH  18  24
ATOM     23  O   UNL     1       4.635   3.017  18.214  0.00  0.00    +0.000 OA
ATOM     24  C   UNL     1       4.567   4.213  18.482  0.00  0.00    +0.000 C 
ATOM     25  N   UNL     1       5.557   5.106  18.127  0.00  0.00    +0.000 N 
ATOM     26  H   UNL     1       5.508   6.044  18.514  0.00  0.00    +0.000 HD
BRANCH  25  27
ATOM     27  C   UNL     1       6.769   4.592  17.540  0.00  0.00    +0.000 C 
BRANCH  27  28
ATOM     28  C   UNL     1       6.759   4.671  16.066  0.00  0.00    +0.000 A 
ATOM     29  C   UNL     1       6.087   3.986  15.082  0.00  0.00    +0.000 A 
ATOM     30  C   UNL     1       6.652   4.461  13.887  0.00  0.00    +0.000 A 
ATOM     31  N   UNL     1       7.588   5.387  14.109  0.00  0.00    +0.000 NA
ATOM     32  O   UNL     1       7.656   5.518  15.488  0.00  0.00    +0.000 OA
ENDBRANCH  27  28
ENDBRANCH  25  27
ENDBRANCH  18  24
ENDBRANCH   1  21
TORSDOF 6
ENDMDL
