MODEL 1
REMARK VINA RESULT:      -6.9      0.000      0.000
REMARK  Name = 
REMARK  11 active torsions:
REMARK  status: ('A' for Active; 'I' for Inactive)
REMARK    1  A    between atoms: C_4  and  O_5
REMARK    2  A    between atoms: N_9  and  C_10
REMARK    3  A    between atoms: C_10  and  C_11
REMARK    4  A    between atoms: C_11  and  C_12
REMARK    5  A    between atoms: C_11  and  O_15
REMARK    6  A    between atoms: C_12  and  C_13
REMARK    7  A    between atoms: C_13  and  O_14
REMARK    8  A    between atoms: O_15  and  C_16
REMARK    9  A    between atoms: C_16  and  P_17
REMARK   10  A    between atoms: P_17  and  O_19
REMARK   11  A    between atoms: P_17  and  O_20
REMARK                            x       y       z     vdW  Elec       q    Type
REMARK                         _______ _______ _______ _____ _____    ______ ____
ROOT
ATOM      1  N   UNL     1       5.438   1.315  21.217  0.00  0.00    +0.000 N 
ATOM      2  C   UNL     1       4.460   2.096  20.628  0.00  0.00    +0.000 A 
ATOM      3  N   UNL     1       3.317   2.229  21.319  0.00  0.00    +0.000 NA
ATOM      4  C   UNL     1       2.398   3.094  20.848  0.00  0.00    +0.000 A 
ATOM      5  C   UNL     1       2.640   3.846  19.704  0.00  0.00    +0.000 A 
ATOM      6  N   UNL     1       1.945   4.818  19.021  0.00  0.00    +0.000 NA
ATOM      7  C   UNL     1       2.688   5.090  17.968  0.00  0.00    +0.000 A 
ATOM      8  N   UNL     1       3.797   4.286  17.901  0.00  0.00    +0.000 N 
ATOM      9  C   UNL     1       3.831   3.553  19.061  0.00  0.00    +0.000 A 
ATOM     10  N   UNL     1       4.776   2.688  19.464  0.00  0.00    +0.000 NA
ATOM     11  H   UNL     1       5.288   1.312  22.217  0.00  0.00    +0.000 HD
ATOM     12  H   UNL     1       6.344   1.640  20.904  0.00  0.00    +0.000 HD
ENDROOT
BRANCH   4  13
ATOM     13  O   UNL     1       1.234   3.143  21.564  0.00  0.00    +0.000 OA
ATOM     14  H   UNL     1       0.722   3.779  21.037  0.00  0.00    +0.000 HD
ENDBRANCH   4  13
BRANCH   8  15
ATOM     15  C   UNL     1       4.555   3.986  16.701  0.00  0.00    +0.000 C 
BRANCH  15  16
ATOM     16  C   UNL     1       5.221   5.172  15.982  0.00  0.00    +0.000 C 
BRANCH  16  17
ATOM     17  C   UNL     1       6.514   4.706  15.273  0.00  0.00    +0.000 C 
BRANCH  17  18
ATOM     18  C   UNL     1       6.325   3.804  14.064  0.00  0.00    +0.000 C 
BRANCH  18  19
ATOM     19  O   UNL     1       5.130   4.156  13.386  0.00  0.00    +0.000 OA
ATOM     20  H   UNL     1       4.631   3.347  13.187  0.00  0.00    +0.000 HD
ENDBRANCH  18  19
ENDBRANCH  17  18
ENDBRANCH  16  17
BRANCH  16  21
ATOM     21  O   UNL     1       5.546   6.170  16.966  0.00  0.00    +0.000 OA
BRANCH  21  22
ATOM     22  C   UNL     1       6.963   6.298  17.190  0.00  0.00    +0.000 C 
BRANCH  22  23
ATOM     23  P   UNL     1       7.408   5.820  18.900  0.00  0.00    +0.000 P 
ATOM     24  O   UNL     1       8.164   4.583  18.411  0.00  0.00    +0.000 OA
BRANCH  23  25
ATOM     25  O   UNL     1       8.534   7.008  18.987  0.00  0.00    +0.000 OA
ATOM     26  H   UNL     1       8.095   7.840  19.264  0.00  0.00    +0.000 HD
ENDBRANCH  23  25
BRANCH  23  27
ATOM     27  O   UNL     1       7.829   5.370  20.517  0.00  0.00    +0.000 OA
ATOM     28  H   UNL     1       8.797   5.228  20.481  0.00  0.00    +0.000 HD
ENDBRANCH  23  27
ENDBRANCH  22  23
ENDBRANCH  21  22
ENDBRANCH  16  21
ENDBRANCH  15  16
ENDBRANCH   8  15
TORSDOF 11
ENDMDL
MODEL 2
REMARK VINA RESULT:      -6.8      1.634      2.366
REMARK  Name = 
REMARK  11 active torsions:
REMARK  status: ('A' for Active; 'I' for Inactive)
REMARK    1  A    between atoms: C_4  and  O_5
REMARK    2  A    between atoms: N_9  and  C_10
REMARK    3  A    between atoms: C_10  and  C_11
REMARK    4  A    between atoms: C_11  and  C_12
REMARK    5  A    between atoms: C_11  and  O_15
REMARK    6  A    between atoms: C_12  and  C_13
REMARK    7  A    between atoms: C_13  and  O_14
REMARK    8  A    between atoms: O_15  and  C_16
REMARK    9  A    between atoms: C_16  and  P_17
REMARK   10  A    between atoms: P_17  and  O_19
REMARK   11  A    between atoms: P_17  and  O_20
REMARK                            x       y       z     vdW  Elec       q    Type
REMARK                         _______ _______ _______ _____ _____    ______ ____
ROOT
ATOM      1  N   UNL     1       2.017   7.112  20.511  0.00  0.00    +0.000 N 
ATOM      2  C   UNL     1       2.167   5.777  20.182  0.00  0.00    +0.000 A 
ATOM      3  N   UNL     1       1.475   4.904  20.931  0.00  0.00    +0.000 NA
ATOM      4  C   UNL     1       1.482   3.612  20.554  0.00  0.00    +0.000 A 
ATOM      5  C   UNL     1       2.156   3.202  19.408  0.00  0.00    +0.000 A 
ATOM      6  N   UNL     1       2.305   2.001  18.751  0.00  0.00    +0.000 NA
ATOM      7  C   UNL     1       3.126   2.260  17.754  0.00  0.00    +0.000 A 
ATOM      8  N   UNL     1       3.570   3.556  17.779  0.00  0.00    +0.000 N 
ATOM      9  C   UNL     1       2.879   4.198  18.775  0.00  0.00    +0.000 A 
ATOM     10  N   UNL     1       2.933   5.498  19.113  0.00  0.00    +0.000 NA
ATOM     11  H   UNL     1       1.129   7.230  20.978  0.00  0.00    +0.000 HD
ATOM     12  H   UNL     1       2.159   7.668  19.677  0.00  0.00    +0.000 HD
ENDROOT
BRANCH   4  13
ATOM     13  O   UNL     1       0.807   2.765  21.388  0.00  0.00    +0.000 OA
ATOM     14  H   UNL     1       0.561   2.056  20.770  0.00  0.00    +0.000 HD
ENDBRANCH   4  13
BRANCH   8  15
ATOM     15  C   UNL     1       4.785   4.047  17.156  0.00  0.00    +0.000 C 
BRANCH  15  16
ATOM     16  C   UNL     1       4.729   5.453  16.531  0.00  0.00    +0.000 C 
BRANCH  16  17
ATOM     17  C   UNL     1       5.625   5.510  15.271  0.00  0.00    +0.000 C 
BRANCH  17  18
ATOM     18  C   UNL     1       6.472   4.278  14.998  0.00  0.00    +0.000 C 
BRANCH  18  19
ATOM     19  O   UNL     1       7.820   4.533  15.360  0.00  0.00    +0.000 OA
ATOM     20  H   UNL     1       8.381   4.437  14.573  0.00  0.00    +0.000 HD
ENDBRANCH  18  19
ENDBRANCH  17  18
ENDBRANCH  16  17
BRANCH  16  21
ATOM     21  O   UNL     1       5.208   6.397  17.505  0.00  0.00    +0.000 OA
BRANCH  21  22
ATOM     22  C   UNL     1       6.641   6.538  17.493  0.00  0.00    +0.000 C 
BRANCH  22  23
ATOM     23  P   UNL     1       7.378   5.931  19.055  0.00  0.00    +0.000 P 
ATOM     24  O   UNL     1       7.988   4.715  18.354  0.00  0.00    +0.000 OA
BRANCH  23  25
ATOM     25  O   UNL     1       8.541   7.085  19.009  0.00  0.00    +0.000 OA
ATOM     26  H   UNL     1       9.401   6.660  18.813  0.00  0.00    +0.000 HD
ENDBRANCH  23  25
BRANCH  23  27
ATOM     27  O   UNL     1       8.074   5.358  20.532  0.00  0.00    +0.000 OA
ATOM     28  H   UNL     1       7.981   4.385  20.479  0.00  0.00    +0.000 HD
ENDBRANCH  23  27
ENDBRANCH  22  23
ENDBRANCH  21  22
ENDBRANCH  16  21
ENDBRANCH  15  16
ENDBRANCH   8  15
TORSDOF 11
ENDMDL
MODEL 3
REMARK VINA RESULT:      -6.7      3.222      5.794
REMARK  Name = 
REMARK  11 active torsions:
REMARK  status: ('A' for Active; 'I' for Inactive)
REMARK    1  A    between atoms: C_4  and  O_5
REMARK    2  A    between atoms: N_9  and  C_10
REMARK    3  A    between atoms: C_10  and  C_11
REMARK    4  A    between atoms: C_11  and  C_12
REMARK    5  A    between atoms: C_11  and  O_15
REMARK    6  A    between atoms: C_12  and  C_13
REMARK    7  A    between atoms: C_13  and  O_14
REMARK    8  A    between atoms: O_15  and  C_16
REMARK    9  A    between atoms: C_16  and  P_17
REMARK   10  A    between atoms: P_17  and  O_19
REMARK   11  A    between atoms: P_17  and  O_20
REMARK                            x       y       z     vdW  Elec       q    Type
REMARK                         _______ _______ _______ _____ _____    ______ ____
ROOT
ATOM      1  N   UNL     1       8.384   5.281  20.423  0.00  0.00    +0.000 N 
ATOM      2  C   UNL     1       7.711   5.672  19.279  0.00  0.00    +0.000 A 
ATOM      3  N   UNL     1       8.073   6.855  18.759  0.00  0.00    +0.000 NA
ATOM      4  C   UNL     1       7.545   7.204  17.571  0.00  0.00    +0.000 A 
ATOM      5  C   UNL     1       6.679   6.353  16.892  0.00  0.00    +0.000 A 
ATOM      6  N   UNL     1       6.033   6.399  15.677  0.00  0.00    +0.000 NA
ATOM      7  C   UNL     1       5.298   5.306  15.643  0.00  0.00    +0.000 A 
ATOM      8  N   UNL     1       5.385   4.593  16.810  0.00  0.00    +0.000 N 
ATOM      9  C   UNL     1       6.344   5.200  17.581  0.00  0.00    +0.000 A 
ATOM     10  N   UNL     1       6.817   4.805  18.775  0.00  0.00    +0.000 NA
ATOM     11  H   UNL     1       9.283   5.742  20.440  0.00  0.00    +0.000 HD
ATOM     12  H   UNL     1       8.401   4.269  20.457  0.00  0.00    +0.000 HD
ENDROOT
BRANCH   4  13
ATOM     13  O   UNL     1       7.908   8.443  17.121  0.00  0.00    +0.000 OA
ATOM     14  H   UNL     1       7.194   8.990  17.492  0.00  0.00    +0.000 HD
ENDBRANCH   4  13
BRANCH   8  15
ATOM     15  C   UNL     1       4.406   3.638  17.295  0.00  0.00    +0.000 C 
BRANCH  15  16
ATOM     16  C   UNL     1       3.274   4.190  18.181  0.00  0.00    +0.000 C 
BRANCH  16  17
ATOM     17  C   UNL     1       2.992   5.669  17.822  0.00  0.00    +0.000 C 
BRANCH  17  18
ATOM     18  C   UNL     1       2.831   6.621  18.996  0.00  0.00    +0.000 C 
BRANCH  18  19
ATOM     19  O   UNL     1       2.203   7.816  18.561  0.00  0.00    +0.000 OA
ATOM     20  H   UNL     1       1.687   7.627  17.759  0.00  0.00    +0.000 HD
ENDBRANCH  18  19
ENDBRANCH  17  18
ENDBRANCH  16  17
BRANCH  16  21
ATOM     21  O   UNL     1       3.694   4.101  19.554  0.00  0.00    +0.000 OA
BRANCH  21  22
ATOM     22  C   UNL     1       3.587   2.768  20.088  0.00  0.00    +0.000 C 
BRANCH  22  23
ATOM     23  P   UNL     1       2.218   2.648  21.298  0.00  0.00    +0.000 P 
ATOM     24  O   UNL     1       2.265   4.152  21.576  0.00  0.00    +0.000 OA
BRANCH  23  25
ATOM     25  O   UNL     1       1.115   2.464  20.100  0.00  0.00    +0.000 OA
ATOM     26  H   UNL     1       1.475   2.853  19.276  0.00  0.00    +0.000 HD
ENDBRANCH  23  25
BRANCH  23  27
ATOM     27  O   UNL     1       0.924   2.534  22.440  0.00  0.00    +0.000 OA
ATOM     28  H   UNL     1       0.888   1.582  22.667  0.00  0.00    +0.000 HD
ENDBRANCH  23  27
ENDBRANCH  22  23
ENDBRANCH  21  22
ENDBRANCH  16  21
ENDBRANCH  15  16
ENDBRANCH   8  15
TORSDOF 11
ENDMDL
MODEL 4
REMARK VINA RESULT:      -6.6      3.012      5.726
REMARK  Name = 
REMARK  11 active torsions:
REMARK  status: ('A' for Active; 'I' for Inactive)
REMARK    1  A    between atoms: C_4  and  O_5
REMARK    2  A    between atoms: N_9  and  C_10
REMARK    3  A    between atoms: C_10  and  C_11
REMARK    4  A    between atoms: C_11  and  C_12
REMARK    5  A    between atoms: C_11  and  O_15
REMARK    6  A    between atoms: C_12  and  C_13
REMARK    7  A    between atoms: C_13  and  O_14
REMARK    8  A    between atoms: O_15  and  C_16
REMARK    9  A    between atoms: C_16  and  P_17
REMARK   10  A    between atoms: P_17  and  O_19
REMARK   11  A    between atoms: P_17  and  O_20
REMARK                            x       y       z     vdW  Elec       q    Type
REMARK                         _______ _______ _______ _____ _____    ______ ____
ROOT
ATOM      1  N   UNL     1       8.497   5.237  20.452  0.00  0.00    +0.000 N 
ATOM      2  C   UNL     1       7.719   5.580  19.361  0.00  0.00    +0.000 A 
ATOM      3  N   UNL     1       8.031   6.737  18.756  0.00  0.00    +0.000 NA
ATOM      4  C   UNL     1       7.393   7.034  17.608  0.00  0.00    +0.000 A 
ATOM      5  C   UNL     1       6.467   6.158  17.053  0.00  0.00    +0.000 A 
ATOM      6  N   UNL     1       5.709   6.151  15.904  0.00  0.00    +0.000 NA
ATOM      7  C   UNL     1       4.975   5.061  15.987  0.00  0.00    +0.000 A 
ATOM      8  N   UNL     1       5.171   4.401  17.172  0.00  0.00    +0.000 N 
ATOM      9  C   UNL     1       6.199   5.038  17.821  0.00  0.00    +0.000 A 
ATOM     10  N   UNL     1       6.781   4.695  18.982  0.00  0.00    +0.000 NA
ATOM     11  H   UNL     1       9.393   5.694  20.364  0.00  0.00    +0.000 HD
ATOM     12  H   UNL     1       8.517   4.228  20.531  0.00  0.00    +0.000 HD
ENDROOT
BRANCH   4  13
ATOM     13  O   UNL     1       7.712   8.250  17.071  0.00  0.00    +0.000 OA
ATOM     14  H   UNL     1       6.854   8.703  17.118  0.00  0.00    +0.000 HD
ENDBRANCH   4  13
BRANCH   8  15
ATOM     15  C   UNL     1       4.241   3.474  17.790  0.00  0.00    +0.000 C 
BRANCH  15  16
ATOM     16  C   UNL     1       3.770   3.806  19.216  0.00  0.00    +0.000 C 
BRANCH  16  17
ATOM     17  C   UNL     1       3.287   2.521  19.930  0.00  0.00    +0.000 C 
BRANCH  17  18
ATOM     18  C   UNL     1       1.945   2.613  20.638  0.00  0.00    +0.000 C 
BRANCH  18  19
ATOM     19  O   UNL     1       2.112   3.240  21.900  0.00  0.00    +0.000 OA
ATOM     20  H   UNL     1       1.662   4.101  21.885  0.00  0.00    +0.000 HD
ENDBRANCH  18  19
ENDBRANCH  17  18
ENDBRANCH  16  17
BRANCH  16  21
ATOM     21  O   UNL     1       2.680   4.741  19.123  0.00  0.00    +0.000 OA
BRANCH  21  22
ATOM     22  C   UNL     1       3.042   6.070  19.545  0.00  0.00    +0.000 C 
BRANCH  22  23
ATOM     23  P   UNL     1       2.248   7.338  18.490  0.00  0.00    +0.000 P 
ATOM     24  O   UNL     1       2.035   8.271  19.685  0.00  0.00    +0.000 OA
BRANCH  23  25
ATOM     25  O   UNL     1       3.693   7.777  17.852  0.00  0.00    +0.000 OA
ATOM     26  H   UNL     1       3.911   7.169  17.116  0.00  0.00    +0.000 HD
ENDBRANCH  23  25
BRANCH  23  27
ATOM     27  O   UNL     1       1.499   8.536  17.492  0.00  0.00    +0.000 OA
ATOM     28  H   UNL     1       0.676   8.108  17.182  0.00  0.00    +0.000 HD
ENDBRANCH  23  27
ENDBRANCH  22  23
ENDBRANCH  21  22
ENDBRANCH  16  21
ENDBRANCH  15  16
ENDBRANCH   8  15
TORSDOF 11
ENDMDL
MODEL 5
REMARK VINA RESULT:      -6.5      1.767      2.607
REMARK  Name = 
REMARK  11 active torsions:
REMARK  status: ('A' for Active; 'I' for Inactive)
REMARK    1  A    between atoms: C_4  and  O_5
REMARK    2  A    between atoms: N_9  and  C_10
REMARK    3  A    between atoms: C_10  and  C_11
REMARK    4  A    between atoms: C_11  and  C_12
REMARK    5  A    between atoms: C_11  and  O_15
REMARK    6  A    between atoms: C_12  and  C_13
REMARK    7  A    between atoms: C_13  and  O_14
REMARK    8  A    between atoms: O_15  and  C_16
REMARK    9  A    between atoms: C_16  and  P_17
REMARK   10  A    between atoms: P_17  and  O_19
REMARK   11  A    between atoms: P_17  and  O_20
REMARK                            x       y       z     vdW  Elec       q    Type
REMARK                         _______ _______ _______ _____ _____    ______ ____
ROOT
ATOM      1  N   UNL     1       2.113   7.127  20.389  0.00  0.00    +0.000 N 
ATOM      2  C   UNL     1       2.250   5.790  20.062  0.00  0.00    +0.000 A 
ATOM      3  N   UNL     1       1.515   4.930  20.785  0.00  0.00    +0.000 NA
ATOM      4  C   UNL     1       1.512   3.638  20.405  0.00  0.00    +0.000 A 
ATOM      5  C   UNL     1       2.219   3.217  19.283  0.00  0.00    +0.000 A 
ATOM      6  N   UNL     1       2.369   2.015  18.630  0.00  0.00    +0.000 NA
ATOM      7  C   UNL     1       3.230   2.260  17.663  0.00  0.00    +0.000 A 
ATOM      8  N   UNL     1       3.697   3.547  17.707  0.00  0.00    +0.000 N 
ATOM      9  C   UNL     1       2.982   4.201  18.679  0.00  0.00    +0.000 A 
ATOM     10  N   UNL     1       3.048   5.498  19.022  0.00  0.00    +0.000 NA
ATOM     11  H   UNL     1       1.211   7.261  20.824  0.00  0.00    +0.000 HD
ATOM     12  H   UNL     1       2.295   7.682  19.562  0.00  0.00    +0.000 HD
ENDROOT
BRANCH   4  13
ATOM     13  O   UNL     1       0.791   2.802  21.212  0.00  0.00    +0.000 OA
ATOM     14  H   UNL     1       1.131   1.936  20.930  0.00  0.00    +0.000 HD
ENDBRANCH   4  13
BRANCH   8  15
ATOM     15  C   UNL     1       4.943   4.017  17.129  0.00  0.00    +0.000 C 
BRANCH  15  16
ATOM     16  C   UNL     1       4.838   5.055  15.998  0.00  0.00    +0.000 C 
BRANCH  16  17
ATOM     17  C   UNL     1       5.329   4.441  14.666  0.00  0.00    +0.000 C 
BRANCH  17  18
ATOM     18  C   UNL     1       6.823   4.183  14.559  0.00  0.00    +0.000 C 
BRANCH  18  19
ATOM     19  O   UNL     1       7.518   5.417  14.481  0.00  0.00    +0.000 OA
ATOM     20  H   UNL     1       8.424   5.289  14.807  0.00  0.00    +0.000 HD
ENDBRANCH  18  19
ENDBRANCH  17  18
ENDBRANCH  16  17
BRANCH  16  21
ATOM     21  O   UNL     1       5.668   6.179  16.343  0.00  0.00    +0.000 OA
BRANCH  21  22
ATOM     22  C   UNL     1       6.069   6.179  17.726  0.00  0.00    +0.000 C 
BRANCH  22  23
ATOM     23  P   UNL     1       7.366   7.432  18.039  0.00  0.00    +0.000 P 
ATOM     24  O   UNL     1       8.128   6.485  18.969  0.00  0.00    +0.000 OA
BRANCH  23  25
ATOM     25  O   UNL     1       8.017   7.196  16.554  0.00  0.00    +0.000 OA
ATOM     26  H   UNL     1       8.858   6.703  16.652  0.00  0.00    +0.000 HD
ENDBRANCH  23  25
BRANCH  23  27
ATOM     27  O   UNL     1       8.591   8.617  18.334  0.00  0.00    +0.000 OA
ATOM     28  H   UNL     1       8.802   8.512  19.284  0.00  0.00    +0.000 HD
ENDBRANCH  23  27
ENDBRANCH  22  23
ENDBRANCH  21  22
ENDBRANCH  16  21
ENDBRANCH  15  16
ENDBRANCH   8  15
TORSDOF 11
ENDMDL
MODEL 6
REMARK VINA RESULT:      -6.5      3.190      5.515
REMARK  Name = 
REMARK  11 active torsions:
REMARK  status: ('A' for Active; 'I' for Inactive)
REMARK    1  A    between atoms: C_4  and  O_5
REMARK    2  A    between atoms: N_9  and  C_10
REMARK    3  A    between atoms: C_10  and  C_11
REMARK    4  A    between atoms: C_11  and  C_12
REMARK    5  A    between atoms: C_11  and  O_15
REMARK    6  A    between atoms: C_12  and  C_13
REMARK    7  A    between atoms: C_13  and  O_14
REMARK    8  A    between atoms: O_15  and  C_16
REMARK    9  A    between atoms: C_16  and  P_17
REMARK   10  A    between atoms: P_17  and  O_19
REMARK   11  A    between atoms: P_17  and  O_20
REMARK                            x       y       z     vdW  Elec       q    Type
REMARK                         _______ _______ _______ _____ _____    ______ ____
ROOT
ATOM      1  N   UNL     1       8.492   5.224  20.318  0.00  0.00    +0.000 N 
ATOM      2  C   UNL     1       7.768   5.673  19.228  0.00  0.00    +0.000 A 
ATOM      3  N   UNL     1       8.105   6.884  18.756  0.00  0.00    +0.000 NA
ATOM      4  C   UNL     1       7.524   7.293  17.613  0.00  0.00    +0.000 A 
ATOM      5  C   UNL     1       6.630   6.476  16.928  0.00  0.00    +0.000 A 
ATOM      6  N   UNL     1       5.932   6.583  15.747  0.00  0.00    +0.000 NA
ATOM      7  C   UNL     1       5.199   5.491  15.686  0.00  0.00    +0.000 A 
ATOM      8  N   UNL     1       5.338   4.716  16.809  0.00  0.00    +0.000 N 
ATOM      9  C   UNL     1       6.329   5.286  17.568  0.00  0.00    +0.000 A 
ATOM     10  N   UNL     1       6.855   4.831  18.718  0.00  0.00    +0.000 NA
ATOM     11  H   UNL     1       9.390   5.688  20.321  0.00  0.00    +0.000 HD
ATOM     12  H   UNL     1       8.512   4.212  20.298  0.00  0.00    +0.000 HD
ENDROOT
BRANCH   4  13
ATOM     13  O   UNL     1       7.864   8.556  17.214  0.00  0.00    +0.000 OA
ATOM     14  H   UNL     1       7.797   8.468  16.248  0.00  0.00    +0.000 HD
ENDBRANCH   4  13
BRANCH   8  15
ATOM     15  C   UNL     1       4.383   3.734  17.285  0.00  0.00    +0.000 C 
BRANCH  15  16
ATOM     16  C   UNL     1       3.706   4.018  18.637  0.00  0.00    +0.000 C 
BRANCH  16  17
ATOM     17  C   UNL     1       3.204   2.697  19.268  0.00  0.00    +0.000 C 
BRANCH  17  18
ATOM     18  C   UNL     1       4.270   1.660  19.584  0.00  0.00    +0.000 C 
BRANCH  18  19
ATOM     19  O   UNL     1       4.257   0.643  18.595  0.00  0.00    +0.000 OA
ATOM     20  H   UNL     1       3.681   0.922  17.865  0.00  0.00    +0.000 HD
ENDBRANCH  18  19
ENDBRANCH  17  18
ENDBRANCH  16  17
BRANCH  16  21
ATOM     21  O   UNL     1       2.589   4.894  18.405  0.00  0.00    +0.000 OA
BRANCH  21  22
ATOM     22  C   UNL     1       2.630   6.084  19.215  0.00  0.00    +0.000 C 
BRANCH  22  23
ATOM     23  P   UNL     1       2.255   7.574  18.220  0.00  0.00    +0.000 P 
ATOM     24  O   UNL     1       1.963   8.401  19.474  0.00  0.00    +0.000 OA
BRANCH  23  25
ATOM     25  O   UNL     1       3.845   7.817  17.903  0.00  0.00    +0.000 OA
ATOM     26  H   UNL     1       4.313   6.959  17.956  0.00  0.00    +0.000 HD
ENDBRANCH  23  25
BRANCH  23  27
ATOM     27  O   UNL     1       1.903   8.982  17.278  0.00  0.00    +0.000 OA
ATOM     28  H   UNL     1       1.038   9.288  17.620  0.00  0.00    +0.000 HD
ENDBRANCH  23  27
ENDBRANCH  22  23
ENDBRANCH  21  22
ENDBRANCH  16  21
ENDBRANCH  15  16
ENDBRANCH   8  15
TORSDOF 11
ENDMDL
MODEL 7
REMARK VINA RESULT:      -6.5      2.159      4.084
REMARK  Name = 
REMARK  11 active torsions:
REMARK  status: ('A' for Active; 'I' for Inactive)
REMARK    1  A    between atoms: C_4  and  O_5
REMARK    2  A    between atoms: N_9  and  C_10
REMARK    3  A    between atoms: C_10  and  C_11
REMARK    4  A    between atoms: C_11  and  C_12
REMARK    5  A    between atoms: C_11  and  O_15
REMARK    6  A    between atoms: C_12  and  C_13
REMARK    7  A    between atoms: C_13  and  O_14
REMARK    8  A    between atoms: O_15  and  C_16
REMARK    9  A    between atoms: C_16  and  P_17
REMARK   10  A    between atoms: P_17  and  O_19
REMARK   11  A    between atoms: P_17  and  O_20
REMARK                            x       y       z     vdW  Elec       q    Type
REMARK                         _______ _______ _______ _____ _____    ______ ____
ROOT
ATOM      1  N   UNL     1       3.928   0.709  18.506  0.00  0.00    +0.000 N 
ATOM      2  C   UNL     1       3.419   1.995  18.500  0.00  0.00    +0.000 A 
ATOM      3  N   UNL     1       2.284   2.182  19.192  0.00  0.00    +0.000 NA
ATOM      4  C   UNL     1       1.836   3.445  19.329  0.00  0.00    +0.000 A 
ATOM      5  C   UNL     1       2.542   4.519  18.800  0.00  0.00    +0.000 A 
ATOM      6  N   UNL     1       2.378   5.886  18.813  0.00  0.00    +0.000 NA
ATOM      7  C   UNL     1       3.359   6.353  18.068  0.00  0.00    +0.000 A 
ATOM      8  N   UNL     1       4.106   5.346  17.515  0.00  0.00    +0.000 N 
ATOM      9  C   UNL     1       3.656   4.168  18.056  0.00  0.00    +0.000 A 
ATOM     10  N   UNL     1       4.142   2.930  17.862  0.00  0.00    +0.000 NA
ATOM     11  H   UNL     1       3.595   0.235  19.335  0.00  0.00    +0.000 HD
ATOM     12  H   UNL     1       4.933   0.758  18.394  0.00  0.00    +0.000 HD
ENDROOT
BRANCH   4  13
ATOM     13  O   UNL     1       0.648   3.564  19.995  0.00  0.00    +0.000 OA
ATOM     14  H   UNL     1       0.044   3.761  19.259  0.00  0.00    +0.000 HD
ENDBRANCH   4  13
BRANCH   8  15
ATOM     15  C   UNL     1       4.929   5.457  16.325  0.00  0.00    +0.000 C 
BRANCH  15  16
ATOM     16  C   UNL     1       6.419   5.100  16.471  0.00  0.00    +0.000 C 
BRANCH  16  17
ATOM     17  C   UNL     1       7.187   6.280  17.113  0.00  0.00    +0.000 C 
BRANCH  17  18
ATOM     18  C   UNL     1       7.609   6.093  18.562  0.00  0.00    +0.000 C 
BRANCH  18  19
ATOM     19  O   UNL     1       7.573   4.715  18.897  0.00  0.00    +0.000 OA
ATOM     20  H   UNL     1       8.344   4.506  19.449  0.00  0.00    +0.000 HD
ENDBRANCH  18  19
ENDBRANCH  17  18
ENDBRANCH  16  17
BRANCH  16  21
ATOM     21  O   UNL     1       6.949   4.839  15.160  0.00  0.00    +0.000 OA
BRANCH  21  22
ATOM     22  C   UNL     1       5.930   4.772  14.144  0.00  0.00    +0.000 C 
BRANCH  22  23
ATOM     23  P   UNL     1       6.294   3.454  12.928  0.00  0.00    +0.000 P 
ATOM     24  O   UNL     1       4.900   3.572  12.307  0.00  0.00    +0.000 OA
BRANCH  23  25
ATOM     25  O   UNL     1       7.244   4.461  12.052  0.00  0.00    +0.000 OA
ATOM     26  H   UNL     1       8.000   4.745  12.606  0.00  0.00    +0.000 HD
ENDBRANCH  23  25
BRANCH  23  27
ATOM     27  O   UNL     1       6.638   2.208  11.778  0.00  0.00    +0.000 OA
ATOM     28  H   UNL     1       5.847   2.188  11.202  0.00  0.00    +0.000 HD
ENDBRANCH  23  27
ENDBRANCH  22  23
ENDBRANCH  21  22
ENDBRANCH  16  21
ENDBRANCH  15  16
ENDBRANCH   8  15
TORSDOF 11
ENDMDL
MODEL 8
REMARK VINA RESULT:      -6.5      1.503      2.815
REMARK  Name = 
REMARK  11 active torsions:
REMARK  status: ('A' for Active; 'I' for Inactive)
REMARK    1  A    between atoms: C_4  and  O_5
REMARK    2  A    between atoms: N_9  and  C_10
REMARK    3  A    between atoms: C_10  and  C_11
REMARK    4  A    between atoms: C_11  and  C_12
REMARK    5  A    between atoms: C_11  and  O_15
REMARK    6  A    between atoms: C_12  and  C_13
REMARK    7  A    between atoms: C_13  and  O_14
REMARK    8  A    between atoms: O_15  and  C_16
REMARK    9  A    between atoms: C_16  and  P_17
REMARK   10  A    between atoms: P_17  and  O_19
REMARK   11  A    between atoms: P_17  and  O_20
REMARK                            x       y       z     vdW  Elec       q    Type
REMARK                         _______ _______ _______ _____ _____    ______ ____
ROOT
ATOM      1  N   UNL     1       2.246   7.951  18.214  0.00  0.00    +0.000 N 
ATOM      2  C   UNL     1       2.613   6.681  18.623  0.00  0.00    +0.000 A 
ATOM      3  N   UNL     1       2.349   6.377  19.903  0.00  0.00    +0.000 NA
ATOM      4  C   UNL     1       2.558   5.107  20.300  0.00  0.00    +0.000 A 
ATOM      5  C   UNL     1       3.002   4.139  19.406  0.00  0.00    +0.000 A 
ATOM      6  N   UNL     1       3.255   2.788  19.489  0.00  0.00    +0.000 NA
ATOM      7  C   UNL     1       3.720   2.456  18.302  0.00  0.00    +0.000 A 
ATOM      8  N   UNL     1       3.847   3.544  17.478  0.00  0.00    +0.000 N 
ATOM      9  C   UNL     1       3.295   4.614  18.139  0.00  0.00    +0.000 A 
ATOM     10  N   UNL     1       3.132   5.868  17.688  0.00  0.00    +0.000 NA
ATOM     11  H   UNL     1       1.500   8.278  18.811  0.00  0.00    +0.000 HD
ATOM     12  H   UNL     1       2.045   7.925  17.222  0.00  0.00    +0.000 HD
ENDROOT
BRANCH   4  13
ATOM     13  O   UNL     1       2.325   4.872  21.627  0.00  0.00    +0.000 OA
ATOM     14  H   UNL     1       1.706   4.125  21.575  0.00  0.00    +0.000 HD
ENDBRANCH   4  13
BRANCH   8  15
ATOM     15  C   UNL     1       4.722   3.637  16.325  0.00  0.00    +0.000 C 
BRANCH  15  16
ATOM     16  C   UNL     1       5.394   4.997  16.067  0.00  0.00    +0.000 C 
BRANCH  16  17
ATOM     17  C   UNL     1       5.631   5.193  14.551  0.00  0.00    +0.000 C 
BRANCH  17  18
ATOM     18  C   UNL     1       6.776   4.398  13.945  0.00  0.00    +0.000 C 
BRANCH  18  19
ATOM     19  O   UNL     1       6.260   3.308  13.199  0.00  0.00    +0.000 OA
ATOM     20  H   UNL     1       5.739   3.654  12.456  0.00  0.00    +0.000 HD
ENDBRANCH  18  19
ENDBRANCH  17  18
ENDBRANCH  16  17
BRANCH  16  21
ATOM     21  O   UNL     1       6.656   5.012  16.756  0.00  0.00    +0.000 OA
BRANCH  21  22
ATOM     22  C   UNL     1       6.822   6.168  17.600  0.00  0.00    +0.000 C 
BRANCH  22  23
ATOM     23  P   UNL     1       7.595   5.715  19.196  0.00  0.00    +0.000 P 
ATOM     24  O   UNL     1       6.268   5.189  19.747  0.00  0.00    +0.000 OA
BRANCH  23  25
ATOM     25  O   UNL     1       8.331   4.414  18.524  0.00  0.00    +0.000 OA
ATOM     26  H   UNL     1       9.065   4.725  17.955  0.00  0.00    +0.000 HD
ENDBRANCH  23  25
BRANCH  23  27
ATOM     27  O   UNL     1       8.326   5.287  20.705  0.00  0.00    +0.000 OA
ATOM     28  H   UNL     1       7.828   4.497  20.996  0.00  0.00    +0.000 HD
ENDBRANCH  23  27
ENDBRANCH  22  23
ENDBRANCH  21  22
ENDBRANCH  16  21
ENDBRANCH  15  16
ENDBRANCH   8  15
TORSDOF 11
ENDMDL
MODEL 9
REMARK VINA RESULT:      -6.5      1.173      1.557
REMARK  Name = 
REMARK  11 active torsions:
REMARK  status: ('A' for Active; 'I' for Inactive)
REMARK    1  A    between atoms: C_4  and  O_5
REMARK    2  A    between atoms: N_9  and  C_10
REMARK    3  A    between atoms: C_10  and  C_11
REMARK    4  A    between atoms: C_11  and  C_12
REMARK    5  A    between atoms: C_11  and  O_15
REMARK    6  A    between atoms: C_12  and  C_13
REMARK    7  A    between atoms: C_13  and  O_14
REMARK    8  A    between atoms: O_15  and  C_16
REMARK    9  A    between atoms: C_16  and  P_17
REMARK   10  A    between atoms: P_17  and  O_19
REMARK   11  A    between atoms: P_17  and  O_20
REMARK                            x       y       z     vdW  Elec       q    Type
REMARK                         _______ _______ _______ _____ _____    ______ ____
ROOT
ATOM      1  N   UNL     1       5.414   1.385  21.395  0.00  0.00    +0.000 N 
ATOM      2  C   UNL     1       4.414   2.072  20.729  0.00  0.00    +0.000 A 
ATOM      3  N   UNL     1       3.255   2.211  21.391  0.00  0.00    +0.000 NA
ATOM      4  C   UNL     1       2.309   2.994  20.838  0.00  0.00    +0.000 A 
ATOM      5  C   UNL     1       2.538   3.660  19.639  0.00  0.00    +0.000 A 
ATOM      6  N   UNL     1       1.815   4.542  18.868  0.00  0.00    +0.000 NA
ATOM      7  C   UNL     1       2.565   4.759  17.807  0.00  0.00    +0.000 A 
ATOM      8  N   UNL     1       3.707   4.002  17.822  0.00  0.00    +0.000 N 
ATOM      9  C   UNL     1       3.751   3.368  19.039  0.00  0.00    +0.000 A 
ATOM     10  N   UNL     1       4.725   2.580  19.525  0.00  0.00    +0.000 NA
ATOM     11  H   UNL     1       5.247   1.458  22.388  0.00  0.00    +0.000 HD
ATOM     12  H   UNL     1       6.311   1.723  21.068  0.00  0.00    +0.000 HD
ENDROOT
BRANCH   4  13
ATOM     13  O   UNL     1       1.132   3.051  21.531  0.00  0.00    +0.000 OA
ATOM     14  H   UNL     1       1.321   3.772  22.155  0.00  0.00    +0.000 HD
ENDBRANCH   4  13
BRANCH   8  15
ATOM     15  C   UNL     1       4.498   3.637  16.662  0.00  0.00    +0.000 C 
BRANCH  15  16
ATOM     16  C   UNL     1       5.522   4.672  16.164  0.00  0.00    +0.000 C 
BRANCH  16  17
ATOM     17  C   UNL     1       5.526   4.714  14.617  0.00  0.00    +0.000 C 
BRANCH  17  18
ATOM     18  C   UNL     1       6.859   4.428  13.945  0.00  0.00    +0.000 C 
BRANCH  18  19
ATOM     19  O   UNL     1       7.759   5.496  14.193  0.00  0.00    +0.000 OA
ATOM     20  H   UNL     1       7.249   6.299  14.388  0.00  0.00    +0.000 HD
ENDBRANCH  18  19
ENDBRANCH  17  18
ENDBRANCH  16  17
BRANCH  16  21
ATOM     21  O   UNL     1       6.823   4.280  16.637  0.00  0.00    +0.000 OA
BRANCH  21  22
ATOM     22  C   UNL     1       7.203   4.948  17.855  0.00  0.00    +0.000 C 
BRANCH  22  23
ATOM     23  P   UNL     1       7.421   6.745  17.584  0.00  0.00    +0.000 P 
ATOM     24  O   UNL     1       5.987   7.038  18.033  0.00  0.00    +0.000 OA
BRANCH  23  25
ATOM     25  O   UNL     1       8.334   6.885  18.939  0.00  0.00    +0.000 OA
ATOM     26  H   UNL     1       9.269   6.708  18.709  0.00  0.00    +0.000 HD
ENDBRANCH  23  25
BRANCH  23  27
ATOM     27  O   UNL     1       7.628   8.444  17.329  0.00  0.00    +0.000 OA
ATOM     28  H   UNL     1       8.269   8.499  16.591  0.00  0.00    +0.000 HD
ENDBRANCH  23  27
ENDBRANCH  22  23
ENDBRANCH  21  22
ENDBRANCH  16  21
ENDBRANCH  15  16
ENDBRANCH   8  15
TORSDOF 11
ENDMDL
