MODEL 1
REMARK VINA RESULT:      -8.0      0.000      0.000
REMARK  Name = 
REMARK  6 active torsions:
REMARK  status: ('A' for Active; 'I' for Inactive)
REMARK    1  A    between atoms: C_1  and  C_2
REMARK    2  A    between atoms: C_4  and  O_5
REMARK    3  A    between atoms: N_8  and  N_9
REMARK    4  A    between atoms: C_10  and  C_11
REMARK    5  A    between atoms: C_12  and  C_13
REMARK    6  A    between atoms: N_15  and  C_16
REMARK                            x       y       z     vdW  Elec       q    Type
REMARK                         _______ _______ _______ _____ _____    ______ ____
ROOT
ATOM      1  C   UNL     1       6.906   6.548  18.052  0.00  0.00    +0.000 A 
ATOM      2  C   UNL     1       7.202   5.666  19.124  0.00  0.00    +0.000 A 
ATOM      3  C   UNL     1       8.421   5.591  19.977  0.00  0.00    +0.000 C 
ATOM      4  N   UNL     1       6.195   4.812  19.364  0.00  0.00    +0.000 NA
ATOM      5  N   UNL     1       5.227   5.118  18.460  0.00  0.00    +0.000 N 
ATOM      6  C   UNL     1       5.652   6.159  17.648  0.00  0.00    +0.000 A 
ATOM      7 CL   UNL     1       4.652   6.929  16.486  0.00  0.00    +0.000 Cl
ENDROOT
BRANCH   5   8
ATOM      8  C   UNL     1       3.986   4.414  18.436  0.00  0.00    +0.000 A 
ATOM      9  C   UNL     1       3.948   3.137  17.847  0.00  0.00    +0.000 A 
ATOM     10  C   UNL     1       2.736   2.493  17.593  0.00  0.00    +0.000 A 
ATOM     11  C   UNL     1       1.546   3.089  17.980  0.00  0.00    +0.000 A 
ATOM     12  C   UNL     1       1.573   4.305  18.663  0.00  0.00    +0.000 A 
ATOM     13  C   UNL     1       2.785   4.974  18.906  0.00  0.00    +0.000 A 
ATOM     14 CL   UNL     1       2.635   6.516  19.675  0.00  0.00    +0.000 Cl
ENDBRANCH   5   8
BRANCH   1  16
ATOM     15  N   UNL     1       8.066   8.583  18.247  0.00  0.00    +0.000 NA
ATOM     16  C   UNL     1       7.659   7.638  17.479  0.00  0.00    +0.000 C 
BRANCH  15  23
ATOM     17  C   UNL     1       9.164  11.809  21.890  0.00  0.00    +0.000 C 
ATOM     18  C   UNL     1       9.466  11.772  20.424  0.00  0.00    +0.000 A 
ATOM     19  C   UNL     1      10.175  12.778  19.813  0.00  0.00    +0.000 A 
ATOM     20  C   UNL     1      10.359  12.629  18.461  0.00  0.00    +0.000 A 
ATOM     21  N   UNL     1       9.895  11.603  17.739  0.00  0.00    +0.000 NA
ATOM     22  C   UNL     1       9.233  10.656  18.411  0.00  0.00    +0.000 A 
ATOM     23  N   UNL     1       8.787   9.565  17.661  0.00  0.00    +0.000 N 
ATOM     24  N   UNL     1       9.004  10.711  19.738  0.00  0.00    +0.000 NA
ATOM     25  H   UNL     1       8.862   9.727  16.664  0.00  0.00    +0.000 HD
BRANCH  20  26
ATOM     26  O   UNL     1      11.060  13.556  17.744  0.00  0.00    +0.000 OA
ATOM     27  H   UNL     1      11.773  13.102  17.271  0.00  0.00    +0.000 HD
ENDBRANCH  20  26
ENDBRANCH  15  23
ENDBRANCH   1  16
TORSDOF 4
ENDMDL
MODEL 2
REMARK VINA RESULT:      -7.7      5.570      7.118
REMARK  Name = 
REMARK  6 active torsions:
REMARK  status: ('A' for Active; 'I' for Inactive)
REMARK    1  A    between atoms: C_1  and  C_2
REMARK    2  A    between atoms: C_4  and  O_5
REMARK    3  A    between atoms: N_8  and  N_9
REMARK    4  A    between atoms: C_10  and  C_11
REMARK    5  A    between atoms: C_12  and  C_13
REMARK    6  A    between atoms: N_15  and  C_16
REMARK                            x       y       z     vdW  Elec       q    Type
REMARK                         _______ _______ _______ _____ _____    ______ ____
ROOT
ATOM      1  C   UNL     1       2.286   5.811  20.073  0.00  0.00    +0.000 A 
ATOM      2  C   UNL     1       2.705   4.509  20.448  0.00  0.00    +0.000 A 
ATOM      3  C   UNL     1       2.182   3.622  21.525  0.00  0.00    +0.000 C 
ATOM      4  N   UNL     1       3.706   4.060  19.674  0.00  0.00    +0.000 NA
ATOM      5  N   UNL     1       3.959   5.055  18.784  0.00  0.00    +0.000 N 
ATOM      6  C   UNL     1       3.115   6.130  19.024  0.00  0.00    +0.000 A 
ATOM      7 CL   UNL     1       3.027   7.514  18.015  0.00  0.00    +0.000 Cl
ENDROOT
BRANCH   5   8
ATOM      8  C   UNL     1       4.965   4.915  17.781  0.00  0.00    +0.000 A 
ATOM      9  C   UNL     1       4.574   4.525  16.486  0.00  0.00    +0.000 A 
ATOM     10  C   UNL     1       5.517   4.158  15.526  0.00  0.00    +0.000 A 
ATOM     11  C   UNL     1       6.868   4.234  15.825  0.00  0.00    +0.000 A 
ATOM     12  C   UNL     1       7.275   4.723  17.066  0.00  0.00    +0.000 A 
ATOM     13  C   UNL     1       6.335   5.075  18.050  0.00  0.00    +0.000 A 
ATOM     14 CL   UNL     1       7.004   5.568  19.568  0.00  0.00    +0.000 Cl
ENDBRANCH   5   8
BRANCH   1  16
ATOM     15  N   UNL     1       1.551   7.793  21.102  0.00  0.00    +0.000 NA
ATOM     16  C   UNL     1       1.236   6.660  20.583  0.00  0.00    +0.000 C 
BRANCH  15  23
ATOM     17  C   UNL     1       1.850  12.058  18.531  0.00  0.00    +0.000 C 
ATOM     18  C   UNL     1       0.918  11.559  19.593  0.00  0.00    +0.000 A 
ATOM     19  C   UNL     1      -0.110  12.339  20.065  0.00  0.00    +0.000 A 
ATOM     20  C   UNL     1      -0.872  11.768  21.055  0.00  0.00    +0.000 A 
ATOM     21  N   UNL     1      -0.667  10.549  21.564  0.00  0.00    +0.000 NA
ATOM     22  C   UNL     1       0.342   9.847  21.036  0.00  0.00    +0.000 A 
ATOM     23  N   UNL     1       0.526   8.557  21.541  0.00  0.00    +0.000 N 
ATOM     24  N   UNL     1       1.143  10.318  20.061  0.00  0.00    +0.000 NA
ATOM     25  H   UNL     1      -0.016   8.391  22.381  0.00  0.00    +0.000 HD
BRANCH  20  26
ATOM     26  O   UNL     1      -1.932  12.437  21.595  0.00  0.00    +0.000 OA
ATOM     27  H   UNL     1      -2.214  11.970  22.395  0.00  0.00    +0.000 HD
ENDBRANCH  20  26
ENDBRANCH  15  23
ENDBRANCH   1  16
TORSDOF 4
ENDMDL
MODEL 3
REMARK VINA RESULT:      -7.6      0.944      1.445
REMARK  Name = 
REMARK  6 active torsions:
REMARK  status: ('A' for Active; 'I' for Inactive)
REMARK    1  A    between atoms: C_1  and  C_2
REMARK    2  A    between atoms: C_4  and  O_5
REMARK    3  A    between atoms: N_8  and  N_9
REMARK    4  A    between atoms: C_10  and  C_11
REMARK    5  A    between atoms: C_12  and  C_13
REMARK    6  A    between atoms: N_15  and  C_16
REMARK                            x       y       z     vdW  Elec       q    Type
REMARK                         _______ _______ _______ _____ _____    ______ ____
ROOT
ATOM      1  C   UNL     1       6.738   6.598  18.222  0.00  0.00    +0.000 A 
ATOM      2  C   UNL     1       7.040   5.645  19.229  0.00  0.00    +0.000 A 
ATOM      3  C   UNL     1       8.331   5.383  19.925  0.00  0.00    +0.000 C 
ATOM      4  N   UNL     1       5.965   4.919  19.572  0.00  0.00    +0.000 NA
ATOM      5  N   UNL     1       4.946   5.380  18.800  0.00  0.00    +0.000 N 
ATOM      6  C   UNL     1       5.405   6.389  17.965  0.00  0.00    +0.000 A 
ATOM      7 CL   UNL     1       4.384   7.323  16.952  0.00  0.00    +0.000 Cl
ENDROOT
BRANCH   5   8
ATOM      8  C   UNL     1       3.628   4.843  18.912  0.00  0.00    +0.000 A 
ATOM      9  C   UNL     1       2.854   5.188  20.035  0.00  0.00    +0.000 A 
ATOM     10  C   UNL     1       1.656   4.531  20.317  0.00  0.00    +0.000 A 
ATOM     11  C   UNL     1       1.181   3.563  19.447  0.00  0.00    +0.000 A 
ATOM     12  C   UNL     1       1.881   3.287  18.272  0.00  0.00    +0.000 A 
ATOM     13  C   UNL     1       3.100   3.925  17.987  0.00  0.00    +0.000 A 
ATOM     14 CL   UNL     1       3.889   3.397  16.541  0.00  0.00    +0.000 Cl
ENDBRANCH   5   8
BRANCH   1  16
ATOM     15  N   UNL     1       8.006   8.576  18.292  0.00  0.00    +0.000 NA
ATOM     16  C   UNL     1       7.555   7.603  17.585  0.00  0.00    +0.000 C 
BRANCH  15  23
ATOM     17  C   UNL     1       9.326  11.929  21.743  0.00  0.00    +0.000 C 
ATOM     18  C   UNL     1       9.617  11.788  20.280  0.00  0.00    +0.000 A 
ATOM     19  C   UNL     1      10.386  12.711  19.612  0.00  0.00    +0.000 A 
ATOM     20  C   UNL     1      10.553  12.473  18.270  0.00  0.00    +0.000 A 
ATOM     21  N   UNL     1      10.021  11.439  17.609  0.00  0.00    +0.000 NA
ATOM     22  C   UNL     1       9.303  10.576  18.336  0.00  0.00    +0.000 A 
ATOM     23  N   UNL     1       8.785   9.475  17.650  0.00  0.00    +0.000 N 
ATOM     24  N   UNL     1       9.085  10.721  19.657  0.00  0.00    +0.000 NA
ATOM     25  H   UNL     1       8.865   9.575  16.645  0.00  0.00    +0.000 HD
BRANCH  20  26
ATOM     26  O   UNL     1      11.308  13.310  17.501  0.00  0.00    +0.000 OA
ATOM     27  H   UNL     1      12.238  13.057  17.595  0.00  0.00    +0.000 HD
ENDBRANCH  20  26
ENDBRANCH  15  23
ENDBRANCH   1  16
TORSDOF 4
ENDMDL
MODEL 4
REMARK VINA RESULT:      -7.5      6.941      9.448
REMARK  Name = 
REMARK  6 active torsions:
REMARK  status: ('A' for Active; 'I' for Inactive)
REMARK    1  A    between atoms: C_1  and  C_2
REMARK    2  A    between atoms: C_4  and  O_5
REMARK    3  A    between atoms: N_8  and  N_9
REMARK    4  A    between atoms: C_10  and  C_11
REMARK    5  A    between atoms: C_12  and  C_13
REMARK    6  A    between atoms: N_15  and  C_16
REMARK                            x       y       z     vdW  Elec       q    Type
REMARK                         _______ _______ _______ _____ _____    ______ ____
ROOT
ATOM      1  C   UNL     1       0.616   9.207  20.844  0.00  0.00    +0.000 A 
ATOM      2  C   UNL     1       0.379  10.016  19.703  0.00  0.00    +0.000 A 
ATOM      3  C   UNL     1       0.645   9.724  18.267  0.00  0.00    +0.000 C 
ATOM      4  N   UNL     1      -0.178  11.192  20.029  0.00  0.00    +0.000 NA
ATOM      5  N   UNL     1      -0.316  11.175  21.381  0.00  0.00    +0.000 N 
ATOM      6  C   UNL     1       0.175   9.982  21.890  0.00  0.00    +0.000 A 
ATOM      7 CL   UNL     1       0.038   9.522  23.536  0.00  0.00    +0.000 Cl
ENDROOT
BRANCH   5   8
ATOM      8  C   UNL     1      -0.901  12.272  22.081  0.00  0.00    +0.000 A 
ATOM      9  C   UNL     1      -2.164  12.094  22.676  0.00  0.00    +0.000 A 
ATOM     10  C   UNL     1      -2.885  13.177  23.180  0.00  0.00    +0.000 A 
ATOM     11  C   UNL     1      -2.328  14.446  23.154  0.00  0.00    +0.000 A 
ATOM     12  C   UNL     1      -1.032  14.622  22.668  0.00  0.00    +0.000 A 
ATOM     13  C   UNL     1      -0.304  13.543  22.138  0.00  0.00    +0.000 A 
ATOM     14 CL   UNL     1       1.247  13.949  21.486  0.00  0.00    +0.000 Cl
ENDBRANCH   5   8
BRANCH   1  16
ATOM     15  N   UNL     1       2.116   7.514  20.205  0.00  0.00    +0.000 NA
ATOM     16  C   UNL     1       1.150   7.872  20.973  0.00  0.00    +0.000 C 
BRANCH  15  23
ATOM     17  C   UNL     1       5.010   6.588  16.249  0.00  0.00    +0.000 C 
ATOM     18  C   UNL     1       4.628   5.786  17.455  0.00  0.00    +0.000 A 
ATOM     19  C   UNL     1       5.087   4.503  17.634  0.00  0.00    +0.000 A 
ATOM     20  C   UNL     1       4.640   3.874  18.771  0.00  0.00    +0.000 A 
ATOM     21  N   UNL     1       3.810   4.421  19.666  0.00  0.00    +0.000 NA
ATOM     22  C   UNL     1       3.426   5.679  19.427  0.00  0.00    +0.000 A 
ATOM     23  N   UNL     1       2.594   6.262  20.386  0.00  0.00    +0.000 N 
ATOM     24  N   UNL     1       3.813   6.381  18.344  0.00  0.00    +0.000 NA
ATOM     25  H   UNL     1       2.236   5.584  21.048  0.00  0.00    +0.000 HD
BRANCH  20  26
ATOM     26  O   UNL     1       5.037   2.602  19.068  0.00  0.00    +0.000 OA
ATOM     27  H   UNL     1       6.004   2.566  19.025  0.00  0.00    +0.000 HD
ENDBRANCH  20  26
ENDBRANCH  15  23
ENDBRANCH   1  16
TORSDOF 4
ENDMDL
MODEL 5
REMARK VINA RESULT:      -7.5      6.377      9.105
REMARK  Name = 
REMARK  6 active torsions:
REMARK  status: ('A' for Active; 'I' for Inactive)
REMARK    1  A    between atoms: C_1  and  C_2
REMARK    2  A    between atoms: C_4  and  O_5
REMARK    3  A    between atoms: N_8  and  N_9
REMARK    4  A    between atoms: C_10  and  C_11
REMARK    5  A    between atoms: C_12  and  C_13
REMARK    6  A    between atoms: N_15  and  C_16
REMARK                            x       y       z     vdW  Elec       q    Type
REMARK                         _______ _______ _______ _____ _____    ______ ____
ROOT
ATOM      1  C   UNL     1       0.897   9.083  20.894  0.00  0.00    +0.000 A 
ATOM      2  C   UNL     1       0.487   9.858  22.010  0.00  0.00    +0.000 A 
ATOM      3  C   UNL     1       0.163   9.419  23.396  0.00  0.00    +0.000 C 
ATOM      4  N   UNL     1       0.414  11.165  21.714  0.00  0.00    +0.000 NA
ATOM      5  N   UNL     1       0.774  11.269  20.408  0.00  0.00    +0.000 N 
ATOM      6  C   UNL     1       1.054  10.012  19.893  0.00  0.00    +0.000 A 
ATOM      7 CL   UNL     1       1.689   9.747  18.323  0.00  0.00    +0.000 Cl
ENDROOT
BRANCH   5   8
ATOM      8  C   UNL     1       0.829  12.536  19.753  0.00  0.00    +0.000 A 
ATOM      9  C   UNL     1       1.991  13.317  19.897  0.00  0.00    +0.000 A 
ATOM     10  C   UNL     1       2.026  14.646  19.472  0.00  0.00    +0.000 A 
ATOM     11  C   UNL     1       0.922  15.196  18.840  0.00  0.00    +0.000 A 
ATOM     12  C   UNL     1      -0.198  14.402  18.592  0.00  0.00    +0.000 A 
ATOM     13  C   UNL     1      -0.254  13.069  19.034  0.00  0.00    +0.000 A 
ATOM     14 CL   UNL     1      -1.751  12.254  18.733  0.00  0.00    +0.000 Cl
ENDBRANCH   5   8
BRANCH   1  16
ATOM     15  N   UNL     1       2.255   7.283  20.230  0.00  0.00    +0.000 NA
ATOM     16  C   UNL     1       1.148   7.668  20.755  0.00  0.00    +0.000 C 
BRANCH  15  23
ATOM     17  C   UNL     1       5.024   6.566  16.143  0.00  0.00    +0.000 C 
ATOM     18  C   UNL     1       4.437   5.641  17.164  0.00  0.00    +0.000 A 
ATOM     19  C   UNL     1       4.604   4.279  17.074  0.00  0.00    +0.000 A 
ATOM     20  C   UNL     1       3.992   3.548  18.062  0.00  0.00    +0.000 A 
ATOM     21  N   UNL     1       3.267   4.070  19.057  0.00  0.00    +0.000 NA
ATOM     22  C   UNL     1       3.170   5.403  19.083  0.00  0.00    +0.000 A 
ATOM     23  N   UNL     1       2.448   5.947  20.148  0.00  0.00    +0.000 N 
ATOM     24  N   UNL     1       3.736   6.207  18.162  0.00  0.00    +0.000 NA
ATOM     25  H   UNL     1       1.929   5.244  20.661  0.00  0.00    +0.000 HD
BRANCH  20  26
ATOM     26  O   UNL     1       4.098   2.187  18.091  0.00  0.00    +0.000 OA
ATOM     27  H   UNL     1       4.749   1.916  17.427  0.00  0.00    +0.000 HD
ENDBRANCH  20  26
ENDBRANCH  15  23
ENDBRANCH   1  16
TORSDOF 4
ENDMDL
MODEL 6
REMARK VINA RESULT:      -7.5      6.895      9.337
REMARK  Name = 
REMARK  6 active torsions:
REMARK  status: ('A' for Active; 'I' for Inactive)
REMARK    1  A    between atoms: C_1  and  C_2
REMARK    2  A    between atoms: C_4  and  O_5
REMARK    3  A    between atoms: N_8  and  N_9
REMARK    4  A    between atoms: C_10  and  C_11
REMARK    5  A    between atoms: C_12  and  C_13
REMARK    6  A    between atoms: N_15  and  C_16
REMARK                            x       y       z     vdW  Elec       q    Type
REMARK                         _______ _______ _______ _____ _____    ______ ____
ROOT
ATOM      1  C   UNL     1       0.808   9.333  20.646  0.00  0.00    +0.000 A 
ATOM      2  C   UNL     1       0.830  10.159  19.492  0.00  0.00    +0.000 A 
ATOM      3  C   UNL     1       1.501   9.933  18.181  0.00  0.00    +0.000 C 
ATOM      4  N   UNL     1       0.114  11.281  19.665  0.00  0.00    +0.000 NA
ATOM      5  N   UNL     1      -0.387  11.210  20.926  0.00  0.00    +0.000 N 
ATOM      6  C   UNL     1       0.038  10.040  21.538  0.00  0.00    +0.000 A 
ATOM      7 CL   UNL     1      -0.508   9.519  23.077  0.00  0.00    +0.000 Cl
ENDROOT
BRANCH   5   8
ATOM      8  C   UNL     1      -1.226  12.239  21.449  0.00  0.00    +0.000 A 
ATOM      9  C   UNL     1      -0.871  12.839  22.672  0.00  0.00    +0.000 A 
ATOM     10  C   UNL     1      -1.753  13.685  23.345  0.00  0.00    +0.000 A 
ATOM     11  C   UNL     1      -2.978  13.996  22.776  0.00  0.00    +0.000 A 
ATOM     12  C   UNL     1      -3.299  13.496  21.514  0.00  0.00    +0.000 A 
ATOM     13  C   UNL     1      -2.429  12.625  20.835  0.00  0.00    +0.000 A 
ATOM     14 CL   UNL     1      -3.021  12.019  19.327  0.00  0.00    +0.000 Cl
ENDBRANCH   5   8
BRANCH   1  16
ATOM     15  N   UNL     1       2.063   7.463  19.970  0.00  0.00    +0.000 NA
ATOM     16  C   UNL     1       1.390   8.037  20.902  0.00  0.00    +0.000 C 
BRANCH  15  23
ATOM     17  C   UNL     1       5.064   6.335  16.148  0.00  0.00    +0.000 C 
ATOM     18  C   UNL     1       4.708   5.629  17.421  0.00  0.00    +0.000 A 
ATOM     19  C   UNL     1       5.234   4.397  17.726  0.00  0.00    +0.000 A 
ATOM     20  C   UNL     1       4.805   3.853  18.912  0.00  0.00    +0.000 A 
ATOM     21  N   UNL     1       3.933   4.434  19.742  0.00  0.00    +0.000 NA
ATOM     22  C   UNL     1       3.483   5.641  19.382  0.00  0.00    +0.000 A 
ATOM     23  N   UNL     1       2.606   6.263  20.274  0.00  0.00    +0.000 N 
ATOM     24  N   UNL     1       3.848   6.258  18.241  0.00  0.00    +0.000 NA
ATOM     25  H   UNL     1       2.276   5.631  20.993  0.00  0.00    +0.000 HD
BRANCH  20  26
ATOM     26  O   UNL     1       5.267   2.640  19.332  0.00  0.00    +0.000 OA
ATOM     27  H   UNL     1       5.992   2.370  18.749  0.00  0.00    +0.000 HD
ENDBRANCH  20  26
ENDBRANCH  15  23
ENDBRANCH   1  16
TORSDOF 4
ENDMDL
MODEL 7
REMARK VINA RESULT:      -7.4      5.789      7.131
REMARK  Name = 
REMARK  6 active torsions:
REMARK  status: ('A' for Active; 'I' for Inactive)
REMARK    1  A    between atoms: C_1  and  C_2
REMARK    2  A    between atoms: C_4  and  O_5
REMARK    3  A    between atoms: N_8  and  N_9
REMARK    4  A    between atoms: C_10  and  C_11
REMARK    5  A    between atoms: C_12  and  C_13
REMARK    6  A    between atoms: N_15  and  C_16
REMARK                            x       y       z     vdW  Elec       q    Type
REMARK                         _______ _______ _______ _____ _____    ______ ____
ROOT
ATOM      1  C   UNL     1       3.127   4.632  19.154  0.00  0.00    +0.000 A 
ATOM      2  C   UNL     1       3.086   3.288  18.702  0.00  0.00    +0.000 A 
ATOM      3  C   UNL     1       2.335   2.127  19.258  0.00  0.00    +0.000 C 
ATOM      4  N   UNL     1       3.838   3.103  17.607  0.00  0.00    +0.000 NA
ATOM      5  N   UNL     1       4.382   4.315  17.322  0.00  0.00    +0.000 N 
ATOM      6  C   UNL     1       3.971   5.249  18.262  0.00  0.00    +0.000 A 
ATOM      7 CL   UNL     1       4.322   6.924  18.156  0.00  0.00    +0.000 Cl
ENDROOT
BRANCH   5   8
ATOM      8  C   UNL     1       5.235   4.499  16.193  0.00  0.00    +0.000 A 
ATOM      9  C   UNL     1       4.708   4.275  14.908  0.00  0.00    +0.000 A 
ATOM     10  C   UNL     1       5.536   4.221  13.786  0.00  0.00    +0.000 A 
ATOM     11  C   UNL     1       6.896   4.453  13.923  0.00  0.00    +0.000 A 
ATOM     12  C   UNL     1       7.417   4.786  15.173  0.00  0.00    +0.000 A 
ATOM     13  C   UNL     1       6.598   4.822  16.314  0.00  0.00    +0.000 A 
ATOM     14 CL   UNL     1       7.418   5.153  17.802  0.00  0.00    +0.000 Cl
ENDBRANCH   5   8
BRANCH   1  16
ATOM     15  N   UNL     1       2.110   6.521  20.114  0.00  0.00    +0.000 NA
ATOM     16  C   UNL     1       2.455   5.292  20.248  0.00  0.00    +0.000 C 
BRANCH  15  23
ATOM     17  C   UNL     1       1.061  11.193  18.711  0.00  0.00    +0.000 C 
ATOM     18  C   UNL     1       0.808  10.413  19.965  0.00  0.00    +0.000 A 
ATOM     19  C   UNL     1       0.175  10.981  21.045  0.00  0.00    +0.000 A 
ATOM     20  C   UNL     1       0.029  10.162  22.137  0.00  0.00    +0.000 A 
ATOM     21  N   UNL     1       0.462   8.898  22.202  0.00  0.00    +0.000 NA
ATOM     22  C   UNL     1       1.050   8.415  21.103  0.00  0.00    +0.000 A 
ATOM     23  N   UNL     1       1.462   7.081  21.160  0.00  0.00    +0.000 N 
ATOM     24  N   UNL     1       1.236   9.138  19.982  0.00  0.00    +0.000 NA
ATOM     25  H   UNL     1       1.430   6.708  22.102  0.00  0.00    +0.000 HD
BRANCH  20  26
ATOM     26  O   UNL     1      -0.596  10.606  23.265  0.00  0.00    +0.000 OA
ATOM     27  H   UNL     1      -0.720   9.854  23.864  0.00  0.00    +0.000 HD
ENDBRANCH  20  26
ENDBRANCH  15  23
ENDBRANCH   1  16
TORSDOF 4
ENDMDL
MODEL 8
REMARK VINA RESULT:      -7.2      6.580      8.351
REMARK  Name = 
REMARK  6 active torsions:
REMARK  status: ('A' for Active; 'I' for Inactive)
REMARK    1  A    between atoms: C_1  and  C_2
REMARK    2  A    between atoms: C_4  and  O_5
REMARK    3  A    between atoms: N_8  and  N_9
REMARK    4  A    between atoms: C_10  and  C_11
REMARK    5  A    between atoms: C_12  and  C_13
REMARK    6  A    between atoms: N_15  and  C_16
REMARK                            x       y       z     vdW  Elec       q    Type
REMARK                         _______ _______ _______ _____ _____    ______ ____
ROOT
ATOM      1  C   UNL     1       1.657   8.032  19.719  0.00  0.00    +0.000 A 
ATOM      2  C   UNL     1       2.090   8.734  18.565  0.00  0.00    +0.000 A 
ATOM      3  C   UNL     1       1.750  10.113  18.116  0.00  0.00    +0.000 C 
ATOM      4  N   UNL     1       2.935   8.004  17.821  0.00  0.00    +0.000 NA
ATOM      5  N   UNL     1       3.070   6.818  18.470  0.00  0.00    +0.000 N 
ATOM      6  C   UNL     1       2.288   6.815  19.616  0.00  0.00    +0.000 A 
ATOM      7 CL   UNL     1       2.309   5.556  20.780  0.00  0.00    +0.000 Cl
ENDROOT
BRANCH   5   8
ATOM      8  C   UNL     1       3.923   5.790  17.968  0.00  0.00    +0.000 A 
ATOM      9  C   UNL     1       5.302   6.053  17.860  0.00  0.00    +0.000 A 
ATOM     10  C   UNL     1       6.152   5.183  17.178  0.00  0.00    +0.000 A 
ATOM     11  C   UNL     1       5.650   4.005  16.647  0.00  0.00    +0.000 A 
ATOM     12  C   UNL     1       4.308   3.678  16.840  0.00  0.00    +0.000 A 
ATOM     13  C   UNL     1       3.436   4.555  17.507  0.00  0.00    +0.000 A 
ATOM     14 CL   UNL     1       1.784   4.044  17.574  0.00  0.00    +0.000 Cl
ENDBRANCH   5   8
BRANCH   1  16
ATOM     15  N   UNL     1       1.089   9.477  21.484  0.00  0.00    +0.000 NA
ATOM     16  C   UNL     1       0.794   8.425  20.808  0.00  0.00    +0.000 C 
BRANCH  15  23
ATOM     17  C   UNL     1      -1.994  12.870  19.515  0.00  0.00    +0.000 C 
ATOM     18  C   UNL     1      -1.878  12.250  20.873  0.00  0.00    +0.000 A 
ATOM     19  C   UNL     1      -2.726  12.605  21.895  0.00  0.00    +0.000 A 
ATOM     20  C   UNL     1      -2.493  11.977  23.095  0.00  0.00    +0.000 A 
ATOM     21  N   UNL     1      -1.521  11.084  23.309  0.00  0.00    +0.000 NA
ATOM     22  C   UNL     1      -0.753  10.779  22.258  0.00  0.00    +0.000 A 
ATOM     23  N   UNL     1       0.233   9.814  22.475  0.00  0.00    +0.000 N 
ATOM     24  N   UNL     1      -0.905  11.337  21.041  0.00  0.00    +0.000 NA
ATOM     25  H   UNL     1       0.361   9.607  23.459  0.00  0.00    +0.000 HD
BRANCH  20  26
ATOM     26  O   UNL     1      -3.277  12.234  24.182  0.00  0.00    +0.000 OA
ATOM     27  H   UNL     1      -2.737  12.132  24.980  0.00  0.00    +0.000 HD
ENDBRANCH  20  26
ENDBRANCH  15  23
ENDBRANCH   1  16
TORSDOF 4
ENDMDL
MODEL 9
REMARK VINA RESULT:      -7.2      1.098      1.286
REMARK  Name = 
REMARK  6 active torsions:
REMARK  status: ('A' for Active; 'I' for Inactive)
REMARK    1  A    between atoms: C_1  and  C_2
REMARK    2  A    between atoms: C_4  and  O_5
REMARK    3  A    between atoms: N_8  and  N_9
REMARK    4  A    between atoms: C_10  and  C_11
REMARK    5  A    between atoms: C_12  and  C_13
REMARK    6  A    between atoms: N_15  and  C_16
REMARK                            x       y       z     vdW  Elec       q    Type
REMARK                         _______ _______ _______ _____ _____    ______ ____
ROOT
ATOM      1  C   UNL     1       6.850   6.410  18.059  0.00  0.00    +0.000 A 
ATOM      2  C   UNL     1       7.083   5.555  19.167  0.00  0.00    +0.000 A 
ATOM      3  C   UNL     1       8.260   5.490  20.078  0.00  0.00    +0.000 C 
ATOM      4  N   UNL     1       6.054   4.722  19.384  0.00  0.00    +0.000 NA
ATOM      5  N   UNL     1       5.134   5.013  18.428  0.00  0.00    +0.000 N 
ATOM      6  C   UNL     1       5.610   6.026  17.607  0.00  0.00    +0.000 A 
ATOM      7 CL   UNL     1       4.675   6.774  16.379  0.00  0.00    +0.000 Cl
ENDROOT
BRANCH   5   8
ATOM      8  C   UNL     1       3.885   4.325  18.365  0.00  0.00    +0.000 A 
ATOM      9  C   UNL     1       2.829   4.911  17.642  0.00  0.00    +0.000 A 
ATOM     10  C   UNL     1       1.531   4.408  17.723  0.00  0.00    +0.000 A 
ATOM     11  C   UNL     1       1.278   3.274  18.478  0.00  0.00    +0.000 A 
ATOM     12  C   UNL     1       2.333   2.617  19.112  0.00  0.00    +0.000 A 
ATOM     13  C   UNL     1       3.642   3.126  19.056  0.00  0.00    +0.000 A 
ATOM     14 CL   UNL     1       4.815   2.248  19.978  0.00  0.00    +0.000 Cl
ENDBRANCH   5   8
BRANCH   1  16
ATOM     15  N   UNL     1       7.971   8.468  18.234  0.00  0.00    +0.000 NA
ATOM     16  C   UNL     1       7.643   7.474  17.490  0.00  0.00    +0.000 C 
BRANCH  15  23
ATOM     17  C   UNL     1       9.105  11.677  21.882  0.00  0.00    +0.000 C 
ATOM     18  C   UNL     1       9.433  11.621  20.421  0.00  0.00    +0.000 A 
ATOM     19  C   UNL     1      10.186  12.601  19.820  0.00  0.00    +0.000 A 
ATOM     20  C   UNL     1      10.391  12.438  18.472  0.00  0.00    +0.000 A 
ATOM     21  N   UNL     1       9.908  11.424  17.746  0.00  0.00    +0.000 NA
ATOM     22  C   UNL     1       9.202  10.503  18.410  0.00  0.00    +0.000 A 
ATOM     23  N   UNL     1       8.736   9.423  17.657  0.00  0.00    +0.000 N 
ATOM     24  N   UNL     1       8.950  10.572  19.732  0.00  0.00    +0.000 NA
ATOM     25  H   UNL     1       8.835   9.577  16.661  0.00  0.00    +0.000 HD
BRANCH  20  26
ATOM     26  O   UNL     1      11.136  13.337  17.765  0.00  0.00    +0.000 OA
ATOM     27  H   UNL     1      11.491  13.994  18.382  0.00  0.00    +0.000 HD
ENDBRANCH  20  26
ENDBRANCH  15  23
ENDBRANCH   1  16
TORSDOF 4
ENDMDL
