MODEL 1
REMARK VINA RESULT:      -7.2      0.000      0.000
REMARK  Name = 
REMARK  8 active torsions:
REMARK  status: ('A' for Active; 'I' for Inactive)
REMARK    1  A    between atoms: C_1  and  C_2
REMARK    2  A    between atoms: C_2  and  C_3
REMARK    3  A    between atoms: C_2  and  N_4
REMARK    4  A    between atoms: C_8  and  C_9
REMARK    5  A    between atoms: C_17  and  O_18
REMARK    6  A    between atoms: O_18  and  C_19
REMARK    7  A    between atoms: C_19  and  C_20
REMARK    8  A    between atoms: C_19  and  C_21
REMARK                            x       y       z     vdW  Elec       q    Type
REMARK                         _______ _______ _______ _____ _____    ______ ____
ROOT
ATOM      1  C   UNL     1       1.419   7.132  20.530  0.00  0.00    +0.000 A 
ATOM      2  C   UNL     1       0.715   5.995  20.866  0.00  0.00    +0.000 A 
ATOM      3  N   UNL     1       1.377   4.968  20.234  0.00  0.00    +0.000 N 
ATOM      4  C   UNL     1       2.345   5.528  19.450  0.00  0.00    +0.000 A 
ATOM      5  N   UNL     1       2.410   6.827  19.645  0.00  0.00    +0.000 NA
ATOM      6  C   UNL     1       3.308   4.809  18.650  0.00  0.00    +0.000 A 
ATOM      7  C   UNL     1       3.651   5.301  17.398  0.00  0.00    +0.000 A 
ATOM      8  C   UNL     1       4.866   4.943  16.857  0.00  0.00    +0.000 A 
ATOM      9  C   UNL     1       5.825   4.497  17.758  0.00  0.00    +0.000 A 
ATOM     10  C   UNL     1       5.420   3.742  18.862  0.00  0.00    +0.000 A 
ATOM     11  C   UNL     1       4.083   3.811  19.237  0.00  0.00    +0.000 A 
ATOM     12  O   UNL     1       3.589   3.030  20.252  0.00  0.00    +0.000 OA
ATOM     13  C   UNL     1       2.244   2.592  19.938  0.00  0.00    +0.000 C 
ATOM     14  C   UNL     1       1.125   3.552  20.388  0.00  0.00    +0.000 C 
ENDROOT
BRANCH   1  19
ATOM     15  N   UNL     1       0.763   9.569  20.180  0.00  0.00    +0.000 N 
ATOM     16  N   UNL     1       0.504  10.666  20.926  0.00  0.00    +0.000 NA
ATOM     17  C   UNL     1       0.837  10.239  22.145  0.00  0.00    +0.000 A 
ATOM     18  N   UNL     1       1.302   8.960  22.220  0.00  0.00    +0.000 NA
ATOM     19  C   UNL     1       1.187   8.528  20.979  0.00  0.00    +0.000 A 
BRANCH  15  21
ATOM     20  C   UNL     1      -0.562  10.509  18.330  0.00  0.00    +0.000 C 
ATOM     21  C   UNL     1       0.597   9.596  18.728  0.00  0.00    +0.000 C 
ATOM     22  C   UNL     1       1.867  10.004  17.969  0.00  0.00    +0.000 C 
ENDBRANCH  15  21
ENDBRANCH   1  19
BRANCH   9  23
ATOM     23  O   UNL     1       7.124   4.969  17.726  0.00  0.00    +0.000 OA
BRANCH  23  24
ATOM     24  C   UNL     1       7.385   6.001  18.725  0.00  0.00    +0.000 C 
ATOM     25  C   UNL     1       8.450   5.592  19.738  0.00  0.00    +0.000 C 
BRANCH  24  26
ATOM     26  C   UNL     1       7.873   7.240  17.979  0.00  0.00    +0.000 C 
ATOM     27  N   UNL     1       8.595   8.123  18.734  0.00  0.00    +0.000 N 
ATOM     28  O   UNL     1       7.629   7.462  16.793  0.00  0.00    +0.000 OA
ATOM     29  H   UNL     1       9.031   7.763  19.582  0.00  0.00    +0.000 HD
ATOM     30  H   UNL     1       9.032   8.895  18.246  0.00  0.00    +0.000 HD
ENDBRANCH  24  26
ENDBRANCH  23  24
ENDBRANCH   9  23
TORSDOF 5
ENDMDL
MODEL 2
REMARK VINA RESULT:      -6.6      4.241      7.875
REMARK  Name = 
REMARK  8 active torsions:
REMARK  status: ('A' for Active; 'I' for Inactive)
REMARK    1  A    between atoms: C_1  and  C_2
REMARK    2  A    between atoms: C_2  and  C_3
REMARK    3  A    between atoms: C_2  and  N_4
REMARK    4  A    between atoms: C_8  and  C_9
REMARK    5  A    between atoms: C_17  and  O_18
REMARK    6  A    between atoms: O_18  and  C_19
REMARK    7  A    between atoms: C_19  and  C_20
REMARK    8  A    between atoms: C_19  and  C_21
REMARK                            x       y       z     vdW  Elec       q    Type
REMARK                         _______ _______ _______ _____ _____    ______ ____
ROOT
ATOM      1  C   UNL     1       5.870   4.351  15.164  0.00  0.00    +0.000 A 
ATOM      2  C   UNL     1       5.575   3.154  15.781  0.00  0.00    +0.000 A 
ATOM      3  N   UNL     1       4.703   3.480  16.792  0.00  0.00    +0.000 N 
ATOM      4  C   UNL     1       4.614   4.843  16.831  0.00  0.00    +0.000 A 
ATOM      5  N   UNL     1       5.281   5.382  15.834  0.00  0.00    +0.000 NA
ATOM      6  C   UNL     1       3.769   5.613  17.712  0.00  0.00    +0.000 A 
ATOM      7  C   UNL     1       4.253   6.795  18.255  0.00  0.00    +0.000 A 
ATOM      8  C   UNL     1       3.352   7.752  18.665  0.00  0.00    +0.000 A 
ATOM      9  C   UNL     1       2.080   7.666  18.111  0.00  0.00    +0.000 A 
ATOM     10  C   UNL     1       1.534   6.405  17.859  0.00  0.00    +0.000 A 
ATOM     11  C   UNL     1       2.406   5.326  17.782  0.00  0.00    +0.000 A 
ATOM     12  O   UNL     1       1.940   4.044  17.628  0.00  0.00    +0.000 OA
ATOM     13  C   UNL     1       2.753   3.119  18.391  0.00  0.00    +0.000 C 
ATOM     14  C   UNL     1       3.979   2.560  17.641  0.00  0.00    +0.000 C 
ENDROOT
BRANCH   1  19
ATOM     15  N   UNL     1       6.549   4.004  12.733  0.00  0.00    +0.000 N 
ATOM     16  N   UNL     1       7.393   4.551  11.828  0.00  0.00    +0.000 NA
ATOM     17  C   UNL     1       8.069   5.414  12.588  0.00  0.00    +0.000 A 
ATOM     18  N   UNL     1       7.726   5.439  13.907  0.00  0.00    +0.000 NA
ATOM     19  C   UNL     1       6.719   4.591  13.969  0.00  0.00    +0.000 A 
BRANCH  15  21
ATOM     20  C   UNL     1       4.394   3.497  11.656  0.00  0.00    +0.000 C 
ATOM     21  C   UNL     1       5.634   2.932  12.349  0.00  0.00    +0.000 C 
ATOM     22  C   UNL     1       6.279   1.854  11.467  0.00  0.00    +0.000 C 
ENDBRANCH  15  21
ENDBRANCH   1  19
BRANCH   9  23
ATOM     23  O   UNL     1       1.440   8.776  17.591  0.00  0.00    +0.000 OA
BRANCH  23  24
ATOM     24  C   UNL     1       1.349   9.883  18.539  0.00  0.00    +0.000 C 
ATOM     25  C   UNL     1       2.030  11.152  18.037  0.00  0.00    +0.000 C 
BRANCH  24  26
ATOM     26  C   UNL     1      -0.133  10.177  18.751  0.00  0.00    +0.000 C 
ATOM     27  N   UNL     1      -0.775  10.718  17.672  0.00  0.00    +0.000 N 
ATOM     28  O   UNL     1      -0.724   9.972  19.812  0.00  0.00    +0.000 OA
ATOM     29  H   UNL     1      -0.352  10.573  16.757  0.00  0.00    +0.000 HD
ATOM     30  H   UNL     1      -1.781  10.818  17.738  0.00  0.00    +0.000 HD
ENDBRANCH  24  26
ENDBRANCH  23  24
ENDBRANCH   9  23
TORSDOF 5
ENDMDL
MODEL 3
REMARK VINA RESULT:      -6.6      3.621      6.578
REMARK  Name = 
REMARK  8 active torsions:
REMARK  status: ('A' for Active; 'I' for Inactive)
REMARK    1  A    between atoms: C_1  and  C_2
REMARK    2  A    between atoms: C_2  and  C_3
REMARK    3  A    between atoms: C_2  and  N_4
REMARK    4  A    between atoms: C_8  and  C_9
REMARK    5  A    between atoms: C_17  and  O_18
REMARK    6  A    between atoms: O_18  and  C_19
REMARK    7  A    between atoms: C_19  and  C_20
REMARK    8  A    between atoms: C_19  and  C_21
REMARK                            x       y       z     vdW  Elec       q    Type
REMARK                         _______ _______ _______ _____ _____    ______ ____
ROOT
ATOM      1  C   UNL     1      -1.979  11.691  18.722  0.00  0.00    +0.000 A 
ATOM      2  C   UNL     1      -1.141  12.763  18.501  0.00  0.00    +0.000 A 
ATOM      3  N   UNL     1       0.129  12.251  18.621  0.00  0.00    +0.000 N 
ATOM      4  C   UNL     1       0.010  10.955  19.035  0.00  0.00    +0.000 A 
ATOM      5  N   UNL     1      -1.253  10.589  19.065  0.00  0.00    +0.000 NA
ATOM      6  C   UNL     1       1.097  10.027  19.239  0.00  0.00    +0.000 A 
ATOM      7  C   UNL     1       1.046   9.149  20.313  0.00  0.00    +0.000 A 
ATOM      8  C   UNL     1       1.773   7.981  20.247  0.00  0.00    +0.000 A 
ATOM      9  C   UNL     1       2.135   7.561  18.973  0.00  0.00    +0.000 A 
ATOM     10  C   UNL     1       2.462   8.521  18.010  0.00  0.00    +0.000 A 
ATOM     11  C   UNL     1       2.029   9.824  18.223  0.00  0.00    +0.000 A 
ATOM     12  O   UNL     1       2.387  10.840  17.372  0.00  0.00    +0.000 OA
ATOM     13  C   UNL     1       2.619  12.061  18.116  0.00  0.00    +0.000 C 
ATOM     14  C   UNL     1       1.369  12.938  18.333  0.00  0.00    +0.000 C 
ENDROOT
BRANCH   1  19
ATOM     15  N   UNL     1      -4.319  12.436  19.399  0.00  0.00    +0.000 N 
ATOM     16  N   UNL     1      -5.597  12.258  18.994  0.00  0.00    +0.000 NA
ATOM     17  C   UNL     1      -5.447  11.325  18.052  0.00  0.00    +0.000 A 
ATOM     18  N   UNL     1      -4.171  10.890  17.847  0.00  0.00    +0.000 NA
ATOM     19  C   UNL     1      -3.463  11.649  18.659  0.00  0.00    +0.000 A 
BRANCH  15  21
ATOM     20  C   UNL     1      -5.071  14.438  20.620  0.00  0.00    +0.000 C 
ATOM     21  C   UNL     1      -4.003  13.351  20.494  0.00  0.00    +0.000 C 
ATOM     22  C   UNL     1      -3.807  12.653  21.846  0.00  0.00    +0.000 C 
ENDBRANCH  15  21
ENDBRANCH   1  19
BRANCH   9  23
ATOM     23  O   UNL     1       1.958   6.253  18.563  0.00  0.00    +0.000 OA
BRANCH  23  24
ATOM     24  C   UNL     1       3.199   5.611  18.140  0.00  0.00    +0.000 C 
ATOM     25  C   UNL     1       4.183   5.407  19.288  0.00  0.00    +0.000 C 
BRANCH  24  26
ATOM     26  C   UNL     1       2.830   4.246  17.567  0.00  0.00    +0.000 C 
ATOM     27  N   UNL     1       3.889   3.417  17.321  0.00  0.00    +0.000 N 
ATOM     28  O   UNL     1       1.675   3.902  17.315  0.00  0.00    +0.000 OA
ATOM     29  H   UNL     1       4.755   3.605  17.823  0.00  0.00    +0.000 HD
ATOM     30  H   UNL     1       3.675   2.465  17.051  0.00  0.00    +0.000 HD
ENDBRANCH  24  26
ENDBRANCH  23  24
ENDBRANCH   9  23
TORSDOF 5
ENDMDL
MODEL 4
REMARK VINA RESULT:      -6.6      1.689      1.855
REMARK  Name = 
REMARK  8 active torsions:
REMARK  status: ('A' for Active; 'I' for Inactive)
REMARK    1  A    between atoms: C_1  and  C_2
REMARK    2  A    between atoms: C_2  and  C_3
REMARK    3  A    between atoms: C_2  and  N_4
REMARK    4  A    between atoms: C_8  and  C_9
REMARK    5  A    between atoms: C_17  and  O_18
REMARK    6  A    between atoms: O_18  and  C_19
REMARK    7  A    between atoms: C_19  and  C_20
REMARK    8  A    between atoms: C_19  and  C_21
REMARK                            x       y       z     vdW  Elec       q    Type
REMARK                         _______ _______ _______ _____ _____    ______ ____
ROOT
ATOM      1  C   UNL     1       1.490   7.013  20.577  0.00  0.00    +0.000 A 
ATOM      2  C   UNL     1       0.877   5.960  21.222  0.00  0.00    +0.000 A 
ATOM      3  N   UNL     1       1.394   4.832  20.631  0.00  0.00    +0.000 N 
ATOM      4  C   UNL     1       2.175   5.239  19.586  0.00  0.00    +0.000 A 
ATOM      5  N   UNL     1       2.274   6.550  19.562  0.00  0.00    +0.000 NA
ATOM      6  C   UNL     1       2.950   4.381  18.722  0.00  0.00    +0.000 A 
ATOM      7  C   UNL     1       3.021   4.669  17.367  0.00  0.00    +0.000 A 
ATOM      8  C   UNL     1       4.096   4.199  16.646  0.00  0.00    +0.000 A 
ATOM      9  C   UNL     1       5.225   3.866  17.386  0.00  0.00    +0.000 A 
ATOM     10  C   UNL     1       5.063   3.297  18.652  0.00  0.00    +0.000 A 
ATOM     11  C   UNL     1       3.834   3.460  19.282  0.00  0.00    +0.000 A 
ATOM     12  O   UNL     1       3.567   2.855  20.484  0.00  0.00    +0.000 OA
ATOM     13  C   UNL     1       2.188   2.414  20.528  0.00  0.00    +0.000 C 
ATOM     14  C   UNL     1       1.185   3.463  21.049  0.00  0.00    +0.000 C 
ENDROOT
BRANCH   1  19
ATOM     15  N   UNL     1       1.011   9.427  19.916  0.00  0.00    +0.000 N 
ATOM     16  N   UNL     1       0.823  10.624  20.517  0.00  0.00    +0.000 NA
ATOM     17  C   UNL     1       1.114  10.330  21.785  0.00  0.00    +0.000 A 
ATOM     18  N   UNL     1       1.487   9.041  22.025  0.00  0.00    +0.000 NA
ATOM     19  C   UNL     1       1.353   8.467  20.846  0.00  0.00    +0.000 A 
BRANCH  15  21
ATOM     20  C   UNL     1      -0.336  10.090  17.965  0.00  0.00    +0.000 C 
ATOM     21  C   UNL     1       0.861   9.284  18.470  0.00  0.00    +0.000 C 
ATOM     22  C   UNL     1       2.119   9.666  17.677  0.00  0.00    +0.000 C 
ENDBRANCH  15  21
ENDBRANCH   1  19
BRANCH   9  23
ATOM     23  O   UNL     1       6.487   4.290  17.012  0.00  0.00    +0.000 OA
BRANCH  23  24
ATOM     24  C   UNL     1       6.462   5.440  16.112  0.00  0.00    +0.000 C 
ATOM     25  C   UNL     1       7.237   6.636  16.656  0.00  0.00    +0.000 C 
BRANCH  24  26
ATOM     26  C   UNL     1       7.105   5.001  14.799  0.00  0.00    +0.000 C 
ATOM     27  N   UNL     1       6.577   3.867  14.247  0.00  0.00    +0.000 N 
ATOM     28  O   UNL     1       8.044   5.595  14.269  0.00  0.00    +0.000 OA
ATOM     29  H   UNL     1       5.634   3.606  14.532  0.00  0.00    +0.000 HD
ATOM     30  H   UNL     1       6.899   3.613  13.321  0.00  0.00    +0.000 HD
ENDBRANCH  24  26
ENDBRANCH  23  24
ENDBRANCH   9  23
TORSDOF 5
ENDMDL
MODEL 5
REMARK VINA RESULT:      -6.4      3.958      8.082
REMARK  Name = 
REMARK  8 active torsions:
REMARK  status: ('A' for Active; 'I' for Inactive)
REMARK    1  A    between atoms: C_1  and  C_2
REMARK    2  A    between atoms: C_2  and  C_3
REMARK    3  A    between atoms: C_2  and  N_4
REMARK    4  A    between atoms: C_8  and  C_9
REMARK    5  A    between atoms: C_17  and  O_18
REMARK    6  A    between atoms: O_18  and  C_19
REMARK    7  A    between atoms: C_19  and  C_20
REMARK    8  A    between atoms: C_19  and  C_21
REMARK                            x       y       z     vdW  Elec       q    Type
REMARK                         _______ _______ _______ _____ _____    ______ ____
ROOT
ATOM      1  C   UNL     1       2.160   7.202  19.738  0.00  0.00    +0.000 A 
ATOM      2  C   UNL     1       2.165   7.363  21.107  0.00  0.00    +0.000 A 
ATOM      3  N   UNL     1       1.525   8.560  21.326  0.00  0.00    +0.000 N 
ATOM      4  C   UNL     1       1.287   9.126  20.105  0.00  0.00    +0.000 A 
ATOM      5  N   UNL     1       1.629   8.304  19.137  0.00  0.00    +0.000 NA
ATOM      6  C   UNL     1       0.590  10.367  19.867  0.00  0.00    +0.000 A 
ATOM      7  C   UNL     1       1.044  11.221  18.873  0.00  0.00    +0.000 A 
ATOM      8  C   UNL     1       0.159  12.114  18.312  0.00  0.00    +0.000 A 
ATOM      9  C   UNL     1      -1.188  11.804  18.453  0.00  0.00    +0.000 A 
ATOM     10  C   UNL     1      -1.624  11.196  19.633  0.00  0.00    +0.000 A 
ATOM     11  C   UNL     1      -0.673  10.564  20.425  0.00  0.00    +0.000 A 
ATOM     12  O   UNL     1      -1.006  10.024  21.642  0.00  0.00    +0.000 OA
ATOM     13  C   UNL     1       0.069  10.223  22.592  0.00  0.00    +0.000 C 
ATOM     14  C   UNL     1       1.140   9.113  22.606  0.00  0.00    +0.000 C 
ENDROOT
BRANCH   1  19
ATOM     15  N   UNL     1       2.260   4.745  19.072  0.00  0.00    +0.000 N 
ATOM     16  N   UNL     1       2.800   3.980  18.096  0.00  0.00    +0.000 NA
ATOM     17  C   UNL     1       3.553   4.872  17.450  0.00  0.00    +0.000 A 
ATOM     18  N   UNL     1       3.540   6.138  17.956  0.00  0.00    +0.000 NA
ATOM     19  C   UNL     1       2.666   6.056  18.940  0.00  0.00    +0.000 A 
BRANCH  15  21
ATOM     20  C   UNL     1       0.665   2.928  19.536  0.00  0.00    +0.000 C 
ATOM     21  C   UNL     1       1.389   4.156  20.087  0.00  0.00    +0.000 C 
ATOM     22  C   UNL     1       2.115   3.794  21.390  0.00  0.00    +0.000 C 
ENDBRANCH  15  21
ENDBRANCH   1  19
BRANCH   9  23
ATOM     23  O   UNL     1      -2.061  11.864  17.382  0.00  0.00    +0.000 OA
BRANCH  23  24
ATOM     24  C   UNL     1      -2.288  10.565  16.754  0.00  0.00    +0.000 C 
ATOM     25  C   UNL     1      -3.154   9.639  17.602  0.00  0.00    +0.000 C 
BRANCH  24  26
ATOM     26  C   UNL     1      -3.001  10.821  15.430  0.00  0.00    +0.000 C 
ATOM     27  N   UNL     1      -4.054  11.691  15.498  0.00  0.00    +0.000 N 
ATOM     28  O   UNL     1      -2.685  10.280  14.370  0.00  0.00    +0.000 OA
ATOM     29  H   UNL     1      -4.076  12.335  16.287  0.00  0.00    +0.000 HD
ATOM     30  H   UNL     1      -4.475  11.973  14.621  0.00  0.00    +0.000 HD
ENDBRANCH  24  26
ENDBRANCH  23  24
ENDBRANCH   9  23
TORSDOF 5
ENDMDL
MODEL 6
REMARK VINA RESULT:      -6.4      3.740      5.901
REMARK  Name = 
REMARK  8 active torsions:
REMARK  status: ('A' for Active; 'I' for Inactive)
REMARK    1  A    between atoms: C_1  and  C_2
REMARK    2  A    between atoms: C_2  and  C_3
REMARK    3  A    between atoms: C_2  and  N_4
REMARK    4  A    between atoms: C_8  and  C_9
REMARK    5  A    between atoms: C_17  and  O_18
REMARK    6  A    between atoms: O_18  and  C_19
REMARK    7  A    between atoms: C_19  and  C_20
REMARK    8  A    between atoms: C_19  and  C_21
REMARK                            x       y       z     vdW  Elec       q    Type
REMARK                         _______ _______ _______ _____ _____    ______ ____
ROOT
ATOM      1  C   UNL     1       1.917  12.948  19.456  0.00  0.00    +0.000 A 
ATOM      2  C   UNL     1       0.802  12.877  20.264  0.00  0.00    +0.000 A 
ATOM      3  N   UNL     1       0.445  11.549  20.262  0.00  0.00    +0.000 N 
ATOM      4  C   UNL     1       1.255  10.910  19.366  0.00  0.00    +0.000 A 
ATOM      5  N   UNL     1       2.172  11.729  18.900  0.00  0.00    +0.000 NA
ATOM      6  C   UNL     1       1.257   9.494  19.084  0.00  0.00    +0.000 A 
ATOM      7  C   UNL     1       1.433   9.063  17.777  0.00  0.00    +0.000 A 
ATOM      8  C   UNL     1       1.919   7.793  17.559  0.00  0.00    +0.000 A 
ATOM      9  C   UNL     1       2.604   7.214  18.621  0.00  0.00    +0.000 A 
ATOM     10  C   UNL     1       2.174   7.471  19.926  0.00  0.00    +0.000 A 
ATOM     11  C   UNL     1       1.368   8.584  20.134  0.00  0.00    +0.000 A 
ATOM     12  O   UNL     1       0.831   8.852  21.369  0.00  0.00    +0.000 OA
ATOM     13  C   UNL     1      -0.505   9.393  21.228  0.00  0.00    +0.000 C 
ATOM     14  C   UNL     1      -0.574  10.926  21.077  0.00  0.00    +0.000 C 
ENDROOT
BRANCH   1  19
ATOM     15  N   UNL     1       3.504  14.848  20.057  0.00  0.00    +0.000 N 
ATOM     16  N   UNL     1       4.272  15.765  19.427  0.00  0.00    +0.000 NA
ATOM     17  C   UNL     1       3.908  15.584  18.156  0.00  0.00    +0.000 A 
ATOM     18  N   UNL     1       2.955  14.632  17.942  0.00  0.00    +0.000 NA
ATOM     19  C   UNL     1       2.759  14.131  19.145  0.00  0.00    +0.000 A 
BRANCH  15  21
ATOM     20  C   UNL     1       4.893  14.246  21.999  0.00  0.00    +0.000 C 
ATOM     21  C   UNL     1       3.526  14.728  21.513  0.00  0.00    +0.000 C 
ATOM     22  C   UNL     1       3.139  16.020  22.246  0.00  0.00    +0.000 C 
ENDBRANCH  15  21
ENDBRANCH   1  19
BRANCH   9  23
ATOM     23  O   UNL     1       3.824   6.589  18.442  0.00  0.00    +0.000 OA
BRANCH  23  24
ATOM     24  C   UNL     1       3.786   5.161  18.743  0.00  0.00    +0.000 C 
ATOM     25  C   UNL     1       3.338   4.315  17.556  0.00  0.00    +0.000 C 
BRANCH  24  26
ATOM     26  C   UNL     1       5.202   4.743  19.132  0.00  0.00    +0.000 C 
ATOM     27  N   UNL     1       5.491   3.422  18.930  0.00  0.00    +0.000 N 
ATOM     28  O   UNL     1       6.031   5.515  19.614  0.00  0.00    +0.000 OA
ATOM     29  H   UNL     1       4.915   2.917  18.259  0.00  0.00    +0.000 HD
ATOM     30  H   UNL     1       6.452   3.136  19.067  0.00  0.00    +0.000 HD
ENDBRANCH  24  26
ENDBRANCH  23  24
ENDBRANCH   9  23
TORSDOF 5
ENDMDL
MODEL 7
REMARK VINA RESULT:      -6.4      5.772      9.159
REMARK  Name = 
REMARK  8 active torsions:
REMARK  status: ('A' for Active; 'I' for Inactive)
REMARK    1  A    between atoms: C_1  and  C_2
REMARK    2  A    between atoms: C_2  and  C_3
REMARK    3  A    between atoms: C_2  and  N_4
REMARK    4  A    between atoms: C_8  and  C_9
REMARK    5  A    between atoms: C_17  and  O_18
REMARK    6  A    between atoms: O_18  and  C_19
REMARK    7  A    between atoms: C_19  and  C_20
REMARK    8  A    between atoms: C_19  and  C_21
REMARK                            x       y       z     vdW  Elec       q    Type
REMARK                         _______ _______ _______ _____ _____    ______ ____
ROOT
ATOM      1  C   UNL     1      -5.469  12.477  20.685  0.00  0.00    +0.000 A 
ATOM      2  C   UNL     1      -6.147  12.458  19.484  0.00  0.00    +0.000 A 
ATOM      3  N   UNL     1      -5.188  12.177  18.540  0.00  0.00    +0.000 N 
ATOM      4  C   UNL     1      -3.978  12.173  19.175  0.00  0.00    +0.000 A 
ATOM      5  N   UNL     1      -4.132  12.315  20.473  0.00  0.00    +0.000 NA
ATOM      6  C   UNL     1      -2.703  11.873  18.568  0.00  0.00    +0.000 A 
ATOM      7  C   UNL     1      -1.584  12.603  18.943  0.00  0.00    +0.000 A 
ATOM      8  C   UNL     1      -0.339  12.040  18.773  0.00  0.00    +0.000 A 
ATOM      9  C   UNL     1      -0.308  10.655  18.664  0.00  0.00    +0.000 A 
ATOM     10  C   UNL     1      -1.351  10.004  18.001  0.00  0.00    +0.000 A 
ATOM     11  C   UNL     1      -2.548  10.693  17.842  0.00  0.00    +0.000 A 
ATOM     12  O   UNL     1      -3.587  10.157  17.123  0.00  0.00    +0.000 OA
ATOM     13  C   UNL     1      -4.269  11.194  16.377  0.00  0.00    +0.000 C 
ATOM     14  C   UNL     1      -5.410  11.901  17.138  0.00  0.00    +0.000 C 
ENDROOT
BRANCH   1  19
ATOM     15  N   UNL     1      -5.739  13.741  22.880  0.00  0.00    +0.000 N 
ATOM     16  N   UNL     1      -6.515  13.696  23.987  0.00  0.00    +0.000 NA
ATOM     17  C   UNL     1      -7.192  12.564  23.788  0.00  0.00    +0.000 A 
ATOM     18  N   UNL     1      -6.888  11.884  22.646  0.00  0.00    +0.000 NA
ATOM     19  C   UNL     1      -6.016  12.674  22.052  0.00  0.00    +0.000 A 
BRANCH  15  21
ATOM     20  C   UNL     1      -5.319  16.148  23.181  0.00  0.00    +0.000 C 
ATOM     21  C   UNL     1      -4.761  14.810  22.696  0.00  0.00    +0.000 C 
ATOM     22  C   UNL     1      -3.409  14.535  23.369  0.00  0.00    +0.000 C 
ENDBRANCH  15  21
ENDBRANCH   1  19
BRANCH   9  23
ATOM     23  O   UNL     1       0.591   9.892  19.385  0.00  0.00    +0.000 OA
BRANCH  23  24
ATOM     24  C   UNL     1       0.086   9.499  20.698  0.00  0.00    +0.000 C 
ATOM     25  C   UNL     1       0.793   8.270  21.262  0.00  0.00    +0.000 C 
BRANCH  24  26
ATOM     26  C   UNL     1       0.321  10.673  21.644  0.00  0.00    +0.000 C 
ATOM     27  N   UNL     1      -0.667  10.878  22.567  0.00  0.00    +0.000 N 
ATOM     28  O   UNL     1       1.307  11.408  21.586  0.00  0.00    +0.000 OA
ATOM     29  H   UNL     1      -1.274  10.089  22.783  0.00  0.00    +0.000 HD
ATOM     30  H   UNL     1      -0.490  11.572  23.283  0.00  0.00    +0.000 HD
ENDBRANCH  24  26
ENDBRANCH  23  24
ENDBRANCH   9  23
TORSDOF 5
ENDMDL
MODEL 8
REMARK VINA RESULT:      -6.3      3.655      5.573
REMARK  Name = 
REMARK  8 active torsions:
REMARK  status: ('A' for Active; 'I' for Inactive)
REMARK    1  A    between atoms: C_1  and  C_2
REMARK    2  A    between atoms: C_2  and  C_3
REMARK    3  A    between atoms: C_2  and  N_4
REMARK    4  A    between atoms: C_8  and  C_9
REMARK    5  A    between atoms: C_17  and  O_18
REMARK    6  A    between atoms: O_18  and  C_19
REMARK    7  A    between atoms: C_19  and  C_20
REMARK    8  A    between atoms: C_19  and  C_21
REMARK                            x       y       z     vdW  Elec       q    Type
REMARK                         _______ _______ _______ _____ _____    ______ ____
ROOT
ATOM      1  C   UNL     1       1.444  12.920  20.218  0.00  0.00    +0.000 A 
ATOM      2  C   UNL     1       0.472  12.620  21.149  0.00  0.00    +0.000 A 
ATOM      3  N   UNL     1       0.242  11.273  21.002  0.00  0.00    +0.000 N 
ATOM      4  C   UNL     1       0.966  10.850  19.923  0.00  0.00    +0.000 A 
ATOM      5  N   UNL     1       1.725  11.821  19.462  0.00  0.00    +0.000 NA
ATOM      6  C   UNL     1       1.056   9.493  19.441  0.00  0.00    +0.000 A 
ATOM      7  C   UNL     1       1.076   9.258  18.073  0.00  0.00    +0.000 A 
ATOM      8  C   UNL     1       1.640   8.090  17.611  0.00  0.00    +0.000 A 
ATOM      9  C   UNL     1       2.524   7.457  18.476  0.00  0.00    +0.000 A 
ATOM     10  C   UNL     1       2.270   7.492  19.850  0.00  0.00    +0.000 A 
ATOM     11  C   UNL     1       1.404   8.471  20.324  0.00  0.00    +0.000 A 
ATOM     12  O   UNL     1       1.034   8.514  21.644  0.00  0.00    +0.000 OA
ATOM     13  C   UNL     1      -0.353   8.916  21.763  0.00  0.00    +0.000 C 
ATOM     14  C   UNL     1      -0.584  10.439  21.846  0.00  0.00    +0.000 C 
ENDROOT
BRANCH   1  19
ATOM     15  N   UNL     1       1.487  15.404  19.656  0.00  0.00    +0.000 N 
ATOM     16  N   UNL     1       2.372  16.427  19.649  0.00  0.00    +0.000 NA
ATOM     17  C   UNL     1       3.513  15.789  19.916  0.00  0.00    +0.000 A 
ATOM     18  N   UNL     1       3.415  14.438  20.074  0.00  0.00    +0.000 NA
ATOM     19  C   UNL     1       2.119  14.220  19.973  0.00  0.00    +0.000 A 
BRANCH  15  21
ATOM     20  C   UNL     1      -0.714  15.966  20.605  0.00  0.00    +0.000 C 
ATOM     21  C   UNL     1       0.079  15.632  19.342  0.00  0.00    +0.000 C 
ATOM     22  C   UNL     1      -0.150  16.717  18.281  0.00  0.00    +0.000 C 
ENDBRANCH  15  21
ENDBRANCH   1  19
BRANCH   9  23
ATOM     23  O   UNL     1       3.756   7.001  18.047  0.00  0.00    +0.000 OA
BRANCH  23  24
ATOM     24  C   UNL     1       4.021   5.617  18.432  0.00  0.00    +0.000 C 
ATOM     25  C   UNL     1       3.264   4.607  17.574  0.00  0.00    +0.000 C 
BRANCH  24  26
ATOM     26  C   UNL     1       5.518   5.378  18.258  0.00  0.00    +0.000 C 
ATOM     27  N   UNL     1       5.942   4.115  18.565  0.00  0.00    +0.000 N 
ATOM     28  O   UNL     1       6.309   6.247  17.891  0.00  0.00    +0.000 OA
ATOM     29  H   UNL     1       5.244   3.373  18.550  0.00  0.00    +0.000 HD
ATOM     30  H   UNL     1       6.905   3.888  18.351  0.00  0.00    +0.000 HD
ENDBRANCH  24  26
ENDBRANCH  23  24
ENDBRANCH   9  23
TORSDOF 5
ENDMDL
MODEL 9
REMARK VINA RESULT:      -6.3      5.500      8.814
REMARK  Name = 
REMARK  8 active torsions:
REMARK  status: ('A' for Active; 'I' for Inactive)
REMARK    1  A    between atoms: C_1  and  C_2
REMARK    2  A    between atoms: C_2  and  C_3
REMARK    3  A    between atoms: C_2  and  N_4
REMARK    4  A    between atoms: C_8  and  C_9
REMARK    5  A    between atoms: C_17  and  O_18
REMARK    6  A    between atoms: O_18  and  C_19
REMARK    7  A    between atoms: C_19  and  C_20
REMARK    8  A    between atoms: C_19  and  C_21
REMARK                            x       y       z     vdW  Elec       q    Type
REMARK                         _______ _______ _______ _____ _____    ______ ____
ROOT
ATOM      1  C   UNL     1      -5.301  12.291  20.319  0.00  0.00    +0.000 A 
ATOM      2  C   UNL     1      -5.827  12.108  19.058  0.00  0.00    +0.000 A 
ATOM      3  N   UNL     1      -4.737  11.884  18.249  0.00  0.00    +0.000 N 
ATOM      4  C   UNL     1      -3.618  12.073  19.009  0.00  0.00    +0.000 A 
ATOM      5  N   UNL     1      -3.939  12.282  20.267  0.00  0.00    +0.000 NA
ATOM      6  C   UNL     1      -2.255  11.893  18.570  0.00  0.00    +0.000 A 
ATOM      7  C   UNL     1      -1.280  12.779  19.004  0.00  0.00    +0.000 A 
ATOM      8  C   UNL     1       0.033  12.365  19.016  0.00  0.00    +0.000 A 
ATOM      9  C   UNL     1       0.237  10.990  19.023  0.00  0.00    +0.000 A 
ATOM     10  C   UNL     1      -0.639  10.171  18.306  0.00  0.00    +0.000 A 
ATOM     11  C   UNL     1      -1.880  10.695  17.963  0.00  0.00    +0.000 A 
ATOM     12  O   UNL     1      -2.759   9.987  17.182  0.00  0.00    +0.000 OA
ATOM     13  C   UNL     1      -3.464  10.880  16.285  0.00  0.00    +0.000 C 
ATOM     14  C   UNL     1      -4.760  11.489  16.858  0.00  0.00    +0.000 C 
ENDROOT
BRANCH   1  19
ATOM     15  N   UNL     1      -5.719  13.475  22.536  0.00  0.00    +0.000 N 
ATOM     16  N   UNL     1      -6.661  13.507  23.507  0.00  0.00    +0.000 NA
ATOM     17  C   UNL     1      -7.468  12.516  23.123  0.00  0.00    +0.000 A 
ATOM     18  N   UNL     1      -7.094  11.850  21.993  0.00  0.00    +0.000 NA
ATOM     19  C   UNL     1      -6.024  12.511  21.598  0.00  0.00    +0.000 A 
BRANCH  15  21
ATOM     20  C   UNL     1      -4.921  15.741  22.002  0.00  0.00    +0.000 C 
ATOM     21  C   UNL     1      -4.568  14.372  22.583  0.00  0.00    +0.000 C 
ATOM     22  C   UNL     1      -3.970  14.540  23.986  0.00  0.00    +0.000 C 
ENDBRANCH  15  21
ENDBRANCH   1  19
BRANCH   9  23
ATOM     23  O   UNL     1       1.127  10.394  19.898  0.00  0.00    +0.000 OA
BRANCH  23  24
ATOM     24  C   UNL     1       0.777   9.014  20.220  0.00  0.00    +0.000 C 
ATOM     25  C   UNL     1       1.886   8.024  19.874  0.00  0.00    +0.000 C 
BRANCH  24  26
ATOM     26  C   UNL     1       0.520   8.951  21.723  0.00  0.00    +0.000 C 
ATOM     27  N   UNL     1       1.640   9.019  22.505  0.00  0.00    +0.000 N 
ATOM     28  O   UNL     1      -0.600   8.826  22.218  0.00  0.00    +0.000 OA
ATOM     29  H   UNL     1       2.473   9.432  22.090  0.00  0.00    +0.000 HD
ATOM     30  H   UNL     1       1.498   9.098  23.505  0.00  0.00    +0.000 HD
ENDBRANCH  24  26
ENDBRANCH  23  24
ENDBRANCH   9  23
TORSDOF 5
ENDMDL
