MODEL 1
REMARK VINA RESULT:      -8.1      0.000      0.000
REMARK  Name = 
REMARK  1 active torsions:
REMARK  status: ('A' for Active; 'I' for Inactive)
REMARK    1  A    between atoms: N_13  and  C_14
REMARK                            x       y       z     vdW  Elec       q    Type
REMARK                         _______ _______ _______ _____ _____    ______ ____
ROOT
ATOM      1  O   UNL     1       3.753   1.711  17.521  0.00  0.00    +0.000 OA
ATOM      2  C   UNL     1       3.879   2.744  18.163  0.00  0.00    +0.000 C 
ATOM      3  C   UNL     1       3.508   2.816  19.615  0.00  0.00    +0.000 C 
ATOM      4  C   UNL     1       2.144   2.204  19.978  0.00  0.00    +0.000 C 
ATOM      5  C   UNL     1       1.027   3.035  19.379  0.00  0.00    +0.000 C 
ATOM      6  C   UNL     1       1.062   4.337  19.707  0.00  0.00    +0.000 C 
ATOM      7  C   UNL     1       2.226   4.740  20.590  0.00  0.00    +0.000 C 
ATOM      8  C   UNL     1       2.107   3.879  21.884  0.00  0.00    +0.000 C 
ATOM      9  C   UNL     1       1.988   2.370  21.510  0.00  0.00    +0.000 C 
ATOM     10  C   UNL     1       3.560   4.308  19.944  0.00  0.00    +0.000 C 
ATOM     11  C   UNL     1       4.004   4.958  18.656  0.00  0.00    +0.000 C 
ATOM     12  O   UNL     1       4.001   6.172  18.492  0.00  0.00    +0.000 OA
ATOM     13  N   UNL     1       4.413   3.962  17.785  0.00  0.00    +0.000 N 
ENDROOT
BRANCH  13  14
ATOM     14  C   UNL     1       5.278   4.152  16.657  0.00  0.00    +0.000 A 
ATOM     15  C   UNL     1       6.618   4.555  16.811  0.00  0.00    +0.000 A 
ATOM     16  C   UNL     1       7.429   4.881  15.714  0.00  0.00    +0.000 A 
ATOM     17  C   UNL     1       6.913   4.813  14.429  0.00  0.00    +0.000 A 
ATOM     18 CL   UNL     1       7.896   5.244  13.085  0.00  0.00    +0.000 Cl
ATOM     19  C   UNL     1       5.598   4.413  14.235  0.00  0.00    +0.000 A 
ATOM     20  C   UNL     1       4.791   4.079  15.339  0.00  0.00    +0.000 A 
ENDBRANCH  13  14
TORSDOF 1
ENDMDL
MODEL 2
REMARK VINA RESULT:      -7.8      1.189      1.426
REMARK  Name = 
REMARK  1 active torsions:
REMARK  status: ('A' for Active; 'I' for Inactive)
REMARK    1  A    between atoms: N_13  and  C_14
REMARK                            x       y       z     vdW  Elec       q    Type
REMARK                         _______ _______ _______ _____ _____    ______ ____
ROOT
ATOM      1  O   UNL     1       1.955   3.507  16.795  0.00  0.00    +0.000 OA
ATOM      2  C   UNL     1       2.751   3.603  17.718  0.00  0.00    +0.000 C 
ATOM      3  C   UNL     1       2.477   2.988  19.059  0.00  0.00    +0.000 C 
ATOM      4  C   UNL     1       1.071   3.246  19.627  0.00  0.00    +0.000 C 
ATOM      5  C   UNL     1       0.912   4.712  19.973  0.00  0.00    +0.000 C 
ATOM      6  C   UNL     1       1.851   5.196  20.802  0.00  0.00    +0.000 C 
ATOM      7  C   UNL     1       2.912   4.195  21.215  0.00  0.00    +0.000 C 
ATOM      8  C   UNL     1       2.154   3.024  21.911  0.00  0.00    +0.000 C 
ATOM      9  C   UNL     1       1.011   2.506  20.987  0.00  0.00    +0.000 C 
ATOM     10  C   UNL     1       3.564   3.563  19.967  0.00  0.00    +0.000 C 
ATOM     11  C   UNL     1       4.398   4.425  19.051  0.00  0.00    +0.000 C 
ATOM     12  O   UNL     1       5.271   5.180  19.463  0.00  0.00    +0.000 OA
ATOM     13  N   UNL     1       4.012   4.171  17.745  0.00  0.00    +0.000 N 
ENDROOT
BRANCH  13  14
ATOM     14  C   UNL     1       4.803   4.441  16.580  0.00  0.00    +0.000 A 
ATOM     15  C   UNL     1       5.514   3.423  15.916  0.00  0.00    +0.000 A 
ATOM     16  C   UNL     1       6.402   3.698  14.865  0.00  0.00    +0.000 A 
ATOM     17  C   UNL     1       6.601   5.006  14.453  0.00  0.00    +0.000 A 
ATOM     18 CL   UNL     1       7.713   5.348  13.187  0.00  0.00    +0.000 Cl
ATOM     19  C   UNL     1       5.913   6.037  15.079  0.00  0.00    +0.000 A 
ATOM     20  C   UNL     1       5.017   5.755  16.126  0.00  0.00    +0.000 A 
ENDBRANCH  13  14
TORSDOF 1
ENDMDL
MODEL 3
REMARK VINA RESULT:      -7.8      0.239      1.097
REMARK  Name = 
REMARK  1 active torsions:
REMARK  status: ('A' for Active; 'I' for Inactive)
REMARK    1  A    between atoms: N_13  and  C_14
REMARK                            x       y       z     vdW  Elec       q    Type
REMARK                         _______ _______ _______ _____ _____    ______ ____
ROOT
ATOM      1  O   UNL     1       3.903   1.933  17.479  0.00  0.00    +0.000 OA
ATOM      2  C   UNL     1       3.926   2.960  18.142  0.00  0.00    +0.000 C 
ATOM      3  C   UNL     1       3.570   2.961  19.600  0.00  0.00    +0.000 C 
ATOM      4  C   UNL     1       2.287   2.196  19.967  0.00  0.00    +0.000 C 
ATOM      5  C   UNL     1       1.078   2.912  19.401  0.00  0.00    +0.000 C 
ATOM      6  C   UNL     1       0.975   4.203  19.758  0.00  0.00    +0.000 C 
ATOM      7  C   UNL     1       2.101   4.713  20.634  0.00  0.00    +0.000 C 
ATOM      8  C   UNL     1       2.097   3.817  21.911  0.00  0.00    +0.000 C 
ATOM      9  C   UNL     1       2.138   2.312  21.505  0.00  0.00    +0.000 C 
ATOM     10  C   UNL     1       3.464   4.442  19.962  0.00  0.00    +0.000 C 
ATOM     11  C   UNL     1       3.815   5.164  18.684  0.00  0.00    +0.000 C 
ATOM     12  O   UNL     1       3.677   6.374  18.546  0.00  0.00    +0.000 OA
ATOM     13  N   UNL     1       4.317   4.237  17.785  0.00  0.00    +0.000 N 
ENDROOT
BRANCH  13  14
ATOM     14  C   UNL     1       5.139   4.544  16.651  0.00  0.00    +0.000 A 
ATOM     15  C   UNL     1       4.694   4.322  15.333  0.00  0.00    +0.000 A 
ATOM     16  C   UNL     1       5.539   4.484  14.225  0.00  0.00    +0.000 A 
ATOM     17  C   UNL     1       6.857   4.871  14.411  0.00  0.00    +0.000 A 
ATOM     18 CL   UNL     1       7.901   5.038  13.055  0.00  0.00    +0.000 Cl
ATOM     19  C   UNL     1       7.331   5.105  15.694  0.00  0.00    +0.000 A 
ATOM     20  C   UNL     1       6.477   4.950  16.802  0.00  0.00    +0.000 A 
ENDBRANCH  13  14
TORSDOF 1
ENDMDL
MODEL 4
REMARK VINA RESULT:      -7.7      1.145      1.351
REMARK  Name = 
REMARK  1 active torsions:
REMARK  status: ('A' for Active; 'I' for Inactive)
REMARK    1  A    between atoms: N_13  and  C_14
REMARK                            x       y       z     vdW  Elec       q    Type
REMARK                         _______ _______ _______ _____ _____    ______ ____
ROOT
ATOM      1  O   UNL     1       2.222   3.418  16.786  0.00  0.00    +0.000 OA
ATOM      2  C   UNL     1       2.945   3.572  17.760  0.00  0.00    +0.000 C 
ATOM      3  C   UNL     1       2.598   2.986  19.097  0.00  0.00    +0.000 C 
ATOM      4  C   UNL     1       1.145   3.203  19.555  0.00  0.00    +0.000 C 
ATOM      5  C   UNL     1       0.905   4.671  19.841  0.00  0.00    +0.000 C 
ATOM      6  C   UNL     1       1.762   5.216  20.720  0.00  0.00    +0.000 C 
ATOM      7  C   UNL     1       2.827   4.271  21.240  0.00  0.00    +0.000 C 
ATOM      8  C   UNL     1       2.067   3.090  21.916  0.00  0.00    +0.000 C 
ATOM      9  C   UNL     1       1.014   2.500  20.929  0.00  0.00    +0.000 C 
ATOM     10  C   UNL     1       3.592   3.630  20.062  0.00  0.00    +0.000 C 
ATOM     11  C   UNL     1       4.457   4.499  19.181  0.00  0.00    +0.000 C 
ATOM     12  O   UNL     1       5.268   5.299  19.630  0.00  0.00    +0.000 OA
ATOM     13  N   UNL     1       4.177   4.191  17.859  0.00  0.00    +0.000 N 
ENDROOT
BRANCH  13  14
ATOM     14  C   UNL     1       5.039   4.459  16.746  0.00  0.00    +0.000 A 
ATOM     15  C   UNL     1       5.118   5.738  16.161  0.00  0.00    +0.000 A 
ATOM     16  C   UNL     1       5.847   5.977  14.987  0.00  0.00    +0.000 A 
ATOM     17  C   UNL     1       6.517   4.935  14.365  0.00  0.00    +0.000 A 
ATOM     18 CL   UNL     1       7.385   5.220  12.908  0.00  0.00    +0.000 Cl
ATOM     19  C   UNL     1       6.469   3.661  14.915  0.00  0.00    +0.000 A 
ATOM     20  C   UNL     1       5.744   3.428  16.097  0.00  0.00    +0.000 A 
ENDBRANCH  13  14
TORSDOF 1
ENDMDL
MODEL 5
REMARK VINA RESULT:      -7.4      0.782      2.324
REMARK  Name = 
REMARK  1 active torsions:
REMARK  status: ('A' for Active; 'I' for Inactive)
REMARK    1  A    between atoms: N_13  and  C_14
REMARK                            x       y       z     vdW  Elec       q    Type
REMARK                         _______ _______ _______ _____ _____    ______ ____
ROOT
ATOM      1  O   UNL     1       4.075   6.221  18.191  0.00  0.00    +0.000 OA
ATOM      2  C   UNL     1       3.661   5.085  18.012  0.00  0.00    +0.000 C 
ATOM      3  C   UNL     1       2.343   4.632  18.568  0.00  0.00    +0.000 C 
ATOM      4  C   UNL     1       2.088   4.997  20.041  0.00  0.00    +0.000 C 
ATOM      5  C   UNL     1       3.031   4.220  20.937  0.00  0.00    +0.000 C 
ATOM      6  C   UNL     1       2.993   2.888  20.768  0.00  0.00    +0.000 C 
ATOM      7  C   UNL     1       2.038   2.410  19.693  0.00  0.00    +0.000 C 
ATOM      8  C   UNL     1       0.626   2.924  20.108  0.00  0.00    +0.000 C 
ATOM      9  C   UNL     1       0.676   4.457  20.383  0.00  0.00    +0.000 C 
ATOM     10  C   UNL     1       2.342   3.119  18.356  0.00  0.00    +0.000 C 
ATOM     11  C   UNL     1       3.648   2.841  17.651  0.00  0.00    +0.000 C 
ATOM     12  O   UNL     1       4.071   1.707  17.462  0.00  0.00    +0.000 OA
ATOM     13  N   UNL     1       4.200   4.052  17.268  0.00  0.00    +0.000 N 
ENDROOT
BRANCH  13  14
ATOM     14  C   UNL     1       5.182   4.225  16.237  0.00  0.00    +0.000 A 
ATOM     15  C   UNL     1       6.476   4.705  16.520  0.00  0.00    +0.000 A 
ATOM     16  C   UNL     1       7.395   5.012  15.505  0.00  0.00    +0.000 A 
ATOM     17  C   UNL     1       7.037   4.849  14.176  0.00  0.00    +0.000 A 
ATOM     18 CL   UNL     1       8.152   5.256  12.931  0.00  0.00    +0.000 Cl
ATOM     19  C   UNL     1       5.773   4.372  13.857  0.00  0.00    +0.000 A 
ATOM     20  C   UNL     1       4.858   4.056  14.878  0.00  0.00    +0.000 A 
ENDBRANCH  13  14
TORSDOF 1
ENDMDL
MODEL 6
REMARK VINA RESULT:      -7.3      1.275      1.905
REMARK  Name = 
REMARK  1 active torsions:
REMARK  status: ('A' for Active; 'I' for Inactive)
REMARK    1  A    between atoms: N_13  and  C_14
REMARK                            x       y       z     vdW  Elec       q    Type
REMARK                         _______ _______ _______ _____ _____    ______ ____
ROOT
ATOM      1  O   UNL     1       5.753   3.904  19.305  0.00  0.00    +0.000 OA
ATOM      2  C   UNL     1       4.674   4.061  18.753  0.00  0.00    +0.000 C 
ATOM      3  C   UNL     1       3.424   4.340  19.536  0.00  0.00    +0.000 C 
ATOM      4  C   UNL     1       3.197   3.434  20.759  0.00  0.00    +0.000 C 
ATOM      5  C   UNL     1       2.913   2.016  20.308  0.00  0.00    +0.000 C 
ATOM      6  C   UNL     1       1.895   1.899  19.439  0.00  0.00    +0.000 C 
ATOM      7  C   UNL     1       1.239   3.208  19.047  0.00  0.00    +0.000 C 
ATOM      8  C   UNL     1       0.723   3.848  20.373  0.00  0.00    +0.000 C 
ATOM      9  C   UNL     1       1.879   3.917  21.416  0.00  0.00    +0.000 C 
ATOM     10  C   UNL     1       2.298   4.197  18.514  0.00  0.00    +0.000 C 
ATOM     11  C   UNL     1       3.008   3.892  17.217  0.00  0.00    +0.000 C 
ATOM     12  O   UNL     1       2.415   3.551  16.201  0.00  0.00    +0.000 OA
ATOM     13  N   UNL     1       4.365   4.098  17.406  0.00  0.00    +0.000 N 
ENDROOT
BRANCH  13  14
ATOM     14  C   UNL     1       5.320   4.332  16.363  0.00  0.00    +0.000 A 
ATOM     15  C   UNL     1       6.056   5.530  16.288  0.00  0.00    +0.000 A 
ATOM     16  C   UNL     1       6.885   5.828  15.196  0.00  0.00    +0.000 A 
ATOM     17  C   UNL     1       6.996   4.929  14.147  0.00  0.00    +0.000 A 
ATOM     18 CL   UNL     1       7.988   5.308  12.794  0.00  0.00    +0.000 Cl
ATOM     19  C   UNL     1       6.292   3.733  14.188  0.00  0.00    +0.000 A 
ATOM     20  C   UNL     1       5.469   3.435  15.289  0.00  0.00    +0.000 A 
ENDBRANCH  13  14
TORSDOF 1
ENDMDL
MODEL 7
REMARK VINA RESULT:      -7.1      1.315      2.067
REMARK  Name = 
REMARK  1 active torsions:
REMARK  status: ('A' for Active; 'I' for Inactive)
REMARK    1  A    between atoms: N_13  and  C_14
REMARK                            x       y       z     vdW  Elec       q    Type
REMARK                         _______ _______ _______ _____ _____    ______ ____
ROOT
ATOM      1  O   UNL     1       5.724   3.990  19.128  0.00  0.00    +0.000 OA
ATOM      2  C   UNL     1       4.594   4.116  18.680  0.00  0.00    +0.000 C 
ATOM      3  C   UNL     1       3.410   4.311  19.581  0.00  0.00    +0.000 C 
ATOM      4  C   UNL     1       3.332   3.355  20.784  0.00  0.00    +0.000 C 
ATOM      5  C   UNL     1       3.069   1.941  20.306  0.00  0.00    +0.000 C 
ATOM      6  C   UNL     1       1.983   1.808  19.527  0.00  0.00    +0.000 C 
ATOM      7  C   UNL     1       1.239   3.098  19.245  0.00  0.00    +0.000 C 
ATOM      8  C   UNL     1       0.818   3.667  20.634  0.00  0.00    +0.000 C 
ATOM      9  C   UNL     1       2.060   3.754  21.573  0.00  0.00    +0.000 C 
ATOM     10  C   UNL     1       2.202   4.151  18.658  0.00  0.00    +0.000 C 
ATOM     11  C   UNL     1       2.805   3.924  17.292  0.00  0.00    +0.000 C 
ATOM     12  O   UNL     1       2.137   3.591  16.320  0.00  0.00    +0.000 OA
ATOM     13  N   UNL     1       4.163   4.185  17.368  0.00  0.00    +0.000 N 
ENDROOT
BRANCH  13  14
ATOM     14  C   UNL     1       5.010   4.498  16.254  0.00  0.00    +0.000 A 
ATOM     15  C   UNL     1       5.372   3.524  15.304  0.00  0.00    +0.000 A 
ATOM     16  C   UNL     1       6.311   3.782  14.293  0.00  0.00    +0.000 A 
ATOM     17  C   UNL     1       6.914   5.027  14.212  0.00  0.00    +0.000 A 
ATOM     18 CL   UNL     1       8.088   5.334  12.994  0.00  0.00    +0.000 Cl
ATOM     19  C   UNL     1       6.578   6.016  15.127  0.00  0.00    +0.000 A 
ATOM     20  C   UNL     1       5.629   5.755  16.133  0.00  0.00    +0.000 A 
ENDBRANCH  13  14
TORSDOF 1
ENDMDL
MODEL 8
REMARK VINA RESULT:      -7.1      1.270      1.826
REMARK  Name = 
REMARK  1 active torsions:
REMARK  status: ('A' for Active; 'I' for Inactive)
REMARK    1  A    between atoms: N_13  and  C_14
REMARK                            x       y       z     vdW  Elec       q    Type
REMARK                         _______ _______ _______ _____ _____    ______ ____
ROOT
ATOM      1  O   UNL     1       2.307   4.998  17.075  0.00  0.00    +0.000 OA
ATOM      2  C   UNL     1       2.902   4.252  17.837  0.00  0.00    +0.000 C 
ATOM      3  C   UNL     1       2.170   3.379  18.815  0.00  0.00    +0.000 C 
ATOM      4  C   UNL     1       1.058   4.078  19.617  0.00  0.00    +0.000 C 
ATOM      5  C   UNL     1       1.663   5.088  20.570  0.00  0.00    +0.000 C 
ATOM      6  C   UNL     1       2.597   4.588  21.395  0.00  0.00    +0.000 C 
ATOM      7  C   UNL     1       2.895   3.115  21.202  0.00  0.00    +0.000 C 
ATOM      8  C   UNL     1       1.545   2.367  21.427  0.00  0.00    +0.000 C 
ATOM      9  C   UNL     1       0.435   2.992  20.529  0.00  0.00    +0.000 C 
ATOM     10  C   UNL     1       3.265   2.834  19.730  0.00  0.00    +0.000 C 
ATOM     11  C   UNL     1       4.542   3.408  19.165  0.00  0.00    +0.000 C 
ATOM     12  O   UNL     1       5.620   3.319  19.741  0.00  0.00    +0.000 OA
ATOM     13  N   UNL     1       4.255   3.983  17.938  0.00  0.00    +0.000 N 
ENDROOT
BRANCH  13  14
ATOM     14  C   UNL     1       5.212   4.252  16.905  0.00  0.00    +0.000 A 
ATOM     15  C   UNL     1       6.070   5.367  16.963  0.00  0.00    +0.000 A 
ATOM     16  C   UNL     1       6.908   5.719  15.895  0.00  0.00    +0.000 A 
ATOM     17  C   UNL     1       6.905   4.960  14.735  0.00  0.00    +0.000 A 
ATOM     18 CL   UNL     1       7.909   5.409  13.413  0.00  0.00    +0.000 Cl
ATOM     19  C   UNL     1       6.078   3.848  14.642  0.00  0.00    +0.000 A 
ATOM     20  C   UNL     1       5.246   3.495  15.720  0.00  0.00    +0.000 A 
ENDBRANCH  13  14
TORSDOF 1
ENDMDL
MODEL 9
REMARK VINA RESULT:      -6.9      0.813      2.569
REMARK  Name = 
REMARK  1 active torsions:
REMARK  status: ('A' for Active; 'I' for Inactive)
REMARK    1  A    between atoms: N_13  and  C_14
REMARK                            x       y       z     vdW  Elec       q    Type
REMARK                         _______ _______ _______ _____ _____    ______ ____
ROOT
ATOM      1  O   UNL     1       3.874   6.409  18.314  0.00  0.00    +0.000 OA
ATOM      2  C   UNL     1       3.532   5.262  18.067  0.00  0.00    +0.000 C 
ATOM      3  C   UNL     1       2.251   4.691  18.603  0.00  0.00    +0.000 C 
ATOM      4  C   UNL     1       1.991   4.945  20.098  0.00  0.00    +0.000 C 
ATOM      5  C   UNL     1       2.992   4.176  20.936  0.00  0.00    +0.000 C 
ATOM      6  C   UNL     1       3.037   2.858  20.683  0.00  0.00    +0.000 C 
ATOM      7  C   UNL     1       2.102   2.388  19.587  0.00  0.00    +0.000 C 
ATOM      8  C   UNL     1       0.665   2.783  20.045  0.00  0.00    +0.000 C 
ATOM      9  C   UNL     1       0.621   4.296  20.416  0.00  0.00    +0.000 C 
ATOM     10  C   UNL     1       2.344   3.198  18.295  0.00  0.00    +0.000 C 
ATOM     11  C   UNL     1       3.657   3.049  17.564  0.00  0.00    +0.000 C 
ATOM     12  O   UNL     1       4.149   1.959  17.300  0.00  0.00    +0.000 OA
ATOM     13  N   UNL     1       4.126   4.315  17.254  0.00  0.00    +0.000 N 
ENDROOT
BRANCH  13  14
ATOM     14  C   UNL     1       5.083   4.616  16.229  0.00  0.00    +0.000 A 
ATOM     15  C   UNL     1       4.793   4.420  14.865  0.00  0.00    +0.000 A 
ATOM     16  C   UNL     1       5.766   4.573  13.866  0.00  0.00    +0.000 A 
ATOM     17  C   UNL     1       7.061   4.927  14.212  0.00  0.00    +0.000 A 
ATOM     18 CL   UNL     1       8.262   5.085  12.992  0.00  0.00    +0.000 Cl
ATOM     19  C   UNL     1       7.385   5.136  15.546  0.00  0.00    +0.000 A 
ATOM     20  C   UNL     1       6.403   4.989  16.543  0.00  0.00    +0.000 A 
ENDBRANCH  13  14
TORSDOF 1
ENDMDL
