MODEL 1
REMARK VINA RESULT:      -8.1      0.000      0.000
REMARK  Name = 
REMARK  7 active torsions:
REMARK  status: ('A' for Active; 'I' for Inactive)
REMARK    1  A    between atoms: C_1  and  C_2
REMARK    2  A    between atoms: C_5  and  C_6
REMARK    3  A    between atoms: C_7  and  C_8
REMARK    4  A    between atoms: C_8  and  C_9
REMARK    5  A    between atoms: C_8  and  N_15
REMARK    6  A    between atoms: N_18  and  C_19
REMARK    7  A    between atoms: N_27  and  C_28
REMARK                            x       y       z     vdW  Elec       q    Type
REMARK                         _______ _______ _______ _____ _____    ______ ____
ROOT
ATOM      1  N   UNL     1      -2.125  13.187  20.875  0.00  0.00    +0.000 NA
ATOM      2  C   UNL     1      -0.770  13.227  21.398  0.00  0.00    +0.000 C 
ATOM      3  C   UNL     1      -0.016  11.883  21.372  0.00  0.00    +0.000 C 
ATOM      4  N   UNL     1      -0.144  11.155  20.081  0.00  0.00    +0.000 N 
ATOM      5  C   UNL     1      -1.494  11.157  19.492  0.00  0.00    +0.000 C 
ATOM      6  C   UNL     1      -2.177  12.539  19.572  0.00  0.00    +0.000 C 
ENDROOT
BRANCH   4   7
ATOM      7  C   UNL     1       0.515   9.902  20.125  0.00  0.00    +0.000 A 
ATOM      8  N   UNL     1       0.429   9.183  21.285  0.00  0.00    +0.000 NA
ATOM      9  C   UNL     1       1.031   7.992  21.400  0.00  0.00    +0.000 A 
ATOM     10  N   UNL     1       1.765   7.364  20.483  0.00  0.00    +0.000 NA
ATOM     11  C   UNL     1       1.873   8.070  19.341  0.00  0.00    +0.000 A 
ATOM     12  C   UNL     1       1.304   9.320  19.101  0.00  0.00    +0.000 A 
ATOM     13  C   UNL     1       1.755   9.636  17.805  0.00  0.00    +0.000 A 
ATOM     14  N   UNL     1       2.525   8.696  17.254  0.00  0.00    +0.000 NA
ATOM     15  N   UNL     1       2.562   7.698  18.186  0.00  0.00    +0.000 N 
BRANCH  15  16
ATOM     16  C   UNL     1       3.215   6.461  17.881  0.00  0.00    +0.000 A 
ATOM     17  C   UNL     1       4.553   6.477  17.450  0.00  0.00    +0.000 A 
ATOM     18  C   UNL     1       5.194   5.291  17.080  0.00  0.00    +0.000 A 
ATOM     19  C   UNL     1       4.514   4.077  17.140  0.00  0.00    +0.000 A 
ATOM     20  C   UNL     1       3.193   4.049  17.589  0.00  0.00    +0.000 A 
ATOM     21  C   UNL     1       2.552   5.234  17.960  0.00  0.00    +0.000 A 
ENDBRANCH  15  16
ENDBRANCH   4   7
BRANCH   1  22
ATOM     22  C   UNL     1      -3.309  13.151  21.730  0.00  0.00    +0.000 C 
BRANCH  22  29
ATOM     23  C   UNL     1      -2.400  16.408  22.227  0.00  0.00    +0.000 C 
ATOM     24  C   UNL     1      -2.905  15.386  23.175  0.00  0.00    +0.000 A 
ATOM     25  N   UNL     1      -3.142  15.778  24.433  0.00  0.00    +0.000 NA
ATOM     26  O   UNL     1      -3.679  14.695  25.076  0.00  0.00    +0.000 OA
ATOM     27  C   UNL     1      -3.767  13.650  24.219  0.00  0.00    +0.000 A 
ATOM     28  C   UNL     1      -4.413  12.451  24.791  0.00  0.00    +0.000 C 
ATOM     29  C   UNL     1      -3.265  14.008  22.972  0.00  0.00    +0.000 A 
ENDBRANCH  22  29
BRANCH  22  30
ATOM     30  C   UNL     1      -4.640  13.395  20.999  0.00  0.00    +0.000 A 
ATOM     31  C   UNL     1      -5.626  12.390  20.950  0.00  0.00    +0.000 A 
ATOM     32  C   UNL     1      -6.864  12.608  20.344  0.00  0.00    +0.000 A 
ATOM     33  C   UNL     1      -7.157  13.851  19.789  0.00  0.00    +0.000 A 
ATOM     34  C   UNL     1      -6.221  14.877  19.863  0.00  0.00    +0.000 A 
ATOM     35  C   UNL     1      -4.984  14.658  20.478  0.00  0.00    +0.000 A 
ENDBRANCH  22  30
ENDBRANCH   1  22
TORSDOF 5
ENDMDL
MODEL 2
REMARK VINA RESULT:      -8.0      3.604     11.174
REMARK  Name = 
REMARK  7 active torsions:
REMARK  status: ('A' for Active; 'I' for Inactive)
REMARK    1  A    between atoms: C_1  and  C_2
REMARK    2  A    between atoms: C_5  and  C_6
REMARK    3  A    between atoms: C_7  and  C_8
REMARK    4  A    between atoms: C_8  and  C_9
REMARK    5  A    between atoms: C_8  and  N_15
REMARK    6  A    between atoms: N_18  and  C_19
REMARK    7  A    between atoms: N_27  and  C_28
REMARK                            x       y       z     vdW  Elec       q    Type
REMARK                         _______ _______ _______ _____ _____    ______ ____
ROOT
ATOM      1  N   UNL     1       4.199   6.415  18.080  0.00  0.00    +0.000 NA
ATOM      2  C   UNL     1       4.333   7.795  17.644  0.00  0.00    +0.000 C 
ATOM      3  C   UNL     1       3.044   8.636  17.724  0.00  0.00    +0.000 C 
ATOM      4  N   UNL     1       2.309   8.477  19.007  0.00  0.00    +0.000 N 
ATOM      5  C   UNL     1       2.218   7.095  19.509  0.00  0.00    +0.000 C 
ATOM      6  C   UNL     1       3.549   6.324  19.379  0.00  0.00    +0.000 C 
ENDROOT
BRANCH   4   7
ATOM      7  C   UNL     1       1.104   9.222  19.011  0.00  0.00    +0.000 A 
ATOM      8  N   UNL     1       0.371   9.243  17.857  0.00  0.00    +0.000 NA
ATOM      9  C   UNL     1      -0.776   9.931  17.785  0.00  0.00    +0.000 A 
ATOM     10  N   UNL     1      -1.343  10.660  18.745  0.00  0.00    +0.000 NA
ATOM     11  C   UNL     1      -0.621  10.662  19.882  0.00  0.00    +0.000 A 
ATOM     12  C   UNL     1       0.587   9.997  20.079  0.00  0.00    +0.000 A 
ATOM     13  C   UNL     1       0.946  10.361  21.391  0.00  0.00    +0.000 A 
ATOM     14  N   UNL     1       0.066  11.165  21.991  0.00  0.00    +0.000 NA
ATOM     15  N   UNL     1      -0.935  11.318  21.074  0.00  0.00    +0.000 N 
BRANCH  15  16
ATOM     16  C   UNL     1      -2.121  12.038  21.426  0.00  0.00    +0.000 A 
ATOM     17  C   UNL     1      -2.527  12.079  22.771  0.00  0.00    +0.000 A 
ATOM     18  C   UNL     1      -3.717  12.717  23.135  0.00  0.00    +0.000 A 
ATOM     19  C   UNL     1      -4.511  13.325  22.165  0.00  0.00    +0.000 A 
ATOM     20  C   UNL     1      -4.104  13.310  20.831  0.00  0.00    +0.000 A 
ATOM     21  C   UNL     1      -2.914  12.674  20.467  0.00  0.00    +0.000 A 
ENDBRANCH  15  16
ENDBRANCH   4   7
BRANCH   1  22
ATOM     22  C   UNL     1       4.082   5.293  17.151  0.00  0.00    +0.000 C 
BRANCH  22  29
ATOM     23  C   UNL     1       4.842   4.216  13.997  0.00  0.00    +0.000 C 
ATOM     24  C   UNL     1       5.691   4.363  15.204  0.00  0.00    +0.000 A 
ATOM     25  N   UNL     1       7.002   4.128  15.065  0.00  0.00    +0.000 NA
ATOM     26  O   UNL     1       7.572   4.415  16.276  0.00  0.00    +0.000 OA
ATOM     27  C   UNL     1       6.618   4.820  17.148  0.00  0.00    +0.000 A 
ATOM     28  C   UNL     1       7.139   5.236  18.465  0.00  0.00    +0.000 C 
ATOM     29  C   UNL     1       5.368   4.793  16.538  0.00  0.00    +0.000 A 
ENDBRANCH  22  29
BRANCH  22  30
ATOM     30  C   UNL     1       3.281   4.095  17.686  0.00  0.00    +0.000 A 
ATOM     31  C   UNL     1       3.938   2.999  18.278  0.00  0.00    +0.000 A 
ATOM     32  C   UNL     1       3.229   1.927  18.824  0.00  0.00    +0.000 A 
ATOM     33  C   UNL     1       1.837   1.936  18.811  0.00  0.00    +0.000 A 
ATOM     34  C   UNL     1       1.159   3.026  18.273  0.00  0.00    +0.000 A 
ATOM     35  C   UNL     1       1.872   4.101  17.735  0.00  0.00    +0.000 A 
ENDBRANCH  22  30
ENDBRANCH   1  22
TORSDOF 5
ENDMDL
MODEL 3
REMARK VINA RESULT:      -7.9      3.903      5.048
REMARK  Name = 
REMARK  7 active torsions:
REMARK  status: ('A' for Active; 'I' for Inactive)
REMARK    1  A    between atoms: C_1  and  C_2
REMARK    2  A    between atoms: C_5  and  C_6
REMARK    3  A    between atoms: C_7  and  C_8
REMARK    4  A    between atoms: C_8  and  C_9
REMARK    5  A    between atoms: C_8  and  N_15
REMARK    6  A    between atoms: N_18  and  C_19
REMARK    7  A    between atoms: N_27  and  C_28
REMARK                            x       y       z     vdW  Elec       q    Type
REMARK                         _______ _______ _______ _____ _____    ______ ____
ROOT
ATOM      1  N   UNL     1       0.815  14.273  18.543  0.00  0.00    +0.000 NA
ATOM      2  C   UNL     1       1.965  13.479  18.145  0.00  0.00    +0.000 C 
ATOM      3  C   UNL     1       2.105  12.121  18.863  0.00  0.00    +0.000 C 
ATOM      4  N   UNL     1       0.834  11.352  18.931  0.00  0.00    +0.000 N 
ATOM      5  C   UNL     1      -0.361  12.145  19.264  0.00  0.00    +0.000 C 
ATOM      6  C   UNL     1      -0.413  13.491  18.510  0.00  0.00    +0.000 C 
ENDROOT
BRANCH   4   7
ATOM      7  C   UNL     1       0.998  10.142  19.648  0.00  0.00    +0.000 A 
ATOM      8  N   UNL     1       0.578  10.117  20.949  0.00  0.00    +0.000 NA
ATOM      9  C   UNL     1       0.706   9.008  21.691  0.00  0.00    +0.000 A 
ATOM     10  N   UNL     1       1.232   7.843  21.318  0.00  0.00    +0.000 NA
ATOM     11  C   UNL     1       1.667   7.859  20.043  0.00  0.00    +0.000 A 
ATOM     12  C   UNL     1       1.600   8.948  19.176  0.00  0.00    +0.000 A 
ATOM     13  C   UNL     1       2.226   8.470  18.009  0.00  0.00    +0.000 A 
ATOM     14  N   UNL     1       2.648   7.207  18.098  0.00  0.00    +0.000 NA
ATOM     15  N   UNL     1       2.260   6.807  19.345  0.00  0.00    +0.000 N 
BRANCH  15  16
ATOM     16  C   UNL     1       2.449   5.446  19.748  0.00  0.00    +0.000 A 
ATOM     17  C   UNL     1       1.442   4.801  20.486  0.00  0.00    +0.000 A 
ATOM     18  C   UNL     1       1.627   3.495  20.951  0.00  0.00    +0.000 A 
ATOM     19  C   UNL     1       2.814   2.816  20.682  0.00  0.00    +0.000 A 
ATOM     20  C   UNL     1       3.809   3.440  19.930  0.00  0.00    +0.000 A 
ATOM     21  C   UNL     1       3.624   4.745  19.464  0.00  0.00    +0.000 A 
ENDBRANCH  15  16
ENDBRANCH   4   7
BRANCH   1  22
ATOM     22  C   UNL     1       0.907  15.406  19.460  0.00  0.00    +0.000 C 
BRANCH  22  29
ATOM     23  C   UNL     1       2.958  16.869  17.150  0.00  0.00    +0.000 C 
ATOM     24  C   UNL     1       3.113  16.696  18.614  0.00  0.00    +0.000 A 
ATOM     25  N   UNL     1       4.178  17.266  19.191  0.00  0.00    +0.000 NA
ATOM     26  O   UNL     1       4.049  17.046  20.536  0.00  0.00    +0.000 OA
ATOM     27  C   UNL     1       2.915  16.346  20.779  0.00  0.00    +0.000 A 
ATOM     28  C   UNL     1       2.635  16.125  22.212  0.00  0.00    +0.000 C 
ATOM     29  C   UNL     1       2.262  16.059  19.584  0.00  0.00    +0.000 A 
ENDBRANCH  22  29
BRANCH  22  30
ATOM     30  C   UNL     1      -0.158  16.495  19.250  0.00  0.00    +0.000 A 
ATOM     31  C   UNL     1      -0.287  17.141  18.005  0.00  0.00    +0.000 A 
ATOM     32  C   UNL     1      -1.284  18.089  17.772  0.00  0.00    +0.000 A 
ATOM     33  C   UNL     1      -2.197  18.400  18.777  0.00  0.00    +0.000 A 
ATOM     34  C   UNL     1      -2.123  17.745  20.002  0.00  0.00    +0.000 A 
ATOM     35  C   UNL     1      -1.128  16.789  20.230  0.00  0.00    +0.000 A 
ENDBRANCH  22  30
ENDBRANCH   1  22
TORSDOF 5
ENDMDL
MODEL 4
REMARK VINA RESULT:      -7.9      1.302      1.571
REMARK  Name = 
REMARK  7 active torsions:
REMARK  status: ('A' for Active; 'I' for Inactive)
REMARK    1  A    between atoms: C_1  and  C_2
REMARK    2  A    between atoms: C_5  and  C_6
REMARK    3  A    between atoms: C_7  and  C_8
REMARK    4  A    between atoms: C_8  and  C_9
REMARK    5  A    between atoms: C_8  and  N_15
REMARK    6  A    between atoms: N_18  and  C_19
REMARK    7  A    between atoms: N_27  and  C_28
REMARK                            x       y       z     vdW  Elec       q    Type
REMARK                         _______ _______ _______ _____ _____    ______ ____
ROOT
ATOM      1  N   UNL     1      -2.938  13.222  21.107  0.00  0.00    +0.000 NA
ATOM      2  C   UNL     1      -1.819  13.154  22.032  0.00  0.00    +0.000 C 
ATOM      3  C   UNL     1      -0.975  11.867  21.947  0.00  0.00    +0.000 C 
ATOM      4  N   UNL     1      -0.633  11.470  20.555  0.00  0.00    +0.000 N 
ATOM      5  C   UNL     1      -1.731  11.596  19.581  0.00  0.00    +0.000 C 
ATOM      6  C   UNL     1      -2.528  12.908  19.746  0.00  0.00    +0.000 C 
ENDROOT
BRANCH   4   7
ATOM      7  C   UNL     1       0.091  10.254  20.526  0.00  0.00    +0.000 A 
ATOM      8  N   UNL     1       0.100   9.496  21.664  0.00  0.00    +0.000 NA
ATOM      9  C   UNL     1       0.768   8.336  21.710  0.00  0.00    +0.000 A 
ATOM     10  N   UNL     1       1.486   7.777  20.738  0.00  0.00    +0.000 NA
ATOM     11  C   UNL     1       1.501   8.522  19.616  0.00  0.00    +0.000 A 
ATOM     12  C   UNL     1       0.857   9.746  19.446  0.00  0.00    +0.000 A 
ATOM     13  C   UNL     1       1.226  10.126  18.142  0.00  0.00    +0.000 A 
ATOM     14  N   UNL     1       2.015   9.246  17.522  0.00  0.00    +0.000 NA
ATOM     15  N   UNL     1       2.151   8.223  18.418  0.00  0.00    +0.000 N 
BRANCH  15  16
ATOM     16  C   UNL     1       2.850   7.033  18.041  0.00  0.00    +0.000 A 
ATOM     17  C   UNL     1       2.215   5.786  18.184  0.00  0.00    +0.000 A 
ATOM     18  C   UNL     1       2.897   4.603  17.887  0.00  0.00    +0.000 A 
ATOM     19  C   UNL     1       4.216   4.646  17.440  0.00  0.00    +0.000 A 
ATOM     20  C   UNL     1       4.847   5.879  17.273  0.00  0.00    +0.000 A 
ATOM     21  C   UNL     1       4.165   7.063  17.568  0.00  0.00    +0.000 A 
ENDBRANCH  15  16
ENDBRANCH   4   7
BRANCH   1  22
ATOM     22  C   UNL     1      -4.320  12.964  21.506  0.00  0.00    +0.000 C 
BRANCH  22  29
ATOM     23  C   UNL     1      -3.838  16.299  22.081  0.00  0.00    +0.000 C 
ATOM     24  C   UNL     1      -4.724  15.316  22.751  0.00  0.00    +0.000 A 
ATOM     25  N   UNL     1      -5.557  15.780  23.690  0.00  0.00    +0.000 NA
ATOM     26  O   UNL     1      -6.320  14.715  24.086  0.00  0.00    +0.000 OA
ATOM     27  C   UNL     1      -5.954  13.608  23.396  0.00  0.00    +0.000 A 
ATOM     28  C   UNL     1      -6.773  12.414  23.687  0.00  0.00    +0.000 C 
ATOM     29  C   UNL     1      -4.910  13.907  22.527  0.00  0.00    +0.000 A 
ENDBRANCH  22  29
BRANCH  22  30
ATOM     30  C   UNL     1      -5.308  12.803  20.340  0.00  0.00    +0.000 A 
ATOM     31  C   UNL     1      -5.841  11.539  20.020  0.00  0.00    +0.000 A 
ATOM     32  C   UNL     1      -6.785  11.377  19.005  0.00  0.00    +0.000 A 
ATOM     33  C   UNL     1      -7.239  12.485  18.295  0.00  0.00    +0.000 A 
ATOM     34  C   UNL     1      -6.766  13.753  18.619  0.00  0.00    +0.000 A 
ATOM     35  C   UNL     1      -5.826  13.913  19.642  0.00  0.00    +0.000 A 
ENDBRANCH  22  30
ENDBRANCH   1  22
TORSDOF 5
ENDMDL
MODEL 5
REMARK VINA RESULT:      -7.9      1.622      3.345
REMARK  Name = 
REMARK  7 active torsions:
REMARK  status: ('A' for Active; 'I' for Inactive)
REMARK    1  A    between atoms: C_1  and  C_2
REMARK    2  A    between atoms: C_5  and  C_6
REMARK    3  A    between atoms: C_7  and  C_8
REMARK    4  A    between atoms: C_8  and  C_9
REMARK    5  A    between atoms: C_8  and  N_15
REMARK    6  A    between atoms: N_18  and  C_19
REMARK    7  A    between atoms: N_27  and  C_28
REMARK                            x       y       z     vdW  Elec       q    Type
REMARK                         _______ _______ _______ _____ _____    ______ ____
ROOT
ATOM      1  N   UNL     1      -1.414  12.758  22.314  0.00  0.00    +0.000 NA
ATOM      2  C   UNL     1      -1.407  11.334  22.606  0.00  0.00    +0.000 C 
ATOM      3  C   UNL     1      -0.729  10.449  21.542  0.00  0.00    +0.000 C 
ATOM      4  N   UNL     1       0.582  10.976  21.078  0.00  0.00    +0.000 N 
ATOM      5  C   UNL     1       0.624  12.429  20.840  0.00  0.00    +0.000 C 
ATOM      6  C   UNL     1      -0.088  13.236  21.948  0.00  0.00    +0.000 C 
ENDROOT
BRANCH   4   7
ATOM      7  C   UNL     1       1.138  10.162  20.061  0.00  0.00    +0.000 A 
ATOM      8  N   UNL     1       1.384  10.746  18.849  0.00  0.00    +0.000 NA
ATOM      9  C   UNL     1       1.905  10.036  17.839  0.00  0.00    +0.000 A 
ATOM     10  N   UNL     1       2.232   8.745  17.842  0.00  0.00    +0.000 NA
ATOM     11  C   UNL     1       1.978   8.154  19.025  0.00  0.00    +0.000 A 
ATOM     12  C   UNL     1       1.431   8.778  20.145  0.00  0.00    +0.000 A 
ATOM     13  C   UNL     1       1.320   7.729  21.077  0.00  0.00    +0.000 A 
ATOM     14  N   UNL     1       1.753   6.551  20.623  0.00  0.00    +0.000 NA
ATOM     15  N   UNL     1       2.208   6.820  19.363  0.00  0.00    +0.000 N 
BRANCH  15  16
ATOM     16  C   UNL     1       2.861   5.794  18.607  0.00  0.00    +0.000 A 
ATOM     17  C   UNL     1       2.095   4.750  18.060  0.00  0.00    +0.000 A 
ATOM     18  C   UNL     1       2.713   3.699  17.375  0.00  0.00    +0.000 A 
ATOM     19  C   UNL     1       4.098   3.679  17.222  0.00  0.00    +0.000 A 
ATOM     20  C   UNL     1       4.863   4.724  17.741  0.00  0.00    +0.000 A 
ATOM     21  C   UNL     1       4.246   5.775  18.425  0.00  0.00    +0.000 A 
ENDBRANCH  15  16
ENDBRANCH   4   7
BRANCH   1  22
ATOM     22  C   UNL     1      -2.586  13.461  21.797  0.00  0.00    +0.000 C 
BRANCH  22  29
ATOM     23  C   UNL     1      -3.954  12.947  24.887  0.00  0.00    +0.000 C 
ATOM     24  C   UNL     1      -4.514  12.735  23.530  0.00  0.00    +0.000 A 
ATOM     25  N   UNL     1      -5.796  12.362  23.446  0.00  0.00    +0.000 NA
ATOM     26  O   UNL     1      -6.096  12.322  22.111  0.00  0.00    +0.000 OA
ATOM     27  C   UNL     1      -5.006  12.667  21.385  0.00  0.00    +0.000 A 
ATOM     28  C   UNL     1      -5.244  12.738  19.930  0.00  0.00    +0.000 C 
ATOM     29  C   UNL     1      -3.931  12.928  22.229  0.00  0.00    +0.000 A 
ENDBRANCH  22  29
BRANCH  22  30
ATOM     30  C   UNL     1      -2.563  14.985  21.994  0.00  0.00    +0.000 A 
ATOM     31  C   UNL     1      -2.811  15.853  20.912  0.00  0.00    +0.000 A 
ATOM     32  C   UNL     1      -2.854  17.238  21.079  0.00  0.00    +0.000 A 
ATOM     33  C   UNL     1      -2.670  17.792  22.343  0.00  0.00    +0.000 A 
ATOM     34  C   UNL     1      -2.468  16.959  23.438  0.00  0.00    +0.000 A 
ATOM     35  C   UNL     1      -2.434  15.571  23.270  0.00  0.00    +0.000 A 
ENDBRANCH  22  30
ENDBRANCH   1  22
TORSDOF 5
ENDMDL
MODEL 6
REMARK VINA RESULT:      -7.8      2.641      3.391
REMARK  Name = 
REMARK  7 active torsions:
REMARK  status: ('A' for Active; 'I' for Inactive)
REMARK    1  A    between atoms: C_1  and  C_2
REMARK    2  A    between atoms: C_5  and  C_6
REMARK    3  A    between atoms: C_7  and  C_8
REMARK    4  A    between atoms: C_8  and  C_9
REMARK    5  A    between atoms: C_8  and  N_15
REMARK    6  A    between atoms: N_18  and  C_19
REMARK    7  A    between atoms: N_27  and  C_28
REMARK                            x       y       z     vdW  Elec       q    Type
REMARK                         _______ _______ _______ _____ _____    ______ ____
ROOT
ATOM      1  N   UNL     1       0.222  14.152  19.268  0.00  0.00    +0.000 NA
ATOM      2  C   UNL     1       1.562  13.787  19.697  0.00  0.00    +0.000 C 
ATOM      3  C   UNL     1       1.735  12.315  20.124  0.00  0.00    +0.000 C 
ATOM      4  N   UNL     1       1.118  11.346  19.180  0.00  0.00    +0.000 N 
ATOM      5  C   UNL     1      -0.212  11.726  18.673  0.00  0.00    +0.000 C 
ATOM      6  C   UNL     1      -0.298  13.216  18.282  0.00  0.00    +0.000 C 
ENDROOT
BRANCH   4   7
ATOM      7  C   UNL     1       1.252  10.014  19.642  0.00  0.00    +0.000 A 
ATOM      8  N   UNL     1       0.820   9.740  20.910  0.00  0.00    +0.000 NA
ATOM      9  C   UNL     1       0.920   8.503  21.416  0.00  0.00    +0.000 A 
ATOM     10  N   UNL     1       1.426   7.424  20.822  0.00  0.00    +0.000 NA
ATOM     11  C   UNL     1       1.872   7.685  19.577  0.00  0.00    +0.000 A 
ATOM     12  C   UNL     1       1.834   8.926  18.944  0.00  0.00    +0.000 A 
ATOM     13  C   UNL     1       2.461   8.677  17.709  0.00  0.00    +0.000 A 
ATOM     14  N   UNL     1       2.857   7.413  17.546  0.00  0.00    +0.000 NA
ATOM     15  N   UNL     1       2.450   6.780  18.686  0.00  0.00    +0.000 N 
BRANCH  15  16
ATOM     16  C   UNL     1       2.609   5.363  18.811  0.00  0.00    +0.000 A 
ATOM     17  C   UNL     1       3.681   4.854  19.565  0.00  0.00    +0.000 A 
ATOM     18  C   UNL     1       3.900   3.476  19.648  0.00  0.00    +0.000 A 
ATOM     19  C   UNL     1       3.052   2.590  18.987  0.00  0.00    +0.000 A 
ATOM     20  C   UNL     1       1.972   3.084  18.257  0.00  0.00    +0.000 A 
ATOM     21  C   UNL     1       1.752   4.462  18.174  0.00  0.00    +0.000 A 
ENDBRANCH  15  16
ENDBRANCH   4   7
BRANCH   1  22
ATOM     22  C   UNL     1      -0.718  14.877  20.119  0.00  0.00    +0.000 C 
BRANCH  22  29
ATOM     23  C   UNL     1       1.408  17.099  21.613  0.00  0.00    +0.000 C 
ATOM     24  C   UNL     1       0.569  16.020  22.189  0.00  0.00    +0.000 A 
ATOM     25  N   UNL     1       0.538  15.912  23.523  0.00  0.00    +0.000 NA
ATOM     26  O   UNL     1      -0.362  14.920  23.806  0.00  0.00    +0.000 OA
ATOM     27  C   UNL     1      -0.876  14.425  22.654  0.00  0.00    +0.000 A 
ATOM     28  C   UNL     1      -1.924  13.403  22.849  0.00  0.00    +0.000 C 
ATOM     29  C   UNL     1      -0.308  15.069  21.559  0.00  0.00    +0.000 A 
ENDBRANCH  22  29
BRANCH  22  30
ATOM     30  C   UNL     1      -1.198  16.223  19.551  0.00  0.00    +0.000 A 
ATOM     31  C   UNL     1      -0.564  16.795  18.430  0.00  0.00    +0.000 A 
ATOM     32  C   UNL     1      -1.019  17.985  17.860  0.00  0.00    +0.000 A 
ATOM     33  C   UNL     1      -2.139  18.624  18.386  0.00  0.00    +0.000 A 
ATOM     34  C   UNL     1      -2.813  18.059  19.463  0.00  0.00    +0.000 A 
ATOM     35  C   UNL     1      -2.360  16.863  20.027  0.00  0.00    +0.000 A 
ENDBRANCH  22  30
ENDBRANCH   1  22
TORSDOF 5
ENDMDL
MODEL 7
REMARK VINA RESULT:      -7.8      1.637      3.369
REMARK  Name = 
REMARK  7 active torsions:
REMARK  status: ('A' for Active; 'I' for Inactive)
REMARK    1  A    between atoms: C_1  and  C_2
REMARK    2  A    between atoms: C_5  and  C_6
REMARK    3  A    between atoms: C_7  and  C_8
REMARK    4  A    between atoms: C_8  and  C_9
REMARK    5  A    between atoms: C_8  and  N_15
REMARK    6  A    between atoms: N_18  and  C_19
REMARK    7  A    between atoms: N_27  and  C_28
REMARK                            x       y       z     vdW  Elec       q    Type
REMARK                         _______ _______ _______ _____ _____    ______ ____
ROOT
ATOM      1  N   UNL     1      -1.315  12.951  22.282  0.00  0.00    +0.000 NA
ATOM      2  C   UNL     1      -1.416  11.525  22.549  0.00  0.00    +0.000 C 
ATOM      3  C   UNL     1      -0.782  10.612  21.480  0.00  0.00    +0.000 C 
ATOM      4  N   UNL     1       0.572  11.052  21.050  0.00  0.00    +0.000 N 
ATOM      5  C   UNL     1       0.722  12.502  20.840  0.00  0.00    +0.000 C 
ATOM      6  C   UNL     1       0.048  13.339  21.949  0.00  0.00    +0.000 C 
ENDROOT
BRANCH   4   7
ATOM      7  C   UNL     1       1.088  10.218  20.028  0.00  0.00    +0.000 A 
ATOM      8  N   UNL     1       1.269  10.772  18.792  0.00  0.00    +0.000 NA
ATOM      9  C   UNL     1       1.749  10.042  17.776  0.00  0.00    +0.000 A 
ATOM     10  N   UNL     1       2.091   8.755  17.796  0.00  0.00    +0.000 NA
ATOM     11  C   UNL     1       1.900   8.191  19.005  0.00  0.00    +0.000 A 
ATOM     12  C   UNL     1       1.401   8.839  20.133  0.00  0.00    +0.000 A 
ATOM     13  C   UNL     1       1.346   7.813  21.096  0.00  0.00    +0.000 A 
ATOM     14  N   UNL     1       1.770   6.628  20.652  0.00  0.00    +0.000 NA
ATOM     15  N   UNL     1       2.162   6.869  19.365  0.00  0.00    +0.000 N 
BRANCH  15  16
ATOM     16  C   UNL     1       2.789   5.831  18.605  0.00  0.00    +0.000 A 
ATOM     17  C   UNL     1       1.997   4.813  18.045  0.00  0.00    +0.000 A 
ATOM     18  C   UNL     1       2.589   3.750  17.356  0.00  0.00    +0.000 A 
ATOM     19  C   UNL     1       3.973   3.692  17.211  0.00  0.00    +0.000 A 
ATOM     20  C   UNL     1       4.765   4.710  17.742  0.00  0.00    +0.000 A 
ATOM     21  C   UNL     1       4.174   5.773  18.431  0.00  0.00    +0.000 A 
ENDBRANCH  15  16
ENDBRANCH   4   7
BRANCH   1  22
ATOM     22  C   UNL     1      -2.424  13.744  21.757  0.00  0.00    +0.000 C 
BRANCH  22  29
ATOM     23  C   UNL     1      -4.695  12.455  19.552  0.00  0.00    +0.000 C 
ATOM     24  C   UNL     1      -4.752  12.608  21.026  0.00  0.00    +0.000 A 
ATOM     25  N   UNL     1      -5.815  12.094  21.656  0.00  0.00    +0.000 NA
ATOM     26  O   UNL     1      -5.594  12.280  22.994  0.00  0.00    +0.000 OA
ATOM     27  C   UNL     1      -4.406  12.904  23.180  0.00  0.00    +0.000 A 
ATOM     28  C   UNL     1      -4.028  13.080  24.597  0.00  0.00    +0.000 C 
ATOM     29  C   UNL     1      -3.808  13.173  21.953  0.00  0.00    +0.000 A 
ENDBRANCH  22  29
BRANCH  22  30
ATOM     30  C   UNL     1      -2.424  15.219  22.191  0.00  0.00    +0.000 A 
ATOM     31  C   UNL     1      -3.118  16.188  21.441  0.00  0.00    +0.000 A 
ATOM     32  C   UNL     1      -3.182  17.522  21.846  0.00  0.00    +0.000 A 
ATOM     33  C   UNL     1      -2.567  17.918  23.032  0.00  0.00    +0.000 A 
ATOM     34  C   UNL     1      -1.912  16.975  23.817  0.00  0.00    +0.000 A 
ATOM     35  C   UNL     1      -1.857  15.638  23.412  0.00  0.00    +0.000 A 
ENDBRANCH  22  30
ENDBRANCH   1  22
TORSDOF 5
ENDMDL
MODEL 8
REMARK VINA RESULT:      -7.7      3.459     10.719
REMARK  Name = 
REMARK  7 active torsions:
REMARK  status: ('A' for Active; 'I' for Inactive)
REMARK    1  A    between atoms: C_1  and  C_2
REMARK    2  A    between atoms: C_5  and  C_6
REMARK    3  A    between atoms: C_7  and  C_8
REMARK    4  A    between atoms: C_8  and  C_9
REMARK    5  A    between atoms: C_8  and  N_15
REMARK    6  A    between atoms: N_18  and  C_19
REMARK    7  A    between atoms: N_27  and  C_28
REMARK                            x       y       z     vdW  Elec       q    Type
REMARK                         _______ _______ _______ _____ _____    ______ ____
ROOT
ATOM      1  N   UNL     1       2.960   6.985  18.735  0.00  0.00    +0.000 NA
ATOM      2  C   UNL     1       2.964   8.115  17.820  0.00  0.00    +0.000 C 
ATOM      3  C   UNL     1       1.691   8.985  17.847  0.00  0.00    +0.000 C 
ATOM      4  N   UNL     1       1.230   9.321  19.220  0.00  0.00    +0.000 N 
ATOM      5  C   UNL     1       1.282   8.211  20.188  0.00  0.00    +0.000 C 
ATOM      6  C   UNL     1       2.583   7.388  20.082  0.00  0.00    +0.000 C 
ENDROOT
BRANCH   4   7
ATOM      7  C   UNL     1       0.028  10.070  19.195  0.00  0.00    +0.000 A 
ATOM      8  N   UNL     1      -0.733  10.004  18.062  0.00  0.00    +0.000 NA
ATOM      9  C   UNL     1      -1.881  10.690  17.964  0.00  0.00    +0.000 A 
ATOM     10  N   UNL     1      -2.421  11.495  18.877  0.00  0.00    +0.000 NA
ATOM     11  C   UNL     1      -1.671  11.583  19.993  0.00  0.00    +0.000 A 
ATOM     12  C   UNL     1      -0.460  10.930  20.211  0.00  0.00    +0.000 A 
ATOM     13  C   UNL     1      -0.067  11.394  21.481  0.00  0.00    +0.000 A 
ATOM     14  N   UNL     1      -0.929  12.248  22.037  0.00  0.00    +0.000 NA
ATOM     15  N   UNL     1      -1.952  12.333  21.136  0.00  0.00    +0.000 N 
BRANCH  15  16
ATOM     16  C   UNL     1      -3.127  13.084  21.459  0.00  0.00    +0.000 A 
ATOM     17  C   UNL     1      -3.331  14.337  20.853  0.00  0.00    +0.000 A 
ATOM     18  C   UNL     1      -4.433  15.123  21.201  0.00  0.00    +0.000 A 
ATOM     19  C   UNL     1      -5.347  14.669  22.149  0.00  0.00    +0.000 A 
ATOM     20  C   UNL     1      -5.166  13.418  22.738  0.00  0.00    +0.000 A 
ATOM     21  C   UNL     1      -4.064  12.631  22.390  0.00  0.00    +0.000 A 
ENDBRANCH  15  16
ENDBRANCH   4   7
BRANCH   1  22
ATOM     22  C   UNL     1       2.695   5.614  18.307  0.00  0.00    +0.000 C 
BRANCH  22  29
ATOM     23  C   UNL     1       5.845   6.611  17.432  0.00  0.00    +0.000 C 
ATOM     24  C   UNL     1       5.107   5.359  17.139  0.00  0.00    +0.000 A 
ATOM     25  N   UNL     1       5.771   4.389  16.499  0.00  0.00    +0.000 NA
ATOM     26  O   UNL     1       4.917   3.322  16.429  0.00  0.00    +0.000 OA
ATOM     27  C   UNL     1       3.740   3.637  17.020  0.00  0.00    +0.000 A 
ATOM     28  C   UNL     1       2.772   2.523  17.074  0.00  0.00    +0.000 C 
ATOM     29  C   UNL     1       3.772   4.948  17.486  0.00  0.00    +0.000 A 
ENDBRANCH  22  29
BRANCH  22  30
ATOM     30  C   UNL     1       2.259   4.661  19.432  0.00  0.00    +0.000 A 
ATOM     31  C   UNL     1       0.946   4.153  19.475  0.00  0.00    +0.000 A 
ATOM     32  C   UNL     1       0.545   3.241  20.451  0.00  0.00    +0.000 A 
ATOM     33  C   UNL     1       1.458   2.793  21.402  0.00  0.00    +0.000 A 
ATOM     34  C   UNL     1       2.774   3.241  21.358  0.00  0.00    +0.000 A 
ATOM     35  C   UNL     1       3.176   4.149  20.373  0.00  0.00    +0.000 A 
ENDBRANCH  22  30
ENDBRANCH   1  22
TORSDOF 5
ENDMDL
MODEL 9
REMARK VINA RESULT:      -7.7      0.843      1.141
REMARK  Name = 
REMARK  7 active torsions:
REMARK  status: ('A' for Active; 'I' for Inactive)
REMARK    1  A    between atoms: C_1  and  C_2
REMARK    2  A    between atoms: C_5  and  C_6
REMARK    3  A    between atoms: C_7  and  C_8
REMARK    4  A    between atoms: C_8  and  C_9
REMARK    5  A    between atoms: C_8  and  N_15
REMARK    6  A    between atoms: N_18  and  C_19
REMARK    7  A    between atoms: N_27  and  C_28
REMARK                            x       y       z     vdW  Elec       q    Type
REMARK                         _______ _______ _______ _____ _____    ______ ____
ROOT
ATOM      1  N   UNL     1      -2.574  12.990  20.314  0.00  0.00    +0.000 NA
ATOM      2  C   UNL     1      -1.241  13.204  20.854  0.00  0.00    +0.000 C 
ATOM      3  C   UNL     1      -0.386  11.932  21.015  0.00  0.00    +0.000 C 
ATOM      4  N   UNL     1      -0.420  11.039  19.826  0.00  0.00    +0.000 N 
ATOM      5  C   UNL     1      -1.748  10.859  19.216  0.00  0.00    +0.000 C 
ATOM      6  C   UNL     1      -2.538  12.180  19.105  0.00  0.00    +0.000 C 
ENDROOT
BRANCH   4   7
ATOM      7  C   UNL     1       0.332   9.858  20.043  0.00  0.00    +0.000 A 
ATOM      8  N   UNL     1       0.303   9.312  21.296  0.00  0.00    +0.000 NA
ATOM      9  C   UNL     1       0.993   8.198  21.576  0.00  0.00    +0.000 A 
ATOM     10  N   UNL     1       1.770   7.500  20.750  0.00  0.00    +0.000 NA
ATOM     11  C   UNL     1       1.822   8.037  19.516  0.00  0.00    +0.000 A 
ATOM     12  C   UNL     1       1.160   9.192  19.105  0.00  0.00    +0.000 A 
ATOM     13  C   UNL     1       1.583   9.349  17.771  0.00  0.00    +0.000 A 
ATOM     14  N   UNL     1       2.420   8.398  17.352  0.00  0.00    +0.000 NA
ATOM     15  N   UNL     1       2.535   7.553  18.419  0.00  0.00    +0.000 N 
BRANCH  15  16
ATOM     16  C   UNL     1       3.278   6.336  18.288  0.00  0.00    +0.000 A 
ATOM     17  C   UNL     1       2.635   5.187  17.796  0.00  0.00    +0.000 A 
ATOM     18  C   UNL     1       3.317   3.968  17.721  0.00  0.00    +0.000 A 
ATOM     19  C   UNL     1       4.646   3.882  18.130  0.00  0.00    +0.000 A 
ATOM     20  C   UNL     1       5.299   5.022  18.597  0.00  0.00    +0.000 A 
ATOM     21  C   UNL     1       4.618   6.241  18.671  0.00  0.00    +0.000 A 
ENDBRANCH  15  16
ENDBRANCH   4   7
BRANCH   1  22
ATOM     22  C   UNL     1      -3.776  12.968  21.144  0.00  0.00    +0.000 C 
BRANCH  22  29
ATOM     23  C   UNL     1      -3.300  16.352  21.048  0.00  0.00    +0.000 C 
ATOM     24  C   UNL     1      -3.696  15.459  22.163  0.00  0.00    +0.000 A 
ATOM     25  N   UNL     1      -4.014  16.035  23.329  0.00  0.00    +0.000 NA
ATOM     26  O   UNL     1      -4.426  15.025  24.155  0.00  0.00    +0.000 OA
ATOM     27  C   UNL     1      -4.358  13.840  23.501  0.00  0.00    +0.000 A 
ATOM     28  C   UNL     1      -4.861  12.690  24.278  0.00  0.00    +0.000 C 
ATOM     29  C   UNL     1      -3.873  14.031  22.212  0.00  0.00    +0.000 A 
ENDBRANCH  22  29
BRANCH  22  30
ATOM     30  C   UNL     1      -5.098  12.920  20.362  0.00  0.00    +0.000 A 
ATOM     31  C   UNL     1      -5.991  11.843  20.527  0.00  0.00    +0.000 A 
ATOM     32  C   UNL     1      -7.224  11.806  19.873  0.00  0.00    +0.000 A 
ATOM     33  C   UNL     1      -7.606  12.863  19.050  0.00  0.00    +0.000 A 
ATOM     34  C   UNL     1      -6.765  13.961  18.904  0.00  0.00    +0.000 A 
ATOM     35  C   UNL     1      -5.535  13.999  19.566  0.00  0.00    +0.000 A 
ENDBRANCH  22  30
ENDBRANCH   1  22
TORSDOF 5
ENDMDL
