MODEL 1
REMARK VINA RESULT:      -7.6      0.000      0.000
REMARK  Name = 
REMARK  8 active torsions:
REMARK  status: ('A' for Active; 'I' for Inactive)
REMARK    1  A    between atoms: C_1  and  O_2
REMARK    2  A    between atoms: O_2  and  C_3
REMARK    3  A    between atoms: C_3  and  C_5
REMARK    4  A    between atoms: C_6  and  C_7
REMARK    5  A    between atoms: C_13  and  C_14
REMARK    6  A    between atoms: N_15  and  C_16
REMARK    7  A    between atoms: C_16  and  C_17
REMARK    8  A    between atoms: C_23  and  C_24
REMARK                            x       y       z     vdW  Elec       q    Type
REMARK                         _______ _______ _______ _____ _____    ______ ____
ROOT
ATOM      1  C   UNL     1       2.950   4.680  17.984  0.00  0.00    +0.000 A 
ATOM      2  C   UNL     1       3.415   6.049  18.001  0.00  0.00    +0.000 A 
ATOM      3  C   UNL     1       4.766   6.030  17.657  0.00  0.00    +0.000 A 
ATOM      4  C   UNL     1       5.797   7.115  17.586  0.00  0.00    +0.000 C 
ATOM      5  N   UNL     1       5.108   4.719  17.372  0.00  0.00    +0.000 N 
ATOM      6  C   UNL     1       4.049   3.878  17.655  0.00  0.00    +0.000 A 
ATOM      7  C   UNL     1       4.150   2.390  17.562  0.00  0.00    +0.000 C 
ENDROOT
BRANCH   2   8
ATOM      8  C   UNL     1       2.694   7.264  18.411  0.00  0.00    +0.000 A 
ATOM      9  C   UNL     1       2.437   8.286  17.482  0.00  0.00    +0.000 A 
ATOM     10  C   UNL     1       1.723   9.432  17.850  0.00  0.00    +0.000 A 
ATOM     11  C   UNL     1       1.220   9.559  19.140  0.00  0.00    +0.000 A 
ATOM     12  C   UNL     1       1.463   8.555  20.075  0.00  0.00    +0.000 A 
ATOM     13  C   UNL     1       2.219   7.433  19.719  0.00  0.00    +0.000 A 
ENDBRANCH   2   8
BRANCH   1  14
ATOM     14  C   UNL     1       1.594   4.192  18.254  0.00  0.00    +0.000 C 
ATOM     15  O   UNL     1       0.770   3.929  17.385  0.00  0.00    +0.000 OA
BRANCH  14  17
ATOM     16  C   UNL     1       1.191   2.740  20.067  0.00  0.00    +0.000 C 
ATOM     17  O   UNL     1       1.330   4.077  19.590  0.00  0.00    +0.000 OA
ENDBRANCH  14  17
ENDBRANCH   1  14
BRANCH   5  18
ATOM     18  C   UNL     1       6.406   4.293  16.829  0.00  0.00    +0.000 C 
BRANCH  18  19
ATOM     19  C   UNL     1       6.526   4.376  15.323  0.00  0.00    +0.000 A 
ATOM     20  C   UNL     1       7.500   5.138  14.660  0.00  0.00    +0.000 A 
ATOM     21  C   UNL     1       7.595   5.123  13.266  0.00  0.00    +0.000 A 
ATOM     22  C   UNL     1       6.712   4.354  12.514  0.00  0.00    +0.000 A 
ATOM     23  C   UNL     1       5.718   3.617  13.152  0.00  0.00    +0.000 A 
ATOM     24  C   UNL     1       5.622   3.632  14.545  0.00  0.00    +0.000 A 
ENDBRANCH  18  19
ENDBRANCH   5  18
TORSDOF 5
ENDMDL
MODEL 2
REMARK VINA RESULT:      -7.5      0.084      1.392
REMARK  Name = 
REMARK  8 active torsions:
REMARK  status: ('A' for Active; 'I' for Inactive)
REMARK    1  A    between atoms: C_1  and  O_2
REMARK    2  A    between atoms: O_2  and  C_3
REMARK    3  A    between atoms: C_3  and  C_5
REMARK    4  A    between atoms: C_6  and  C_7
REMARK    5  A    between atoms: C_13  and  C_14
REMARK    6  A    between atoms: N_15  and  C_16
REMARK    7  A    between atoms: C_16  and  C_17
REMARK    8  A    between atoms: C_23  and  C_24
REMARK                            x       y       z     vdW  Elec       q    Type
REMARK                         _______ _______ _______ _____ _____    ______ ____
ROOT
ATOM      1  C   UNL     1       2.972   4.686  17.949  0.00  0.00    +0.000 A 
ATOM      2  C   UNL     1       3.411   6.063  17.961  0.00  0.00    +0.000 A 
ATOM      3  C   UNL     1       4.765   6.067  17.628  0.00  0.00    +0.000 A 
ATOM      4  C   UNL     1       5.776   7.171  17.557  0.00  0.00    +0.000 C 
ATOM      5  N   UNL     1       5.133   4.761  17.352  0.00  0.00    +0.000 N 
ATOM      6  C   UNL     1       4.088   3.902  17.633  0.00  0.00    +0.000 A 
ATOM      7  C   UNL     1       4.216   2.416  17.550  0.00  0.00    +0.000 C 
ENDROOT
BRANCH   2   8
ATOM      8  C   UNL     1       2.665   7.268  18.358  0.00  0.00    +0.000 A 
ATOM      9  C   UNL     1       2.214   7.422  19.678  0.00  0.00    +0.000 A 
ATOM     10  C   UNL     1       1.533   8.578  20.078  0.00  0.00    +0.000 A 
ATOM     11  C   UNL     1       1.327   9.615  19.175  0.00  0.00    +0.000 A 
ATOM     12  C   UNL     1       1.768   9.482  17.861  0.00  0.00    +0.000 A 
ATOM     13  C   UNL     1       2.405   8.305  17.451  0.00  0.00    +0.000 A 
ENDBRANCH   2   8
BRANCH   1  14
ATOM     14  C   UNL     1       1.622   4.175  18.212  0.00  0.00    +0.000 C 
ATOM     15  O   UNL     1       0.782   3.969  17.344  0.00  0.00    +0.000 OA
BRANCH  14  17
ATOM     16  C   UNL     1       1.101   2.617  19.903  0.00  0.00    +0.000 C 
ATOM     17  O   UNL     1       1.387   3.967  19.542  0.00  0.00    +0.000 OA
ENDBRANCH  14  17
ENDBRANCH   1  14
BRANCH   5  18
ATOM     18  C   UNL     1       6.442   4.356  16.821  0.00  0.00    +0.000 C 
BRANCH  18  19
ATOM     19  C   UNL     1       6.536   4.322  15.312  0.00  0.00    +0.000 A 
ATOM     20  C   UNL     1       5.671   3.581  14.493  0.00  0.00    +0.000 A 
ATOM     21  C   UNL     1       5.774   3.642  13.101  0.00  0.00    +0.000 A 
ATOM     22  C   UNL     1       6.749   4.437  12.507  0.00  0.00    +0.000 A 
ATOM     23  C   UNL     1       7.637   5.155  13.303  0.00  0.00    +0.000 A 
ATOM     24  C   UNL     1       7.536   5.095  14.694  0.00  0.00    +0.000 A 
ENDBRANCH  18  19
ENDBRANCH   5  18
TORSDOF 5
ENDMDL
MODEL 3
REMARK VINA RESULT:      -7.3      0.974      1.849
REMARK  Name = 
REMARK  8 active torsions:
REMARK  status: ('A' for Active; 'I' for Inactive)
REMARK    1  A    between atoms: C_1  and  O_2
REMARK    2  A    between atoms: O_2  and  C_3
REMARK    3  A    between atoms: C_3  and  C_5
REMARK    4  A    between atoms: C_6  and  C_7
REMARK    5  A    between atoms: C_13  and  C_14
REMARK    6  A    between atoms: N_15  and  C_16
REMARK    7  A    between atoms: C_16  and  C_17
REMARK    8  A    between atoms: C_23  and  C_24
REMARK                            x       y       z     vdW  Elec       q    Type
REMARK                         _______ _______ _______ _____ _____    ______ ____
ROOT
ATOM      1  C   UNL     1       3.057   4.808  19.269  0.00  0.00    +0.000 A 
ATOM      2  C   UNL     1       3.287   6.139  18.756  0.00  0.00    +0.000 A 
ATOM      3  C   UNL     1       4.565   6.152  18.199  0.00  0.00    +0.000 A 
ATOM      4  C   UNL     1       5.382   7.252  17.593  0.00  0.00    +0.000 C 
ATOM      5  N   UNL     1       5.079   4.870  18.298  0.00  0.00    +0.000 N 
ATOM      6  C   UNL     1       4.221   4.069  19.026  0.00  0.00    +0.000 A 
ATOM      7  C   UNL     1       4.554   2.663  19.406  0.00  0.00    +0.000 C 
ENDROOT
BRANCH   2   8
ATOM      8  C   UNL     1       2.435   7.334  18.871  0.00  0.00    +0.000 A 
ATOM      9  C   UNL     1       1.935   7.733  20.120  0.00  0.00    +0.000 A 
ATOM     10  C   UNL     1       1.151   8.886  20.249  0.00  0.00    +0.000 A 
ATOM     11  C   UNL     1       0.888   9.680  19.139  0.00  0.00    +0.000 A 
ATOM     12  C   UNL     1       1.377   9.301  17.890  0.00  0.00    +0.000 A 
ATOM     13  C   UNL     1       2.118   8.123  17.755  0.00  0.00    +0.000 A 
ENDBRANCH   2   8
BRANCH   1  14
ATOM     14  C   UNL     1       1.848   4.297  19.924  0.00  0.00    +0.000 C 
ATOM     15  O   UNL     1       1.687   4.258  21.139  0.00  0.00    +0.000 OA
BRANCH  14  17
ATOM     16  C   UNL     1       0.864   2.426  18.881  0.00  0.00    +0.000 C 
ATOM     17  O   UNL     1       0.917   3.844  19.033  0.00  0.00    +0.000 OA
ENDBRANCH  14  17
ENDBRANCH   1  14
BRANCH   5  18
ATOM     18  C   UNL     1       6.345   4.429  17.698  0.00  0.00    +0.000 C 
BRANCH  18  19
ATOM     19  C   UNL     1       6.340   4.342  16.188  0.00  0.00    +0.000 A 
ATOM     20  C   UNL     1       5.328   3.714  15.447  0.00  0.00    +0.000 A 
ATOM     21  C   UNL     1       5.352   3.722  14.050  0.00  0.00    +0.000 A 
ATOM     22  C   UNL     1       6.394   4.350  13.373  0.00  0.00    +0.000 A 
ATOM     23  C   UNL     1       7.424   4.951  14.091  0.00  0.00    +0.000 A 
ATOM     24  C   UNL     1       7.401   4.943  15.487  0.00  0.00    +0.000 A 
ENDBRANCH  18  19
ENDBRANCH   5  18
TORSDOF 5
ENDMDL
MODEL 4
REMARK VINA RESULT:      -7.3      0.962      1.422
REMARK  Name = 
REMARK  8 active torsions:
REMARK  status: ('A' for Active; 'I' for Inactive)
REMARK    1  A    between atoms: C_1  and  O_2
REMARK    2  A    between atoms: O_2  and  C_3
REMARK    3  A    between atoms: C_3  and  C_5
REMARK    4  A    between atoms: C_6  and  C_7
REMARK    5  A    between atoms: C_13  and  C_14
REMARK    6  A    between atoms: N_15  and  C_16
REMARK    7  A    between atoms: C_16  and  C_17
REMARK    8  A    between atoms: C_23  and  C_24
REMARK                            x       y       z     vdW  Elec       q    Type
REMARK                         _______ _______ _______ _____ _____    ______ ____
ROOT
ATOM      1  C   UNL     1       3.074   4.738  19.185  0.00  0.00    +0.000 A 
ATOM      2  C   UNL     1       3.313   6.082  18.711  0.00  0.00    +0.000 A 
ATOM      3  C   UNL     1       4.595   6.105  18.163  0.00  0.00    +0.000 A 
ATOM      4  C   UNL     1       5.422   7.218  17.594  0.00  0.00    +0.000 C 
ATOM      5  N   UNL     1       5.102   4.818  18.229  0.00  0.00    +0.000 N 
ATOM      6  C   UNL     1       4.236   4.001  18.929  0.00  0.00    +0.000 A 
ATOM      7  C   UNL     1       4.560   2.583  19.271  0.00  0.00    +0.000 C 
ENDROOT
BRANCH   2   8
ATOM      8  C   UNL     1       2.466   7.277  18.854  0.00  0.00    +0.000 A 
ATOM      9  C   UNL     1       1.977   7.656  20.115  0.00  0.00    +0.000 A 
ATOM     10  C   UNL     1       1.198   8.808  20.270  0.00  0.00    +0.000 A 
ATOM     11  C   UNL     1       0.929   9.623  19.176  0.00  0.00    +0.000 A 
ATOM     12  C   UNL     1       1.406   9.265  17.918  0.00  0.00    +0.000 A 
ATOM     13  C   UNL     1       2.143   8.086  17.756  0.00  0.00    +0.000 A 
ENDBRANCH   2   8
BRANCH   1  14
ATOM     14  C   UNL     1       1.859   4.214  19.817  0.00  0.00    +0.000 C 
ATOM     15  O   UNL     1       0.853   3.878  19.203  0.00  0.00    +0.000 OA
BRANCH  14  17
ATOM     16  C   UNL     1       1.715   2.873  21.750  0.00  0.00    +0.000 C 
ATOM     17  O   UNL     1       1.954   4.158  21.179  0.00  0.00    +0.000 OA
ENDBRANCH  14  17
ENDBRANCH   1  14
BRANCH   5  18
ATOM     18  C   UNL     1       6.371   4.389  17.625  0.00  0.00    +0.000 C 
BRANCH  18  19
ATOM     19  C   UNL     1       6.397   4.407  16.113  0.00  0.00    +0.000 A 
ATOM     20  C   UNL     1       7.414   5.012  15.358  0.00  0.00    +0.000 A 
ATOM     21  C   UNL     1       7.410   4.940  13.963  0.00  0.00    +0.000 A 
ATOM     22  C   UNL     1       6.385   4.271  13.301  0.00  0.00    +0.000 A 
ATOM     23  C   UNL     1       5.350   3.693  14.031  0.00  0.00    +0.000 A 
ATOM     24  C   UNL     1       5.353   3.765  15.425  0.00  0.00    +0.000 A 
ENDBRANCH  18  19
ENDBRANCH   5  18
TORSDOF 5
ENDMDL
MODEL 5
REMARK VINA RESULT:      -7.2      0.874      1.477
REMARK  Name = 
REMARK  8 active torsions:
REMARK  status: ('A' for Active; 'I' for Inactive)
REMARK    1  A    between atoms: C_1  and  O_2
REMARK    2  A    between atoms: O_2  and  C_3
REMARK    3  A    between atoms: C_3  and  C_5
REMARK    4  A    between atoms: C_6  and  C_7
REMARK    5  A    between atoms: C_13  and  C_14
REMARK    6  A    between atoms: N_15  and  C_16
REMARK    7  A    between atoms: C_16  and  C_17
REMARK    8  A    between atoms: C_23  and  C_24
REMARK                            x       y       z     vdW  Elec       q    Type
REMARK                         _______ _______ _______ _____ _____    ______ ____
ROOT
ATOM      1  C   UNL     1       2.978   4.819  19.053  0.00  0.00    +0.000 A 
ATOM      2  C   UNL     1       3.285   6.173  18.648  0.00  0.00    +0.000 A 
ATOM      3  C   UNL     1       4.585   6.168  18.145  0.00  0.00    +0.000 A 
ATOM      4  C   UNL     1       5.473   7.271  17.654  0.00  0.00    +0.000 C 
ATOM      5  N   UNL     1       5.041   4.861  18.172  0.00  0.00    +0.000 N 
ATOM      6  C   UNL     1       4.120   4.049  18.805  0.00  0.00    +0.000 A 
ATOM      7  C   UNL     1       4.378   2.606  19.095  0.00  0.00    +0.000 C 
ENDROOT
BRANCH   2   8
ATOM      8  C   UNL     1       2.479   7.392  18.815  0.00  0.00    +0.000 A 
ATOM      9  C   UNL     1       2.159   8.191  17.705  0.00  0.00    +0.000 A 
ATOM     10  C   UNL     1       1.365   9.335  17.844  0.00  0.00    +0.000 A 
ATOM     11  C   UNL     1       0.844   9.678  19.087  0.00  0.00    +0.000 A 
ATOM     12  C   UNL     1       1.149   8.897  20.200  0.00  0.00    +0.000 A 
ATOM     13  C   UNL     1       1.983   7.782  20.067  0.00  0.00    +0.000 A 
ENDBRANCH   2   8
BRANCH   1  14
ATOM     14  C   UNL     1       1.722   4.317  19.620  0.00  0.00    +0.000 C 
ATOM     15  O   UNL     1       1.422   4.394  20.807  0.00  0.00    +0.000 OA
BRANCH  14  17
ATOM     16  C   UNL     1       0.712   2.329  18.858  0.00  0.00    +0.000 C 
ATOM     17  O   UNL     1       0.918   3.730  18.685  0.00  0.00    +0.000 OA
ENDBRANCH  14  17
ENDBRANCH   1  14
BRANCH   5  18
ATOM     18  C   UNL     1       6.313   4.408  17.593  0.00  0.00    +0.000 C 
BRANCH  18  19
ATOM     19  C   UNL     1       6.337   4.333  16.082  0.00  0.00    +0.000 A 
ATOM     20  C   UNL     1       5.344   3.702  15.318  0.00  0.00    +0.000 A 
ATOM     21  C   UNL     1       5.393   3.721  13.922  0.00  0.00    +0.000 A 
ATOM     22  C   UNL     1       6.442   4.364  13.269  0.00  0.00    +0.000 A 
ATOM     23  C   UNL     1       7.453   4.967  14.011  0.00  0.00    +0.000 A 
ATOM     24  C   UNL     1       7.405   4.948  15.405  0.00  0.00    +0.000 A 
ENDBRANCH  18  19
ENDBRANCH   5  18
TORSDOF 5
ENDMDL
MODEL 6
REMARK VINA RESULT:      -6.4      2.316      7.039
REMARK  Name = 
REMARK  8 active torsions:
REMARK  status: ('A' for Active; 'I' for Inactive)
REMARK    1  A    between atoms: C_1  and  O_2
REMARK    2  A    between atoms: O_2  and  C_3
REMARK    3  A    between atoms: C_3  and  C_5
REMARK    4  A    between atoms: C_6  and  C_7
REMARK    5  A    between atoms: C_13  and  C_14
REMARK    6  A    between atoms: N_15  and  C_16
REMARK    7  A    between atoms: C_16  and  C_17
REMARK    8  A    between atoms: C_23  and  C_24
REMARK                            x       y       z     vdW  Elec       q    Type
REMARK                         _______ _______ _______ _____ _____    ______ ____
ROOT
ATOM      1  C   UNL     1       1.834   6.390  20.139  0.00  0.00    +0.000 A 
ATOM      2  C   UNL     1       2.584   6.680  18.938  0.00  0.00    +0.000 A 
ATOM      3  C   UNL     1       2.353   8.018  18.621  0.00  0.00    +0.000 A 
ATOM      4  C   UNL     1       2.787   8.862  17.460  0.00  0.00    +0.000 C 
ATOM      5  N   UNL     1       1.555   8.554  19.617  0.00  0.00    +0.000 N 
ATOM      6  C   UNL     1       1.153   7.562  20.490  0.00  0.00    +0.000 A 
ATOM      7  C   UNL     1       0.187   7.806  21.604  0.00  0.00    +0.000 C 
ENDROOT
BRANCH   2   8
ATOM      8  C   UNL     1       3.362   5.763  18.090  0.00  0.00    +0.000 A 
ATOM      9  C   UNL     1       4.704   6.040  17.787  0.00  0.00    +0.000 A 
ATOM     10  C   UNL     1       5.465   5.160  17.009  0.00  0.00    +0.000 A 
ATOM     11  C   UNL     1       4.910   3.969  16.556  0.00  0.00    +0.000 A 
ATOM     12  C   UNL     1       3.580   3.674  16.848  0.00  0.00    +0.000 A 
ATOM     13  C   UNL     1       2.806   4.579  17.583  0.00  0.00    +0.000 A 
ENDBRANCH   2   8
BRANCH   1  14
ATOM     14  C   UNL     1       1.775   5.122  20.874  0.00  0.00    +0.000 C 
ATOM     15  O   UNL     1       2.606   4.767  21.703  0.00  0.00    +0.000 OA
BRANCH  14  17
ATOM     16  C   UNL     1       0.994   2.989  20.244  0.00  0.00    +0.000 C 
ATOM     17  O   UNL     1       0.700   4.357  20.521  0.00  0.00    +0.000 OA
ENDBRANCH  14  17
ENDBRANCH   1  14
BRANCH   5  18
ATOM     18  C   UNL     1       1.203   9.976  19.731  0.00  0.00    +0.000 C 
BRANCH  18  19
ATOM     19  C   UNL     1      -0.120  10.359  19.107  0.00  0.00    +0.000 A 
ATOM     20  C   UNL     1      -0.627   9.777  17.935  0.00  0.00    +0.000 A 
ATOM     21  C   UNL     1      -1.885  10.133  17.444  0.00  0.00    +0.000 A 
ATOM     22  C   UNL     1      -2.652  11.083  18.111  0.00  0.00    +0.000 A 
ATOM     23  C   UNL     1      -2.152  11.696  19.257  0.00  0.00    +0.000 A 
ATOM     24  C   UNL     1      -0.895  11.341  19.748  0.00  0.00    +0.000 A 
ENDBRANCH  18  19
ENDBRANCH   5  18
TORSDOF 5
ENDMDL
MODEL 7
REMARK VINA RESULT:      -6.4      5.665     10.506
REMARK  Name = 
REMARK  8 active torsions:
REMARK  status: ('A' for Active; 'I' for Inactive)
REMARK    1  A    between atoms: C_1  and  O_2
REMARK    2  A    between atoms: O_2  and  C_3
REMARK    3  A    between atoms: C_3  and  C_5
REMARK    4  A    between atoms: C_6  and  C_7
REMARK    5  A    between atoms: C_13  and  C_14
REMARK    6  A    between atoms: N_15  and  C_16
REMARK    7  A    between atoms: C_16  and  C_17
REMARK    8  A    between atoms: C_23  and  C_24
REMARK                            x       y       z     vdW  Elec       q    Type
REMARK                         _______ _______ _______ _____ _____    ______ ____
ROOT
ATOM      1  C   UNL     1      -0.706  11.632  20.444  0.00  0.00    +0.000 A 
ATOM      2  C   UNL     1      -0.565  10.646  19.396  0.00  0.00    +0.000 A 
ATOM      3  C   UNL     1      -1.716  10.710  18.612  0.00  0.00    +0.000 A 
ATOM      4  C   UNL     1      -2.180   9.892  17.446  0.00  0.00    +0.000 C 
ATOM      5  N   UNL     1      -2.504  11.736  19.107  0.00  0.00    +0.000 N 
ATOM      6  C   UNL     1      -1.954  12.240  20.269  0.00  0.00    +0.000 A 
ATOM      7  C   UNL     1      -2.635  13.277  21.103  0.00  0.00    +0.000 C 
ENDROOT
BRANCH   2   8
ATOM      8  C   UNL     1       0.499   9.649  19.203  0.00  0.00    +0.000 A 
ATOM      9  C   UNL     1       0.851   8.773  20.242  0.00  0.00    +0.000 A 
ATOM     10  C   UNL     1       1.838   7.797  20.061  0.00  0.00    +0.000 A 
ATOM     11  C   UNL     1       2.461   7.654  18.827  0.00  0.00    +0.000 A 
ATOM     12  C   UNL     1       2.126   8.513  17.783  0.00  0.00    +0.000 A 
ATOM     13  C   UNL     1       1.174   9.519  17.981  0.00  0.00    +0.000 A 
ENDBRANCH   2   8
BRANCH   1  14
ATOM     14  C   UNL     1       0.256  11.958  21.502  0.00  0.00    +0.000 C 
ATOM     15  O   UNL     1       1.405  12.334  21.297  0.00  0.00    +0.000 OA
BRANCH  14  17
ATOM     16  C   UNL     1      -0.661  10.445  23.059  0.00  0.00    +0.000 C 
ATOM     17  O   UNL     1      -0.257  11.779  22.755  0.00  0.00    +0.000 OA
ENDBRANCH  14  17
ENDBRANCH   1  14
BRANCH   5  18
ATOM     18  C   UNL     1      -3.736  12.223  18.471  0.00  0.00    +0.000 C 
BRANCH  18  19
ATOM     19  C   UNL     1      -5.019  11.705  19.084  0.00  0.00    +0.000 A 
ATOM     20  C   UNL     1      -5.632  12.276  20.209  0.00  0.00    +0.000 A 
ATOM     21  C   UNL     1      -6.849  11.786  20.688  0.00  0.00    +0.000 A 
ATOM     22  C   UNL     1      -7.467  10.712  20.055  0.00  0.00    +0.000 A 
ATOM     23  C   UNL     1      -6.858  10.111  18.957  0.00  0.00    +0.000 A 
ATOM     24  C   UNL     1      -5.642  10.599  18.478  0.00  0.00    +0.000 A 
ENDBRANCH  18  19
ENDBRANCH   5  18
TORSDOF 5
ENDMDL
MODEL 8
REMARK VINA RESULT:      -6.3      1.474      3.772
REMARK  Name = 
REMARK  8 active torsions:
REMARK  status: ('A' for Active; 'I' for Inactive)
REMARK    1  A    between atoms: C_1  and  O_2
REMARK    2  A    between atoms: O_2  and  C_3
REMARK    3  A    between atoms: C_3  and  C_5
REMARK    4  A    between atoms: C_6  and  C_7
REMARK    5  A    between atoms: C_13  and  C_14
REMARK    6  A    between atoms: N_15  and  C_16
REMARK    7  A    between atoms: C_16  and  C_17
REMARK    8  A    between atoms: C_23  and  C_24
REMARK                            x       y       z     vdW  Elec       q    Type
REMARK                         _______ _______ _______ _____ _____    ______ ____
ROOT
ATOM      1  C   UNL     1       3.780   6.176  17.950  0.00  0.00    +0.000 A 
ATOM      2  C   UNL     1       3.594   4.769  18.225  0.00  0.00    +0.000 A 
ATOM      3  C   UNL     1       4.647   4.087  17.617  0.00  0.00    +0.000 A 
ATOM      4  C   UNL     1       4.951   2.626  17.486  0.00  0.00    +0.000 C 
ATOM      5  N   UNL     1       5.486   5.031  17.050  0.00  0.00    +0.000 N 
ATOM      6  C   UNL     1       4.929   6.290  17.159  0.00  0.00    +0.000 A 
ATOM      7  C   UNL     1       5.541   7.503  16.537  0.00  0.00    +0.000 C 
ENDROOT
BRANCH   2   8
ATOM      8  C   UNL     1       2.472   4.100  18.903  0.00  0.00    +0.000 A 
ATOM      9  C   UNL     1       1.488   3.431  18.158  0.00  0.00    +0.000 A 
ATOM     10  C   UNL     1       0.434   2.762  18.791  0.00  0.00    +0.000 A 
ATOM     11  C   UNL     1       0.368   2.717  20.179  0.00  0.00    +0.000 A 
ATOM     12  C   UNL     1       1.335   3.374  20.936  0.00  0.00    +0.000 A 
ATOM     13  C   UNL     1       2.360   4.083  20.301  0.00  0.00    +0.000 A 
ENDBRANCH   2   8
BRANCH   1  14
ATOM     14  C   UNL     1       2.943   7.294  18.398  0.00  0.00    +0.000 C 
ATOM     15  O   UNL     1       2.553   7.444  19.551  0.00  0.00    +0.000 OA
BRANCH  14  17
ATOM     16  C   UNL     1       1.925   9.330  17.788  0.00  0.00    +0.000 C 
ATOM     17  O   UNL     1       2.621   8.152  17.385  0.00  0.00    +0.000 OA
ENDBRANCH  14  17
ENDBRANCH   1  14
BRANCH   5  18
ATOM     18  C   UNL     1       6.788   4.731  16.438  0.00  0.00    +0.000 C 
BRANCH  18  19
ATOM     19  C   UNL     1       6.770   4.599  14.931  0.00  0.00    +0.000 A 
ATOM     20  C   UNL     1       7.666   5.263  14.079  0.00  0.00    +0.000 A 
ATOM     21  C   UNL     1       7.635   5.050  12.699  0.00  0.00    +0.000 A 
ATOM     22  C   UNL     1       6.701   4.178  12.148  0.00  0.00    +0.000 A 
ATOM     23  C   UNL     1       5.782   3.535  12.973  0.00  0.00    +0.000 A 
ATOM     24  C   UNL     1       5.812   3.748  14.352  0.00  0.00    +0.000 A 
ENDBRANCH  18  19
ENDBRANCH   5  18
TORSDOF 5
ENDMDL
MODEL 9
REMARK VINA RESULT:      -6.2      1.474      3.703
REMARK  Name = 
REMARK  8 active torsions:
REMARK  status: ('A' for Active; 'I' for Inactive)
REMARK    1  A    between atoms: C_1  and  O_2
REMARK    2  A    between atoms: O_2  and  C_3
REMARK    3  A    between atoms: C_3  and  C_5
REMARK    4  A    between atoms: C_6  and  C_7
REMARK    5  A    between atoms: C_13  and  C_14
REMARK    6  A    between atoms: N_15  and  C_16
REMARK    7  A    between atoms: C_16  and  C_17
REMARK    8  A    between atoms: C_23  and  C_24
REMARK                            x       y       z     vdW  Elec       q    Type
REMARK                         _______ _______ _______ _____ _____    ______ ____
ROOT
ATOM      1  C   UNL     1       3.705   6.291  17.749  0.00  0.00    +0.000 A 
ATOM      2  C   UNL     1       3.585   4.915  18.175  0.00  0.00    +0.000 A 
ATOM      3  C   UNL     1       4.660   4.218  17.624  0.00  0.00    +0.000 A 
ATOM      4  C   UNL     1       5.027   2.765  17.643  0.00  0.00    +0.000 C 
ATOM      5  N   UNL     1       5.449   5.131  16.945  0.00  0.00    +0.000 N 
ATOM      6  C   UNL     1       4.837   6.370  16.930  0.00  0.00    +0.000 A 
ATOM      7  C   UNL     1       5.386   7.534  16.172  0.00  0.00    +0.000 C 
ENDROOT
BRANCH   2   8
ATOM      8  C   UNL     1       2.503   4.275  18.939  0.00  0.00    +0.000 A 
ATOM      9  C   UNL     1       1.462   3.606  18.276  0.00  0.00    +0.000 A 
ATOM     10  C   UNL     1       0.445   2.964  18.990  0.00  0.00    +0.000 A 
ATOM     11  C   UNL     1       0.473   2.945  20.381  0.00  0.00    +0.000 A 
ATOM     12  C   UNL     1       1.498   3.601  21.058  0.00  0.00    +0.000 A 
ATOM     13  C   UNL     1       2.487   4.284  20.342  0.00  0.00    +0.000 A 
ENDBRANCH   2   8
BRANCH   1  14
ATOM     14  C   UNL     1       2.825   7.414  18.091  0.00  0.00    +0.000 C 
ATOM     15  O   UNL     1       2.401   8.229  17.280  0.00  0.00    +0.000 OA
BRANCH  14  17
ATOM     16  C   UNL     1       1.628   8.503  19.804  0.00  0.00    +0.000 C 
ATOM     17  O   UNL     1       2.537   7.472  19.425  0.00  0.00    +0.000 OA
ENDBRANCH  14  17
ENDBRANCH   1  14
BRANCH   5  18
ATOM     18  C   UNL     1       6.755   4.824  16.345  0.00  0.00    +0.000 C 
BRANCH  18  19
ATOM     19  C   UNL     1       6.725   4.548  14.858  0.00  0.00    +0.000 A 
ATOM     20  C   UNL     1       5.795   3.699  14.241  0.00  0.00    +0.000 A 
ATOM     21  C   UNL     1       5.784   3.536  12.854  0.00  0.00    +0.000 A 
ATOM     22  C   UNL     1       6.709   4.211  12.064  0.00  0.00    +0.000 A 
ATOM     23  C   UNL     1       7.661   5.033  12.660  0.00  0.00    +0.000 A 
ATOM     24  C   UNL     1       7.673   5.197  14.046  0.00  0.00    +0.000 A 
ENDBRANCH  18  19
ENDBRANCH   5  18
TORSDOF 5
ENDMDL
