MODEL 1
REMARK VINA RESULT:      -7.4      0.000      0.000
REMARK  Name = 
REMARK  8 active torsions:
REMARK  status: ('A' for Active; 'I' for Inactive)
REMARK    1  A    between atoms: C_1  and  O_2
REMARK    2  A    between atoms: O_2  and  C_3
REMARK    3  A    between atoms: C_5  and  C_6
REMARK    4  A    between atoms: N_8  and  C_9
REMARK    5  A    between atoms: C_16  and  O_17
REMARK    6  A    between atoms: O_17  and  C_18
REMARK    7  A    between atoms: C_19  and  O_20
REMARK    8  A    between atoms: O_20  and  C_21
REMARK                            x       y       z     vdW  Elec       q    Type
REMARK                         _______ _______ _______ _____ _____    ______ ____
ROOT
ATOM      1  C   UNL     1       6.808   5.624  16.065  0.00  0.00    +0.000 A 
ATOM      2  C   UNL     1       5.672   5.208  16.767  0.00  0.00    +0.000 A 
ATOM      3  C   UNL     1       4.888   4.157  16.297  0.00  0.00    +0.000 A 
ATOM      4  C   UNL     1       5.186   3.576  15.070  0.00  0.00    +0.000 A 
ATOM      5  C   UNL     1       6.285   4.021  14.314  0.00  0.00    +0.000 A 
ATOM      6  C   UNL     1       7.122   5.048  14.811  0.00  0.00    +0.000 A 
ENDROOT
BRANCH   3   7
ATOM      7  C   UNL     1       3.776   3.677  17.158  0.00  0.00    +0.000 C 
ATOM      8  O   UNL     1       2.711   3.389  16.623  0.00  0.00    +0.000 OA
ATOM      9  N   UNL     1       4.038   3.712  18.517  0.00  0.00    +0.000 N 
ATOM     10  H   UNL     1       4.926   4.105  18.805  0.00  0.00    +0.000 HD
BRANCH   9  11
ATOM     11  C   UNL     1       3.117   3.437  19.554  0.00  0.00    +0.000 A 
ATOM     12  C   UNL     1       1.790   3.856  19.555  0.00  0.00    +0.000 A 
ATOM     13  C   UNL     1       0.972   3.571  20.650  0.00  0.00    +0.000 A 
ATOM     14  C   UNL     1       1.511   2.867  21.712  0.00  0.00    +0.000 A 
ATOM     15  N   UNL     1       2.785   2.425  21.746  0.00  0.00    +0.000 NA
ATOM     16  C   UNL     1       3.551   2.717  20.667  0.00  0.00    +0.000 A 
ENDBRANCH   9  11
ENDBRANCH   3   7
BRANCH   1  18
ATOM     17  C   UNL     1       7.583   6.757  17.996  0.00  0.00    +0.000 C 
ATOM     18  O   UNL     1       7.605   6.618  16.575  0.00  0.00    +0.000 OA
ENDBRANCH   1  18
BRANCH   5  19
ATOM     19  O   UNL     1       6.387   3.320  13.137  0.00  0.00    +0.000 OA
ATOM     20  C   UNL     1       5.303   3.325  12.221  0.00  0.00    +0.000 C 
ENDBRANCH   5  19
BRANCH   6  21
ATOM     21  O   UNL     1       8.171   5.413  14.010  0.00  0.00    +0.000 OA
ATOM     22  C   UNL     1       7.960   5.732  12.644  0.00  0.00    +0.000 C 
ENDBRANCH   6  21
TORSDOF 5
ENDMDL
MODEL 2
REMARK VINA RESULT:      -7.4      0.162      2.866
REMARK  Name = 
REMARK  8 active torsions:
REMARK  status: ('A' for Active; 'I' for Inactive)
REMARK    1  A    between atoms: C_1  and  O_2
REMARK    2  A    between atoms: O_2  and  C_3
REMARK    3  A    between atoms: C_5  and  C_6
REMARK    4  A    between atoms: N_8  and  C_9
REMARK    5  A    between atoms: C_16  and  O_17
REMARK    6  A    between atoms: O_17  and  C_18
REMARK    7  A    between atoms: C_19  and  O_20
REMARK    8  A    between atoms: O_20  and  C_21
REMARK                            x       y       z     vdW  Elec       q    Type
REMARK                         _______ _______ _______ _____ _____    ______ ____
ROOT
ATOM      1  C   UNL     1       6.238   3.964  14.286  0.00  0.00    +0.000 A 
ATOM      2  C   UNL     1       5.262   3.493  15.169  0.00  0.00    +0.000 A 
ATOM      3  C   UNL     1       5.080   4.088  16.416  0.00  0.00    +0.000 A 
ATOM      4  C   UNL     1       5.940   5.102  16.823  0.00  0.00    +0.000 A 
ATOM      5  C   UNL     1       6.972   5.547  15.978  0.00  0.00    +0.000 A 
ATOM      6  C   UNL     1       7.126   4.991  14.687  0.00  0.00    +0.000 A 
ENDROOT
BRANCH   3   7
ATOM      7  C   UNL     1       3.938   3.628  17.249  0.00  0.00    +0.000 C 
ATOM      8  O   UNL     1       2.908   3.283  16.680  0.00  0.00    +0.000 OA
ATOM      9  N   UNL     1       4.132   3.742  18.614  0.00  0.00    +0.000 N 
ATOM     10  H   UNL     1       4.996   4.173  18.923  0.00  0.00    +0.000 HD
BRANCH   9  11
ATOM     11  C   UNL     1       3.169   3.502  19.620  0.00  0.00    +0.000 A 
ATOM     12  C   UNL     1       1.882   4.032  19.616  0.00  0.00    +0.000 A 
ATOM     13  C   UNL     1       1.018   3.769  20.680  0.00  0.00    +0.000 A 
ATOM     14  C   UNL     1       1.471   2.974  21.719  0.00  0.00    +0.000 A 
ATOM     15  N   UNL     1       2.701   2.423  21.755  0.00  0.00    +0.000 NA
ATOM     16  C   UNL     1       3.514   2.697  20.705  0.00  0.00    +0.000 A 
ENDBRANCH   9  11
ENDBRANCH   3   7
BRANCH   1  18
ATOM     17  C   UNL     1       5.156   3.343  12.271  0.00  0.00    +0.000 C 
ATOM     18  O   UNL     1       6.360   3.408  13.037  0.00  0.00    +0.000 OA
ENDBRANCH   1  18
BRANCH   5  19
ATOM     19  O   UNL     1       7.704   6.541  16.580  0.00  0.00    +0.000 OA
ATOM     20  C   UNL     1       7.549   6.783  17.970  0.00  0.00    +0.000 C 
ENDBRANCH   5  19
BRANCH   6  21
ATOM     21  O   UNL     1       8.153   5.491  13.931  0.00  0.00    +0.000 OA
ATOM     22  C   UNL     1       7.996   5.677  12.534  0.00  0.00    +0.000 C 
ENDBRANCH   6  21
TORSDOF 5
ENDMDL
MODEL 3
REMARK VINA RESULT:      -7.0      4.680      6.495
REMARK  Name = 
REMARK  8 active torsions:
REMARK  status: ('A' for Active; 'I' for Inactive)
REMARK    1  A    between atoms: C_1  and  O_2
REMARK    2  A    between atoms: O_2  and  C_3
REMARK    3  A    between atoms: C_5  and  C_6
REMARK    4  A    between atoms: N_8  and  C_9
REMARK    5  A    between atoms: C_16  and  O_17
REMARK    6  A    between atoms: O_17  and  C_18
REMARK    7  A    between atoms: C_19  and  O_20
REMARK    8  A    between atoms: O_20  and  C_21
REMARK                            x       y       z     vdW  Elec       q    Type
REMARK                         _______ _______ _______ _____ _____    ______ ____
ROOT
ATOM      1  C   UNL     1       2.845   4.269  20.225  0.00  0.00    +0.000 A 
ATOM      2  C   UNL     1       2.323   5.549  20.433  0.00  0.00    +0.000 A 
ATOM      3  C   UNL     1       2.469   6.545  19.470  0.00  0.00    +0.000 A 
ATOM      4  C   UNL     1       3.222   6.289  18.329  0.00  0.00    +0.000 A 
ATOM      5  C   UNL     1       3.812   5.029  18.129  0.00  0.00    +0.000 A 
ATOM      6  C   UNL     1       3.620   3.994  19.073  0.00  0.00    +0.000 A 
ENDROOT
BRANCH   3   7
ATOM      7  C   UNL     1       1.775   7.840  19.694  0.00  0.00    +0.000 C 
ATOM      8  O   UNL     1       1.969   8.748  18.894  0.00  0.00    +0.000 OA
ATOM      9  N   UNL     1       1.049   7.913  20.870  0.00  0.00    +0.000 N 
ATOM     10  H   UNL     1       1.098   7.115  21.492  0.00  0.00    +0.000 HD
BRANCH   9  11
ATOM     11  C   UNL     1       0.407   9.061  21.387  0.00  0.00    +0.000 A 
ATOM     12  C   UNL     1      -0.197  10.041  20.605  0.00  0.00    +0.000 A 
ATOM     13  C   UNL     1      -0.768  11.161  21.211  0.00  0.00    +0.000 A 
ATOM     14  C   UNL     1      -0.720  11.263  22.590  0.00  0.00    +0.000 A 
ATOM     15  N   UNL     1      -0.163  10.330  23.389  0.00  0.00    +0.000 NA
ATOM     16  C   UNL     1       0.379   9.254  22.768  0.00  0.00    +0.000 A 
ENDBRANCH   9  11
ENDBRANCH   3   7
BRANCH   1  18
ATOM     17  C   UNL     1       1.285   2.840  21.292  0.00  0.00    +0.000 C 
ATOM     18  O   UNL     1       2.637   3.282  21.156  0.00  0.00    +0.000 OA
ENDBRANCH   1  18
BRANCH   5  19
ATOM     19  O   UNL     1       4.516   5.000  16.949  0.00  0.00    +0.000 OA
ATOM     20  C   UNL     1       5.011   6.210  16.397  0.00  0.00    +0.000 C 
ENDBRANCH   5  19
BRANCH   6  21
ATOM     21  O   UNL     1       4.227   2.799  18.792  0.00  0.00    +0.000 OA
ATOM     22  C   UNL     1       3.493   1.739  18.199  0.00  0.00    +0.000 C 
ENDBRANCH   6  21
TORSDOF 5
ENDMDL
MODEL 4
REMARK VINA RESULT:      -7.0      0.720      1.075
REMARK  Name = 
REMARK  8 active torsions:
REMARK  status: ('A' for Active; 'I' for Inactive)
REMARK    1  A    between atoms: C_1  and  O_2
REMARK    2  A    between atoms: O_2  and  C_3
REMARK    3  A    between atoms: C_5  and  C_6
REMARK    4  A    between atoms: N_8  and  C_9
REMARK    5  A    between atoms: C_16  and  O_17
REMARK    6  A    between atoms: O_17  and  C_18
REMARK    7  A    between atoms: C_19  and  O_20
REMARK    8  A    between atoms: O_20  and  C_21
REMARK                            x       y       z     vdW  Elec       q    Type
REMARK                         _______ _______ _______ _____ _____    ______ ____
ROOT
ATOM      1  C   UNL     1       6.941   5.666  15.970  0.00  0.00    +0.000 A 
ATOM      2  C   UNL     1       5.830   5.250  16.710  0.00  0.00    +0.000 A 
ATOM      3  C   UNL     1       5.017   4.213  16.255  0.00  0.00    +0.000 A 
ATOM      4  C   UNL     1       5.261   3.649  15.008  0.00  0.00    +0.000 A 
ATOM      5  C   UNL     1       6.332   4.097  14.216  0.00  0.00    +0.000 A 
ATOM      6  C   UNL     1       7.199   5.108  14.695  0.00  0.00    +0.000 A 
ENDROOT
BRANCH   3   7
ATOM      7  C   UNL     1       3.936   3.730  17.153  0.00  0.00    +0.000 C 
ATOM      8  O   UNL     1       2.912   3.289  16.642  0.00  0.00    +0.000 OA
ATOM      9  N   UNL     1       4.167   3.935  18.502  0.00  0.00    +0.000 N 
ATOM     10  H   UNL     1       5.010   4.436  18.755  0.00  0.00    +0.000 HD
BRANCH   9  11
ATOM     11  C   UNL     1       3.254   3.691  19.554  0.00  0.00    +0.000 A 
ATOM     12  C   UNL     1       3.391   2.670  20.490  0.00  0.00    +0.000 A 
ATOM     13  C   UNL     1       2.410   2.486  21.465  0.00  0.00    +0.000 A 
ATOM     14  C   UNL     1       1.319   3.337  21.476  0.00  0.00    +0.000 A 
ATOM     15  N   UNL     1       1.155   4.351  20.602  0.00  0.00    +0.000 NA
ATOM     16  C   UNL     1       2.127   4.504  19.669  0.00  0.00    +0.000 A 
ENDBRANCH   9  11
ENDBRANCH   3   7
BRANCH   1  18
ATOM     17  C   UNL     1       7.224   7.432  17.524  0.00  0.00    +0.000 C 
ATOM     18  O   UNL     1       7.767   6.645  16.463  0.00  0.00    +0.000 OA
ENDBRANCH   1  18
BRANCH   5  19
ATOM     19  O   UNL     1       6.380   3.414  13.025  0.00  0.00    +0.000 OA
ATOM     20  C   UNL     1       5.228   3.363  12.199  0.00  0.00    +0.000 C 
ENDBRANCH   5  19
BRANCH   6  21
ATOM     21  O   UNL     1       8.219   5.476  13.859  0.00  0.00    +0.000 OA
ATOM     22  C   UNL     1       7.963   5.767  12.495  0.00  0.00    +0.000 C 
ENDBRANCH   6  21
TORSDOF 5
ENDMDL
MODEL 5
REMARK VINA RESULT:      -7.0      4.720      5.714
REMARK  Name = 
REMARK  8 active torsions:
REMARK  status: ('A' for Active; 'I' for Inactive)
REMARK    1  A    between atoms: C_1  and  O_2
REMARK    2  A    between atoms: O_2  and  C_3
REMARK    3  A    between atoms: C_5  and  C_6
REMARK    4  A    between atoms: N_8  and  C_9
REMARK    5  A    between atoms: C_16  and  O_17
REMARK    6  A    between atoms: O_17  and  C_18
REMARK    7  A    between atoms: C_19  and  O_20
REMARK    8  A    between atoms: O_20  and  C_21
REMARK                            x       y       z     vdW  Elec       q    Type
REMARK                         _______ _______ _______ _____ _____    ______ ____
ROOT
ATOM      1  C   UNL     1       5.244   6.353  16.945  0.00  0.00    +0.000 A 
ATOM      2  C   UNL     1       4.330   7.274  17.468  0.00  0.00    +0.000 A 
ATOM      3  C   UNL     1       3.125   6.847  18.023  0.00  0.00    +0.000 A 
ATOM      4  C   UNL     1       2.788   5.499  17.973  0.00  0.00    +0.000 A 
ATOM      5  C   UNL     1       3.662   4.563  17.392  0.00  0.00    +0.000 A 
ATOM      6  C   UNL     1       4.913   4.979  16.880  0.00  0.00    +0.000 A 
ENDROOT
BRANCH   3   7
ATOM      7  C   UNL     1       2.262   7.861  18.682  0.00  0.00    +0.000 C 
ATOM      8  O   UNL     1       1.994   7.711  19.869  0.00  0.00    +0.000 OA
ATOM      9  N   UNL     1       1.757   8.832  17.835  0.00  0.00    +0.000 N 
ATOM     10  H   UNL     1       1.969   8.739  16.849  0.00  0.00    +0.000 HD
BRANCH   9  11
ATOM     11  C   UNL     1       0.815   9.830  18.173  0.00  0.00    +0.000 A 
ATOM     12  C   UNL     1      -0.540   9.767  17.863  0.00  0.00    +0.000 A 
ATOM     13  C   UNL     1      -1.382  10.827  18.204  0.00  0.00    +0.000 A 
ATOM     14  C   UNL     1      -0.837  11.922  18.852  0.00  0.00    +0.000 A 
ATOM     15  N   UNL     1       0.465  12.018  19.189  0.00  0.00    +0.000 NA
ATOM     16  C   UNL     1       1.254  10.971  18.847  0.00  0.00    +0.000 A 
ENDBRANCH   9  11
ENDBRANCH   3   7
BRANCH   1  18
ATOM     17  C   UNL     1       7.422   7.138  17.448  0.00  0.00    +0.000 C 
ATOM     18  O   UNL     1       6.453   6.786  16.460  0.00  0.00    +0.000 OA
ENDBRANCH   1  18
BRANCH   5  19
ATOM     19  O   UNL     1       3.127   3.298  17.439  0.00  0.00    +0.000 OA
ATOM     20  C   UNL     1       1.838   3.102  17.999  0.00  0.00    +0.000 C 
ENDBRANCH   5  19
BRANCH   6  21
ATOM     21  O   UNL     1       5.701   3.998  16.339  0.00  0.00    +0.000 OA
ATOM     22  C   UNL     1       5.903   3.926  14.937  0.00  0.00    +0.000 C 
ENDBRANCH   6  21
TORSDOF 5
ENDMDL
MODEL 6
REMARK VINA RESULT:      -6.9      2.731      7.417
REMARK  Name = 
REMARK  8 active torsions:
REMARK  status: ('A' for Active; 'I' for Inactive)
REMARK    1  A    between atoms: C_1  and  O_2
REMARK    2  A    between atoms: O_2  and  C_3
REMARK    3  A    between atoms: C_5  and  C_6
REMARK    4  A    between atoms: N_8  and  C_9
REMARK    5  A    between atoms: C_16  and  O_17
REMARK    6  A    between atoms: O_17  and  C_18
REMARK    7  A    between atoms: C_19  and  O_20
REMARK    8  A    between atoms: O_20  and  C_21
REMARK                            x       y       z     vdW  Elec       q    Type
REMARK                         _______ _______ _______ _____ _____    ______ ____
ROOT
ATOM      1  C   UNL     1       2.790   3.292  18.706  0.00  0.00    +0.000 A 
ATOM      2  C   UNL     1       3.539   3.729  17.609  0.00  0.00    +0.000 A 
ATOM      3  C   UNL     1       3.854   5.078  17.451  0.00  0.00    +0.000 A 
ATOM      4  C   UNL     1       3.341   6.009  18.347  0.00  0.00    +0.000 A 
ATOM      5  C   UNL     1       2.531   5.601  19.420  0.00  0.00    +0.000 A 
ATOM      6  C   UNL     1       2.254   4.229  19.623  0.00  0.00    +0.000 A 
ENDROOT
BRANCH   3   7
ATOM      7  C   UNL     1       4.765   5.456  16.340  0.00  0.00    +0.000 C 
ATOM      8  O   UNL     1       4.914   6.647  16.093  0.00  0.00    +0.000 OA
ATOM      9  N   UNL     1       5.275   4.390  15.619  0.00  0.00    +0.000 N 
ATOM     10  H   UNL     1       4.946   3.465  15.870  0.00  0.00    +0.000 HD
BRANCH   9  11
ATOM     11  C   UNL     1       6.053   4.471  14.442  0.00  0.00    +0.000 A 
ATOM     12  C   UNL     1       5.791   3.756  13.278  0.00  0.00    +0.000 A 
ATOM     13  C   UNL     1       6.648   3.873  12.182  0.00  0.00    +0.000 A 
ATOM     14  C   UNL     1       7.744   4.712  12.286  0.00  0.00    +0.000 A 
ATOM     15  N   UNL     1       8.026   5.438  13.387  0.00  0.00    +0.000 NA
ATOM     16  C   UNL     1       7.173   5.303  14.431  0.00  0.00    +0.000 A 
ENDBRANCH   9  11
ENDBRANCH   3   7
BRANCH   1  18
ATOM     17  C   UNL     1       3.667   1.091  18.697  0.00  0.00    +0.000 C 
ATOM     18  O   UNL     1       2.543   1.953  18.880  0.00  0.00    +0.000 OA
ENDBRANCH   1  18
BRANCH   5  19
ATOM     19  O   UNL     1       2.126   6.680  20.167  0.00  0.00    +0.000 OA
ATOM     20  C   UNL     1       1.964   7.945  19.543  0.00  0.00    +0.000 C 
ENDBRANCH   5  19
BRANCH   6  21
ATOM     21  O   UNL     1       1.462   3.923  20.697  0.00  0.00    +0.000 OA
ATOM     22  C   UNL     1       2.014   3.299  21.845  0.00  0.00    +0.000 C 
ENDBRANCH   6  21
TORSDOF 5
ENDMDL
MODEL 7
REMARK VINA RESULT:      -6.9      4.688      5.987
REMARK  Name = 
REMARK  8 active torsions:
REMARK  status: ('A' for Active; 'I' for Inactive)
REMARK    1  A    between atoms: C_1  and  O_2
REMARK    2  A    between atoms: O_2  and  C_3
REMARK    3  A    between atoms: C_5  and  C_6
REMARK    4  A    between atoms: N_8  and  C_9
REMARK    5  A    between atoms: C_16  and  O_17
REMARK    6  A    between atoms: O_17  and  C_18
REMARK    7  A    between atoms: C_19  and  O_20
REMARK    8  A    between atoms: O_20  and  C_21
REMARK                            x       y       z     vdW  Elec       q    Type
REMARK                         _______ _______ _______ _____ _____    ______ ____
ROOT
ATOM      1  C   UNL     1       3.477   4.545  17.301  0.00  0.00    +0.000 A 
ATOM      2  C   UNL     1       2.739   5.506  17.998  0.00  0.00    +0.000 A 
ATOM      3  C   UNL     1       3.179   6.825  18.077  0.00  0.00    +0.000 A 
ATOM      4  C   UNL     1       4.412   7.169  17.535  0.00  0.00    +0.000 A 
ATOM      5  C   UNL     1       5.204   6.205  16.887  0.00  0.00    +0.000 A 
ATOM      6  C   UNL     1       4.738   4.876  16.749  0.00  0.00    +0.000 A 
ENDROOT
BRANCH   3   7
ATOM      7  C   UNL     1       2.281   7.823  18.714  0.00  0.00    +0.000 C 
ATOM      8  O   UNL     1       1.954   7.645  19.882  0.00  0.00    +0.000 OA
ATOM      9  N   UNL     1       1.816   8.812  17.865  0.00  0.00    +0.000 N 
ATOM     10  H   UNL     1       2.077   8.741  16.889  0.00  0.00    +0.000 HD
BRANCH   9  11
ATOM     11  C   UNL     1       0.855   9.800  18.178  0.00  0.00    +0.000 A 
ATOM     12  C   UNL     1      -0.490   9.723  17.830  0.00  0.00    +0.000 A 
ATOM     13  C   UNL     1      -1.352  10.775  18.148  0.00  0.00    +0.000 A 
ATOM     14  C   UNL     1      -0.836  11.874  18.812  0.00  0.00    +0.000 A 
ATOM     15  N   UNL     1       0.455  11.983  19.186  0.00  0.00    +0.000 NA
ATOM     16  C   UNL     1       1.264  10.944  18.864  0.00  0.00    +0.000 A 
ENDBRANCH   9  11
ENDBRANCH   3   7
BRANCH   1  18
ATOM     17  C   UNL     1       3.333   2.377  18.246  0.00  0.00    +0.000 C 
ATOM     18  O   UNL     1       2.997   3.264  17.179  0.00  0.00    +0.000 OA
ENDBRANCH   1  18
BRANCH   5  19
ATOM     19  O   UNL     1       6.380   6.755  16.440  0.00  0.00    +0.000 OA
ATOM     20  C   UNL     1       7.390   7.107  17.374  0.00  0.00    +0.000 C 
ENDBRANCH   5  19
BRANCH   6  21
ATOM     21  O   UNL     1       5.573   4.007  16.098  0.00  0.00    +0.000 OA
ATOM     22  C   UNL     1       5.730   4.076  14.691  0.00  0.00    +0.000 C 
ENDBRANCH   6  21
TORSDOF 5
ENDMDL
MODEL 8
REMARK VINA RESULT:      -6.9      2.853      7.065
REMARK  Name = 
REMARK  8 active torsions:
REMARK  status: ('A' for Active; 'I' for Inactive)
REMARK    1  A    between atoms: C_1  and  O_2
REMARK    2  A    between atoms: O_2  and  C_3
REMARK    3  A    between atoms: C_5  and  C_6
REMARK    4  A    between atoms: N_8  and  C_9
REMARK    5  A    between atoms: C_16  and  O_17
REMARK    6  A    between atoms: O_17  and  C_18
REMARK    7  A    between atoms: C_19  and  O_20
REMARK    8  A    between atoms: O_20  and  C_21
REMARK                            x       y       z     vdW  Elec       q    Type
REMARK                         _______ _______ _______ _____ _____    ______ ____
ROOT
ATOM      1  C   UNL     1       3.003   6.092  19.180  0.00  0.00    +0.000 A 
ATOM      2  C   UNL     1       3.810   6.324  18.062  0.00  0.00    +0.000 A 
ATOM      3  C   UNL     1       4.522   5.283  17.467  0.00  0.00    +0.000 A 
ATOM      4  C   UNL     1       4.501   4.020  18.048  0.00  0.00    +0.000 A 
ATOM      5  C   UNL     1       3.750   3.779  19.212  0.00  0.00    +0.000 A 
ATOM      6  C   UNL     1       2.977   4.814  19.788  0.00  0.00    +0.000 A 
ENDROOT
BRANCH   3   7
ATOM      7  C   UNL     1       5.250   5.569  16.204  0.00  0.00    +0.000 C 
ATOM      8  O   UNL     1       5.296   6.730  15.811  0.00  0.00    +0.000 OA
ATOM      9  N   UNL     1       5.718   4.450  15.538  0.00  0.00    +0.000 N 
ATOM     10  H   UNL     1       5.481   3.547  15.931  0.00  0.00    +0.000 HD
BRANCH   9  11
ATOM     11  C   UNL     1       6.324   4.429  14.261  0.00  0.00    +0.000 A 
ATOM     12  C   UNL     1       7.390   5.241  13.885  0.00  0.00    +0.000 A 
ATOM     13  C   UNL     1       7.890   5.174  12.584  0.00  0.00    +0.000 A 
ATOM     14  C   UNL     1       7.306   4.287  11.696  0.00  0.00    +0.000 A 
ATOM     15  N   UNL     1       6.286   3.468  12.021  0.00  0.00    +0.000 NA
ATOM     16  C   UNL     1       5.826   3.557  13.293  0.00  0.00    +0.000 A 
ENDBRANCH   9  11
ENDBRANCH   3   7
BRANCH   1  18
ATOM     17  C   UNL     1       2.100   8.261  18.877  0.00  0.00    +0.000 C 
ATOM     18  O   UNL     1       2.260   7.115  19.714  0.00  0.00    +0.000 OA
ENDBRANCH   1  18
BRANCH   5  19
ATOM     19  O   UNL     1       3.882   2.474  19.619  0.00  0.00    +0.000 OA
ATOM     20  C   UNL     1       3.588   1.423  18.711  0.00  0.00    +0.000 C 
ENDBRANCH   5  19
BRANCH   6  21
ATOM     21  O   UNL     1       2.272   4.487  20.916  0.00  0.00    +0.000 OA
ATOM     22  C   UNL     1       1.087   3.713  20.826  0.00  0.00    +0.000 C 
ENDBRANCH   6  21
TORSDOF 5
ENDMDL
MODEL 9
REMARK VINA RESULT:      -6.9      4.203      5.403
REMARK  Name = 
REMARK  8 active torsions:
REMARK  status: ('A' for Active; 'I' for Inactive)
REMARK    1  A    between atoms: C_1  and  O_2
REMARK    2  A    between atoms: O_2  and  C_3
REMARK    3  A    between atoms: C_5  and  C_6
REMARK    4  A    between atoms: N_8  and  C_9
REMARK    5  A    between atoms: C_16  and  O_17
REMARK    6  A    between atoms: O_17  and  C_18
REMARK    7  A    between atoms: C_19  and  O_20
REMARK    8  A    between atoms: O_20  and  C_21
REMARK                            x       y       z     vdW  Elec       q    Type
REMARK                         _______ _______ _______ _____ _____    ______ ____
ROOT
ATOM      1  C   UNL     1       3.564   4.619  17.510  0.00  0.00    +0.000 A 
ATOM      2  C   UNL     1       2.775   5.630  18.068  0.00  0.00    +0.000 A 
ATOM      3  C   UNL     1       3.180   6.962  18.014  0.00  0.00    +0.000 A 
ATOM      4  C   UNL     1       4.424   7.278  17.480  0.00  0.00    +0.000 A 
ATOM      5  C   UNL     1       5.263   6.271  16.972  0.00  0.00    +0.000 A 
ATOM      6  C   UNL     1       4.836   4.923  16.969  0.00  0.00    +0.000 A 
ENDROOT
BRANCH   3   7
ATOM      7  C   UNL     1       2.234   7.999  18.504  0.00  0.00    +0.000 C 
ATOM      8  O   UNL     1       1.916   8.901  17.737  0.00  0.00    +0.000 OA
ATOM      9  N   UNL     1       1.892   7.887  19.840  0.00  0.00    +0.000 N 
ATOM     10  H   UNL     1       2.349   7.157  20.373  0.00  0.00    +0.000 HD
BRANCH   9  11
ATOM     11  C   UNL     1       1.120   8.806  20.586  0.00  0.00    +0.000 A 
ATOM     12  C   UNL     1       0.191   9.681  20.032  0.00  0.00    +0.000 A 
ATOM     13  C   UNL     1      -0.490  10.583  20.851  0.00  0.00    +0.000 A 
ATOM     14  C   UNL     1      -0.219  10.578  22.209  0.00  0.00    +0.000 A 
ATOM     15  N   UNL     1       0.658   9.736  22.791  0.00  0.00    +0.000 NA
ATOM     16  C   UNL     1       1.300   8.871  21.968  0.00  0.00    +0.000 A 
ENDBRANCH   9  11
ENDBRANCH   3   7
BRANCH   1  18
ATOM     17  C   UNL     1       3.357   2.594  18.723  0.00  0.00    +0.000 C 
ATOM     18  O   UNL     1       3.120   3.319  17.516  0.00  0.00    +0.000 OA
ENDBRANCH   1  18
BRANCH   5  19
ATOM     19  O   UNL     1       6.441   6.802  16.508  0.00  0.00    +0.000 OA
ATOM     20  C   UNL     1       7.465   7.150  17.427  0.00  0.00    +0.000 C 
ENDBRANCH   5  19
BRANCH   6  21
ATOM     21  O   UNL     1       5.715   4.011  16.449  0.00  0.00    +0.000 OA
ATOM     22  C   UNL     1       5.890   3.896  15.046  0.00  0.00    +0.000 C 
ENDBRANCH   6  21
TORSDOF 5
ENDMDL
