MODEL 1
REMARK VINA RESULT:      -8.4      0.000      0.000
REMARK  Name = 
REMARK  8 active torsions:
REMARK  status: ('A' for Active; 'I' for Inactive)
REMARK    1  A    between atoms: C_2  and  C_3
REMARK    2  A    between atoms: C_6  and  O_7
REMARK    3  A    between atoms: O_7  and  C_8
REMARK    4  A    between atoms: C_8  and  C_9
REMARK    5  A    between atoms: C_9  and  C_10
REMARK    6  A    between atoms: C_10  and  N_11
REMARK    7  A    between atoms: C_14  and  C_15
REMARK    8  A    between atoms: C_15  and  C_16
REMARK                            x       y       z     vdW  Elec       q    Type
REMARK                         _______ _______ _______ _____ _____    ______ ____
ROOT
ATOM      1  O   UNL     1       7.496   7.878  17.016  0.00  0.00    +0.000 OA
ENDROOT
BRANCH   1   5
ATOM      2  C   UNL     1       4.729   4.842  17.644  0.00  0.00    +0.000 A 
ATOM      3  C   UNL     1       5.770   5.133  18.548  0.00  0.00    +0.000 A 
ATOM      4  C   UNL     1       6.707   6.108  18.257  0.00  0.00    +0.000 A 
ATOM      5  C   UNL     1       6.553   6.903  17.129  0.00  0.00    +0.000 A 
ATOM      6  C   UNL     1       5.464   6.694  16.276  0.00  0.00    +0.000 A 
ATOM      7  C   UNL     1       4.564   5.655  16.531  0.00  0.00    +0.000 A 
BRANCH   2   9
ATOM      8  O   UNL     1       4.288   2.547  17.501  0.00  0.00    +0.000 OA
ATOM      9  C   UNL     1       3.845   3.655  17.834  0.00  0.00    +0.000 C 
ATOM     10  N   UNL     1       2.597   3.848  18.404  0.00  0.00    +0.000 N 
ATOM     11  C   UNL     1       1.671   2.735  18.611  0.00  0.00    +0.000 C 
ATOM     12  C   UNL     1       1.282   2.619  20.104  0.00  0.00    +0.000 C 
ATOM     13  N   UNL     1       0.774   3.885  20.678  0.00  0.00    +0.000 NA
ATOM     14  C   UNL     1       1.771   4.935  20.484  0.00  0.00    +0.000 C 
ATOM     15  C   UNL     1       2.140   5.101  19.018  0.00  0.00    +0.000 C 
ATOM     16  H   UNL     1       0.620   3.766  21.681  0.00  0.00    +0.000 HD
ENDBRANCH   2   9
ENDBRANCH   1   5
BRANCH   1  17
ATOM     17  C   UNL     1       8.214   8.190  18.205  0.00  0.00    +0.000 C 
BRANCH  17  18
ATOM     18  C   UNL     1       8.546   9.674  18.139  0.00  0.00    +0.000 C 
BRANCH  18  19
ATOM     19  C   UNL     1       9.176  10.172  19.440  0.00  0.00    +0.000 C 
BRANCH  19  20
ATOM     20  N   UNL     1      10.218  11.195  19.239  0.00  0.00    +0.000 NA
ATOM     21  C   UNL     1      10.402  11.511  17.811  0.00  0.00    +0.000 C 
ATOM     22  C   UNL     1      11.489  12.565  17.616  0.00  0.00    +0.000 C 
ATOM     23  C   UNL     1      11.152  13.861  18.362  0.00  0.00    +0.000 C 
ATOM     24  C   UNL     1      10.964  13.498  19.844  0.00  0.00    +0.000 C 
ATOM     25  C   UNL     1       9.918  12.394  20.040  0.00  0.00    +0.000 C 
BRANCH  23  26
ATOM     26  C   UNL     1       9.903  14.590  17.821  0.00  0.00    +0.000 C 
BRANCH  26  27
ATOM     27  C   UNL     1      10.093  16.055  17.640  0.00  0.00    +0.000 A 
ATOM     28  C   UNL     1      10.987  16.721  16.833  0.00  0.00    +0.000 A 
ATOM     29  N   UNL     1      10.744  18.048  17.049  0.00  0.00    +0.000 N 
ATOM     30  C   UNL     1       9.736  18.140  17.965  0.00  0.00    +0.000 A 
ATOM     31  N   UNL     1       9.328  16.953  18.348  0.00  0.00    +0.000 NA
ATOM     32  H   UNL     1      11.222  18.825  16.612  0.00  0.00    +0.000 HD
ENDBRANCH  26  27
ENDBRANCH  23  26
ENDBRANCH  19  20
ENDBRANCH  18  19
ENDBRANCH  17  18
ENDBRANCH   1  17
TORSDOF 8
ENDMDL
MODEL 2
REMARK VINA RESULT:      -8.1      0.634      1.043
REMARK  Name = 
REMARK  8 active torsions:
REMARK  status: ('A' for Active; 'I' for Inactive)
REMARK    1  A    between atoms: C_2  and  C_3
REMARK    2  A    between atoms: C_6  and  O_7
REMARK    3  A    between atoms: O_7  and  C_8
REMARK    4  A    between atoms: C_8  and  C_9
REMARK    5  A    between atoms: C_9  and  C_10
REMARK    6  A    between atoms: C_10  and  N_11
REMARK    7  A    between atoms: C_14  and  C_15
REMARK    8  A    between atoms: C_15  and  C_16
REMARK                            x       y       z     vdW  Elec       q    Type
REMARK                         _______ _______ _______ _____ _____    ______ ____
ROOT
ATOM      1  O   UNL     1       6.994   7.943  17.170  0.00  0.00    +0.000 OA
ENDROOT
BRANCH   1   5
ATOM      2  C   UNL     1       4.692   4.502  17.535  0.00  0.00    +0.000 A 
ATOM      3  C   UNL     1       4.259   5.648  16.837  0.00  0.00    +0.000 A 
ATOM      4  C   UNL     1       5.035   6.793  16.806  0.00  0.00    +0.000 A 
ATOM      5  C   UNL     1       6.311   6.779  17.352  0.00  0.00    +0.000 A 
ATOM      6  C   UNL     1       6.796   5.614  17.956  0.00  0.00    +0.000 A 
ATOM      7  C   UNL     1       5.979   4.485  18.056  0.00  0.00    +0.000 A 
BRANCH   2   9
ATOM      8  O   UNL     1       4.215   2.210  17.510  0.00  0.00    +0.000 OA
ATOM      9  C   UNL     1       3.782   3.343  17.765  0.00  0.00    +0.000 C 
ATOM     10  N   UNL     1       2.520   3.588  18.283  0.00  0.00    +0.000 N 
ATOM     11  C   UNL     1       1.570   2.503  18.525  0.00  0.00    +0.000 C 
ATOM     12  C   UNL     1       1.134   2.481  20.009  0.00  0.00    +0.000 C 
ATOM     13  N   UNL     1       0.630   3.786  20.494  0.00  0.00    +0.000 NA
ATOM     14  C   UNL     1       1.651   4.807  20.270  0.00  0.00    +0.000 C 
ATOM     15  C   UNL     1       2.067   4.882  18.809  0.00  0.00    +0.000 C 
ATOM     16  H   UNL     1       0.444   3.728  21.496  0.00  0.00    +0.000 HD
ENDBRANCH   2   9
ENDBRANCH   1   5
BRANCH   1  17
ATOM     17  C   UNL     1       8.159   8.114  17.969  0.00  0.00    +0.000 C 
BRANCH  17  18
ATOM     18  C   UNL     1       8.439   9.608  18.022  0.00  0.00    +0.000 C 
BRANCH  18  19
ATOM     19  C   UNL     1       9.146  10.008  19.317  0.00  0.00    +0.000 C 
BRANCH  19  20
ATOM     20  N   UNL     1      10.268  10.941  19.116  0.00  0.00    +0.000 NA
ATOM     21  C   UNL     1      10.217  11.575  17.787  0.00  0.00    +0.000 C 
ATOM     22  C   UNL     1      11.389  12.533  17.588  0.00  0.00    +0.000 C 
ATOM     23  C   UNL     1      11.397  13.635  18.652  0.00  0.00    +0.000 C 
ATOM     24  C   UNL     1      11.448  12.944  20.024  0.00  0.00    +0.000 C 
ATOM     25  C   UNL     1      10.308  11.933  20.204  0.00  0.00    +0.000 C 
BRANCH  23  26
ATOM     26  C   UNL     1      10.188  14.593  18.575  0.00  0.00    +0.000 C 
BRANCH  26  27
ATOM     27  C   UNL     1      10.539  15.969  18.130  0.00  0.00    +0.000 A 
ATOM     28  C   UNL     1      10.399  16.543  16.887  0.00  0.00    +0.000 A 
ATOM     29  N   UNL     1      10.878  17.815  17.024  0.00  0.00    +0.000 N 
ATOM     30  C   UNL     1      11.288  17.965  18.317  0.00  0.00    +0.000 A 
ATOM     31  N   UNL     1      11.105  16.865  19.008  0.00  0.00    +0.000 NA
ATOM     32  H   UNL     1      10.922  18.521  16.301  0.00  0.00    +0.000 HD
ENDBRANCH  26  27
ENDBRANCH  23  26
ENDBRANCH  19  20
ENDBRANCH  18  19
ENDBRANCH  17  18
ENDBRANCH   1  17
TORSDOF 8
ENDMDL
MODEL 3
REMARK VINA RESULT:      -8.0      1.480      1.614
REMARK  Name = 
REMARK  8 active torsions:
REMARK  status: ('A' for Active; 'I' for Inactive)
REMARK    1  A    between atoms: C_2  and  C_3
REMARK    2  A    between atoms: C_6  and  O_7
REMARK    3  A    between atoms: O_7  and  C_8
REMARK    4  A    between atoms: C_8  and  C_9
REMARK    5  A    between atoms: C_9  and  C_10
REMARK    6  A    between atoms: C_10  and  N_11
REMARK    7  A    between atoms: C_14  and  C_15
REMARK    8  A    between atoms: C_15  and  C_16
REMARK                            x       y       z     vdW  Elec       q    Type
REMARK                         _______ _______ _______ _____ _____    ______ ____
ROOT
ATOM      1  O   UNL     1       7.656   7.574  17.075  0.00  0.00    +0.000 OA
ENDROOT
BRANCH   1   5
ATOM      2  C   UNL     1       4.700   4.709  17.637  0.00  0.00    +0.000 A 
ATOM      3  C   UNL     1       5.787   4.876  18.519  0.00  0.00    +0.000 A 
ATOM      4  C   UNL     1       6.782   5.798  18.246  0.00  0.00    +0.000 A 
ATOM      5  C   UNL     1       6.650   6.663  17.168  0.00  0.00    +0.000 A 
ATOM      6  C   UNL     1       5.522   6.578  16.344  0.00  0.00    +0.000 A 
ATOM      7  C   UNL     1       4.558   5.593  16.575  0.00  0.00    +0.000 A 
BRANCH   2   9
ATOM      8  O   UNL     1       4.095   2.460  17.397  0.00  0.00    +0.000 OA
ATOM      9  C   UNL     1       3.739   3.578  17.795  0.00  0.00    +0.000 C 
ATOM     10  N   UNL     1       2.521   3.828  18.407  0.00  0.00    +0.000 N 
ATOM     11  C   UNL     1       1.525   2.773  18.586  0.00  0.00    +0.000 C 
ATOM     12  C   UNL     1       1.164   2.612  20.082  0.00  0.00    +0.000 C 
ATOM     13  N   UNL     1       0.761   3.880  20.729  0.00  0.00    +0.000 NA
ATOM     14  C   UNL     1       1.825   4.867  20.557  0.00  0.00    +0.000 C 
ATOM     15  C   UNL     1       2.169   5.079  19.092  0.00  0.00    +0.000 C 
ATOM     16  H   UNL     1       0.623   3.723  21.729  0.00  0.00    +0.000 HD
ENDBRANCH   2   9
ENDBRANCH   1   5
BRANCH   1  17
ATOM     17  C   UNL     1       8.179   8.054  18.308  0.00  0.00    +0.000 C 
BRANCH  17  18
ATOM     18  C   UNL     1       8.452   9.539  18.120  0.00  0.00    +0.000 C 
BRANCH  18  19
ATOM     19  C   UNL     1       9.145  10.147  19.341  0.00  0.00    +0.000 C 
BRANCH  19  20
ATOM     20  N   UNL     1      10.337  10.947  19.008  0.00  0.00    +0.000 NA
ATOM     21  C   UNL     1      10.105  11.806  17.833  0.00  0.00    +0.000 C 
ATOM     22  C   UNL     1      11.349  12.623  17.492  0.00  0.00    +0.000 C 
ATOM     23  C   UNL     1      11.773  13.510  18.668  0.00  0.00    +0.000 C 
ATOM     24  C   UNL     1      12.005  12.588  19.875  0.00  0.00    +0.000 C 
ATOM     25  C   UNL     1      10.779  11.718  20.182  0.00  0.00    +0.000 C 
BRANCH  23  26
ATOM     26  C   UNL     1      10.755  14.616  19.020  0.00  0.00    +0.000 C 
BRANCH  26  27
ATOM     27  C   UNL     1      11.246  15.583  20.039  0.00  0.00    +0.000 A 
ATOM     28  C   UNL     1      12.333  16.425  19.985  0.00  0.00    +0.000 A 
ATOM     29  N   UNL     1      12.332  17.088  21.179  0.00  0.00    +0.000 N 
ATOM     30  C   UNL     1      11.269  16.632  21.904  0.00  0.00    +0.000 A 
ATOM     31  N   UNL     1      10.599  15.716  21.246  0.00  0.00    +0.000 NA
ATOM     32  H   UNL     1      12.996  17.790  21.476  0.00  0.00    +0.000 HD
ENDBRANCH  26  27
ENDBRANCH  23  26
ENDBRANCH  19  20
ENDBRANCH  18  19
ENDBRANCH  17  18
ENDBRANCH   1  17
TORSDOF 8
ENDMDL
MODEL 4
REMARK VINA RESULT:      -8.0      2.418     12.236
REMARK  Name = 
REMARK  8 active torsions:
REMARK  status: ('A' for Active; 'I' for Inactive)
REMARK    1  A    between atoms: C_2  and  C_3
REMARK    2  A    between atoms: C_6  and  O_7
REMARK    3  A    between atoms: O_7  and  C_8
REMARK    4  A    between atoms: C_8  and  C_9
REMARK    5  A    between atoms: C_9  and  C_10
REMARK    6  A    between atoms: C_10  and  N_11
REMARK    7  A    between atoms: C_14  and  C_15
REMARK    8  A    between atoms: C_15  and  C_16
REMARK                            x       y       z     vdW  Elec       q    Type
REMARK                         _______ _______ _______ _____ _____    ______ ____
ROOT
ATOM      1  O   UNL     1       9.336   9.873  19.006  0.00  0.00    +0.000 OA
ENDROOT
BRANCH   1   5
ATOM      2  C   UNL     1      10.705  13.763  18.492  0.00  0.00    +0.000 A 
ATOM      3  C   UNL     1       9.663  13.206  17.725  0.00  0.00    +0.000 A 
ATOM      4  C   UNL     1       9.294  11.883  17.888  0.00  0.00    +0.000 A 
ATOM      5  C   UNL     1       9.858  11.126  18.906  0.00  0.00    +0.000 A 
ATOM      6  C   UNL     1      10.820  11.698  19.745  0.00  0.00    +0.000 A 
ATOM      7  C   UNL     1      11.249  13.010  19.526  0.00  0.00    +0.000 A 
BRANCH   2   9
ATOM      8  O   UNL     1      12.297  15.164  17.501  0.00  0.00    +0.000 OA
ATOM      9  C   UNL     1      11.264  15.111  18.183  0.00  0.00    +0.000 C 
ATOM     10  N   UNL     1      10.583  16.227  18.640  0.00  0.00    +0.000 N 
ATOM     11  C   UNL     1      11.074  17.581  18.385  0.00  0.00    +0.000 C 
ATOM     12  C   UNL     1      10.011  18.416  17.634  0.00  0.00    +0.000 C 
ATOM     13  N   UNL     1       8.688  18.416  18.297  0.00  0.00    +0.000 NA
ATOM     14  C   UNL     1       8.236  17.037  18.468  0.00  0.00    +0.000 C 
ATOM     15  C   UNL     1       9.244  16.203  19.244  0.00  0.00    +0.000 C 
ATOM     16  H   UNL     1       8.012  18.907  17.709  0.00  0.00    +0.000 HD
ENDBRANCH   2   9
ENDBRANCH   1   5
BRANCH   1  17
ATOM     17  C   UNL     1       8.167   9.621  18.235  0.00  0.00    +0.000 C 
BRANCH  17  18
ATOM     18  C   UNL     1       8.095   8.115  18.026  0.00  0.00    +0.000 C 
BRANCH  18  19
ATOM     19  C   UNL     1       6.921   7.723  17.130  0.00  0.00    +0.000 C 
BRANCH  19  20
ATOM     20  N   UNL     1       6.696   6.268  17.051  0.00  0.00    +0.000 NA
ATOM     21  C   UNL     1       6.197   5.725  18.327  0.00  0.00    +0.000 C 
ATOM     22  C   UNL     1       5.977   4.217  18.236  0.00  0.00    +0.000 C 
ATOM     23  C   UNL     1       4.974   3.865  17.132  0.00  0.00    +0.000 C 
ATOM     24  C   UNL     1       5.521   4.446  15.817  0.00  0.00    +0.000 C 
ATOM     25  C   UNL     1       5.804   5.949  15.924  0.00  0.00    +0.000 C 
BRANCH  23  26
ATOM     26  C   UNL     1       3.542   4.379  17.395  0.00  0.00    +0.000 C 
BRANCH  26  27
ATOM     27  C   UNL     1       2.632   3.353  17.974  0.00  0.00    +0.000 A 
ATOM     28  C   UNL     1       2.930   2.097  18.450  0.00  0.00    +0.000 A 
ATOM     29  N   UNL     1       1.736   1.576  18.859  0.00  0.00    +0.000 N 
ATOM     30  C   UNL     1       0.773   2.513  18.617  0.00  0.00    +0.000 A 
ATOM     31  N   UNL     1       1.282   3.593  18.075  0.00  0.00    +0.000 NA
ATOM     32  H   UNL     1       1.587   0.663  19.267  0.00  0.00    +0.000 HD
ENDBRANCH  26  27
ENDBRANCH  23  26
ENDBRANCH  19  20
ENDBRANCH  18  19
ENDBRANCH  17  18
ENDBRANCH   1  17
TORSDOF 8
ENDMDL
MODEL 5
REMARK VINA RESULT:      -7.9      1.470      2.037
REMARK  Name = 
REMARK  8 active torsions:
REMARK  status: ('A' for Active; 'I' for Inactive)
REMARK    1  A    between atoms: C_2  and  C_3
REMARK    2  A    between atoms: C_6  and  O_7
REMARK    3  A    between atoms: O_7  and  C_8
REMARK    4  A    between atoms: C_8  and  C_9
REMARK    5  A    between atoms: C_9  and  C_10
REMARK    6  A    between atoms: C_10  and  N_11
REMARK    7  A    between atoms: C_14  and  C_15
REMARK    8  A    between atoms: C_15  and  C_16
REMARK                            x       y       z     vdW  Elec       q    Type
REMARK                         _______ _______ _______ _____ _____    ______ ____
ROOT
ATOM      1  O   UNL     1       7.576   7.557  17.060  0.00  0.00    +0.000 OA
ENDROOT
BRANCH   1   5
ATOM      2  C   UNL     1       4.402   5.637  18.933  0.00  0.00    +0.000 A 
ATOM      3  C   UNL     1       4.232   6.550  17.873  0.00  0.00    +0.000 A 
ATOM      4  C   UNL     1       5.317   7.216  17.332  0.00  0.00    +0.000 A 
ATOM      5  C   UNL     1       6.604   6.890  17.739  0.00  0.00    +0.000 A 
ATOM      6  C   UNL     1       6.795   5.908  18.718  0.00  0.00    +0.000 A 
ATOM      7  C   UNL     1       5.692   5.295  19.319  0.00  0.00    +0.000 A 
BRANCH   2   9
ATOM      8  O   UNL     1       2.547   5.863  20.344  0.00  0.00    +0.000 OA
ATOM      9  C   UNL     1       3.233   5.079  19.673  0.00  0.00    +0.000 C 
ATOM     10  N   UNL     1       2.955   3.728  19.542  0.00  0.00    +0.000 N 
ATOM     11  C   UNL     1       1.833   3.107  20.245  0.00  0.00    +0.000 C 
ATOM     12  C   UNL     1       0.868   2.430  19.243  0.00  0.00    +0.000 C 
ATOM     13  N   UNL     1       1.543   1.488  18.322  0.00  0.00    +0.000 NA
ATOM     14  C   UNL     1       2.613   2.190  17.617  0.00  0.00    +0.000 C 
ATOM     15  C   UNL     1       3.602   2.828  18.579  0.00  0.00    +0.000 C 
ATOM     16  H   UNL     1       0.871   1.145  17.634  0.00  0.00    +0.000 HD
ENDBRANCH   2   9
ENDBRANCH   1   5
BRANCH   1  17
ATOM     17  C   UNL     1       7.800   8.905  17.456  0.00  0.00    +0.000 C 
BRANCH  17  18
ATOM     18  C   UNL     1       8.773   8.863  18.625  0.00  0.00    +0.000 C 
BRANCH  18  19
ATOM     19  C   UNL     1       8.995  10.250  19.229  0.00  0.00    +0.000 C 
BRANCH  19  20
ATOM     20  N   UNL     1      10.299  10.844  18.885  0.00  0.00    +0.000 NA
ATOM     21  C   UNL     1      10.163  11.903  17.870  0.00  0.00    +0.000 C 
ATOM     22  C   UNL     1      11.521  12.504  17.515  0.00  0.00    +0.000 C 
ATOM     23  C   UNL     1      12.208  13.098  18.749  0.00  0.00    +0.000 C 
ATOM     24  C   UNL     1      12.333  11.972  19.789  0.00  0.00    +0.000 C 
ATOM     25  C   UNL     1      10.979  11.322  20.101  0.00  0.00    +0.000 C 
BRANCH  23  26
ATOM     26  C   UNL     1      11.472  14.313  19.355  0.00  0.00    +0.000 C 
BRANCH  26  27
ATOM     27  C   UNL     1      11.150  15.376  18.364  0.00  0.00    +0.000 A 
ATOM     28  C   UNL     1      12.005  16.181  17.645  0.00  0.00    +0.000 A 
ATOM     29  N   UNL     1      11.194  16.981  16.891  0.00  0.00    +0.000 N 
ATOM     30  C   UNL     1       9.902  16.645  17.176  0.00  0.00    +0.000 A 
ATOM     31  N   UNL     1       9.843  15.685  18.068  0.00  0.00    +0.000 NA
ATOM     32  H   UNL     1      11.493  17.693  16.238  0.00  0.00    +0.000 HD
ENDBRANCH  26  27
ENDBRANCH  23  26
ENDBRANCH  19  20
ENDBRANCH  18  19
ENDBRANCH  17  18
ENDBRANCH   1  17
TORSDOF 8
ENDMDL
MODEL 6
REMARK VINA RESULT:      -7.9      1.164      1.424
REMARK  Name = 
REMARK  8 active torsions:
REMARK  status: ('A' for Active; 'I' for Inactive)
REMARK    1  A    between atoms: C_2  and  C_3
REMARK    2  A    between atoms: C_6  and  O_7
REMARK    3  A    between atoms: O_7  and  C_8
REMARK    4  A    between atoms: C_8  and  C_9
REMARK    5  A    between atoms: C_9  and  C_10
REMARK    6  A    between atoms: C_10  and  N_11
REMARK    7  A    between atoms: C_14  and  C_15
REMARK    8  A    between atoms: C_15  and  C_16
REMARK                            x       y       z     vdW  Elec       q    Type
REMARK                         _______ _______ _______ _____ _____    ______ ____
ROOT
ATOM      1  O   UNL     1       7.707   7.055  17.007  0.00  0.00    +0.000 OA
ENDROOT
BRANCH   1   5
ATOM      2  C   UNL     1       4.213   4.824  17.293  0.00  0.00    +0.000 A 
ATOM      3  C   UNL     1       4.221   6.220  17.106  0.00  0.00    +0.000 A 
ATOM      4  C   UNL     1       5.412   6.925  17.089  0.00  0.00    +0.000 A 
ATOM      5  C   UNL     1       6.621   6.243  17.122  0.00  0.00    +0.000 A 
ATOM      6  C   UNL     1       6.629   4.846  17.202  0.00  0.00    +0.000 A 
ATOM      7  C   UNL     1       5.424   4.143  17.299  0.00  0.00    +0.000 A 
BRANCH   2   9
ATOM      8  O   UNL     1       2.550   3.308  16.647  0.00  0.00    +0.000 OA
ATOM      9  C   UNL     1       2.943   4.079  17.533  0.00  0.00    +0.000 C 
ATOM     10  N   UNL     1       2.292   4.260  18.743  0.00  0.00    +0.000 N 
ATOM     11  C   UNL     1       1.037   3.574  19.046  0.00  0.00    +0.000 C 
ATOM     12  C   UNL     1       1.175   2.727  20.333  0.00  0.00    +0.000 C 
ATOM     13  N   UNL     1       1.687   3.495  21.490  0.00  0.00    +0.000 NA
ATOM     14  C   UNL     1       2.966   4.105  21.132  0.00  0.00    +0.000 C 
ATOM     15  C   UNL     1       2.849   4.981  19.895  0.00  0.00    +0.000 C 
ATOM     16  H   UNL     1       1.838   2.863  22.278  0.00  0.00    +0.000 HD
ENDBRANCH   2   9
ENDBRANCH   1   5
BRANCH   1  17
ATOM     17  C   UNL     1       8.129   7.704  18.201  0.00  0.00    +0.000 C 
BRANCH  17  18
ATOM     18  C   UNL     1       8.225   9.189  17.882  0.00  0.00    +0.000 C 
BRANCH  18  19
ATOM     19  C   UNL     1       8.916   9.967  19.003  0.00  0.00    +0.000 C 
BRANCH  19  20
ATOM     20  N   UNL     1       9.930  10.923  18.522  0.00  0.00    +0.000 NA
ATOM     21  C   UNL     1       9.310  12.091  17.871  0.00  0.00    +0.000 C 
ATOM     22  C   UNL     1      10.370  13.069  17.370  0.00  0.00    +0.000 C 
ATOM     23  C   UNL     1      11.258  13.565  18.517  0.00  0.00    +0.000 C 
ATOM     24  C   UNL     1      11.886  12.326  19.176  0.00  0.00    +0.000 C 
ATOM     25  C   UNL     1      10.827  11.311  19.623  0.00  0.00    +0.000 C 
BRANCH  23  26
ATOM     26  C   UNL     1      10.512  14.416  19.567  0.00  0.00    +0.000 C 
BRANCH  26  27
ATOM     27  C   UNL     1       9.853  15.625  19.002  0.00  0.00    +0.000 A 
ATOM     28  C   UNL     1      10.425  16.751  18.454  0.00  0.00    +0.000 A 
ATOM     29  N   UNL     1       9.376  17.550  18.099  0.00  0.00    +0.000 N 
ATOM     30  C   UNL     1       8.226  16.898  18.441  0.00  0.00    +0.000 A 
ATOM     31  N   UNL     1       8.482  15.737  18.997  0.00  0.00    +0.000 NA
ATOM     32  H   UNL     1       9.435  18.459  17.661  0.00  0.00    +0.000 HD
ENDBRANCH  26  27
ENDBRANCH  23  26
ENDBRANCH  19  20
ENDBRANCH  18  19
ENDBRANCH  17  18
ENDBRANCH   1  17
TORSDOF 8
ENDMDL
MODEL 7
REMARK VINA RESULT:      -7.8      1.522      1.783
REMARK  Name = 
REMARK  8 active torsions:
REMARK  status: ('A' for Active; 'I' for Inactive)
REMARK    1  A    between atoms: C_2  and  C_3
REMARK    2  A    between atoms: C_6  and  O_7
REMARK    3  A    between atoms: O_7  and  C_8
REMARK    4  A    between atoms: C_8  and  C_9
REMARK    5  A    between atoms: C_9  and  C_10
REMARK    6  A    between atoms: C_10  and  N_11
REMARK    7  A    between atoms: C_14  and  C_15
REMARK    8  A    between atoms: C_15  and  C_16
REMARK                            x       y       z     vdW  Elec       q    Type
REMARK                         _______ _______ _______ _____ _____    ______ ____
ROOT
ATOM      1  O   UNL     1       7.503   7.805  17.046  0.00  0.00    +0.000 OA
ENDROOT
BRANCH   1   5
ATOM      2  C   UNL     1       4.739   4.768  17.683  0.00  0.00    +0.000 A 
ATOM      3  C   UNL     1       5.812   5.029  18.559  0.00  0.00    +0.000 A 
ATOM      4  C   UNL     1       6.745   6.006  18.262  0.00  0.00    +0.000 A 
ATOM      5  C   UNL     1       6.558   6.833  17.163  0.00  0.00    +0.000 A 
ATOM      6  C   UNL     1       5.439   6.655  16.342  0.00  0.00    +0.000 A 
ATOM      7  C   UNL     1       4.541   5.614  16.599  0.00  0.00    +0.000 A 
BRANCH   2   9
ATOM      8  O   UNL     1       4.304   2.472  17.555  0.00  0.00    +0.000 OA
ATOM      9  C   UNL     1       3.854   3.582  17.870  0.00  0.00    +0.000 C 
ATOM     10  N   UNL     1       2.596   3.778  18.416  0.00  0.00    +0.000 N 
ATOM     11  C   UNL     1       1.669   2.665  18.619  0.00  0.00    +0.000 C 
ATOM     12  C   UNL     1       1.255   2.564  20.106  0.00  0.00    +0.000 C 
ATOM     13  N   UNL     1       0.735   3.834  20.659  0.00  0.00    +0.000 NA
ATOM     14  C   UNL     1       1.734   4.884  20.471  0.00  0.00    +0.000 C 
ATOM     15  C   UNL     1       2.127   5.037  19.010  0.00  0.00    +0.000 C 
ATOM     16  H   UNL     1       0.564   3.725  21.660  0.00  0.00    +0.000 HD
ENDBRANCH   2   9
ENDBRANCH   1   5
BRANCH   1  17
ATOM     17  C   UNL     1       8.198   8.146  18.240  0.00  0.00    +0.000 C 
BRANCH  17  18
ATOM     18  C   UNL     1       8.477   9.640  18.174  0.00  0.00    +0.000 C 
BRANCH  18  19
ATOM     19  C   UNL     1       9.375  10.101  19.323  0.00  0.00    +0.000 C 
BRANCH  19  20
ATOM     20  N   UNL     1       9.842  11.492  19.188  0.00  0.00    +0.000 NA
ATOM     21  C   UNL     1       9.849  11.930  17.781  0.00  0.00    +0.000 C 
ATOM     22  C   UNL     1      10.342  13.369  17.654  0.00  0.00    +0.000 C 
ATOM     23  C   UNL     1       9.464  14.334  18.459  0.00  0.00    +0.000 C 
ATOM     24  C   UNL     1       9.475  13.850  19.918  0.00  0.00    +0.000 C 
ATOM     25  C   UNL     1       9.041  12.384  20.044  0.00  0.00    +0.000 C 
BRANCH  23  26
ATOM     26  C   UNL     1       8.015  14.448  17.938  0.00  0.00    +0.000 C 
BRANCH  26  27
ATOM     27  C   UNL     1       7.252  15.581  18.528  0.00  0.00    +0.000 A 
ATOM     28  C   UNL     1       7.656  16.877  18.753  0.00  0.00    +0.000 A 
ATOM     29  N   UNL     1       6.577  17.497  19.315  0.00  0.00    +0.000 N 
ATOM     30  C   UNL     1       5.577  16.573  19.415  0.00  0.00    +0.000 A 
ATOM     31  N   UNL     1       5.957  15.404  18.957  0.00  0.00    +0.000 NA
ATOM     32  H   UNL     1       6.523  18.464  19.606  0.00  0.00    +0.000 HD
ENDBRANCH  26  27
ENDBRANCH  23  26
ENDBRANCH  19  20
ENDBRANCH  18  19
ENDBRANCH  17  18
ENDBRANCH   1  17
TORSDOF 8
ENDMDL
MODEL 8
REMARK VINA RESULT:      -7.7      7.561     11.061
REMARK  Name = 
REMARK  8 active torsions:
REMARK  status: ('A' for Active; 'I' for Inactive)
REMARK    1  A    between atoms: C_2  and  C_3
REMARK    2  A    between atoms: C_6  and  O_7
REMARK    3  A    between atoms: O_7  and  C_8
REMARK    4  A    between atoms: C_8  and  C_9
REMARK    5  A    between atoms: C_9  and  C_10
REMARK    6  A    between atoms: C_10  and  N_11
REMARK    7  A    between atoms: C_14  and  C_15
REMARK    8  A    between atoms: C_15  and  C_16
REMARK                            x       y       z     vdW  Elec       q    Type
REMARK                         _______ _______ _______ _____ _____    ______ ____
ROOT
ATOM      1  O   UNL     1       0.606  10.202  19.480  0.00  0.00    +0.000 OA
ENDROOT
BRANCH   1   5
ATOM      2  C   UNL     1       2.815   6.736  18.864  0.00  0.00    +0.000 A 
ATOM      3  C   UNL     1       2.089   6.986  20.045  0.00  0.00    +0.000 A 
ATOM      4  C   UNL     1       1.428   8.188  20.229  0.00  0.00    +0.000 A 
ATOM      5  C   UNL     1       1.363   9.108  19.191  0.00  0.00    +0.000 A 
ATOM      6  C   UNL     1       1.992   8.827  17.973  0.00  0.00    +0.000 A 
ATOM      7  C   UNL     1       2.726   7.647  17.819  0.00  0.00    +0.000 A 
BRANCH   2   9
ATOM      8  O   UNL     1       4.855   5.638  19.200  0.00  0.00    +0.000 OA
ATOM      9  C   UNL     1       3.709   5.548  18.738  0.00  0.00    +0.000 C 
ATOM     10  N   UNL     1       3.202   4.402  18.147  0.00  0.00    +0.000 N 
ATOM     11  C   UNL     1       4.021   3.202  17.979  0.00  0.00    +0.000 C 
ATOM     12  C   UNL     1       3.362   1.989  18.676  0.00  0.00    +0.000 C 
ATOM     13  N   UNL     1       1.957   1.769  18.267  0.00  0.00    +0.000 NA
ATOM     14  C   UNL     1       1.189   2.987  18.515  0.00  0.00    +0.000 C 
ATOM     15  C   UNL     1       1.790   4.190  17.804  0.00  0.00    +0.000 C 
ATOM     16  H   UNL     1       1.555   1.014  18.825  0.00  0.00    +0.000 HD
ENDBRANCH   2   9
ENDBRANCH   1   5
BRANCH   1  17
ATOM     17  C   UNL     1       0.836  10.800  20.750  0.00  0.00    +0.000 C 
BRANCH  17  18
ATOM     18  C   UNL     1      -0.482  11.425  21.185  0.00  0.00    +0.000 C 
BRANCH  18  19
ATOM     19  C   UNL     1      -0.265  12.726  21.958  0.00  0.00    +0.000 C 
BRANCH  19  20
ATOM     20  N   UNL     1      -1.260  12.957  23.021  0.00  0.00    +0.000 NA
ATOM     21  C   UNL     1      -1.716  14.358  23.044  0.00  0.00    +0.000 C 
ATOM     22  C   UNL     1      -2.739  14.586  24.154  0.00  0.00    +0.000 C 
ATOM     23  C   UNL     1      -3.962  13.680  23.981  0.00  0.00    +0.000 C 
ATOM     24  C   UNL     1      -3.455  12.229  23.958  0.00  0.00    +0.000 C 
ATOM     25  C   UNL     1      -2.379  12.010  22.886  0.00  0.00    +0.000 C 
BRANCH  23  26
ATOM     26  C   UNL     1      -4.794  13.981  22.715  0.00  0.00    +0.000 C 
BRANCH  26  27
ATOM     27  C   UNL     1      -5.956  13.069  22.528  0.00  0.00    +0.000 A 
ATOM     28  C   UNL     1      -6.261  12.259  21.458  0.00  0.00    +0.000 A 
ATOM     29  N   UNL     1      -7.431  11.643  21.797  0.00  0.00    +0.000 N 
ATOM     30  C   UNL     1      -7.793  12.095  23.034  0.00  0.00    +0.000 A 
ATOM     31  N   UNL     1      -6.926  12.965  23.497  0.00  0.00    +0.000 NA
ATOM     32  H   UNL     1      -7.941  10.973  21.237  0.00  0.00    +0.000 HD
ENDBRANCH  26  27
ENDBRANCH  23  26
ENDBRANCH  19  20
ENDBRANCH  18  19
ENDBRANCH  17  18
ENDBRANCH   1  17
TORSDOF 8
ENDMDL
MODEL 9
REMARK VINA RESULT:      -7.7      2.297     11.791
REMARK  Name = 
REMARK  8 active torsions:
REMARK  status: ('A' for Active; 'I' for Inactive)
REMARK    1  A    between atoms: C_2  and  C_3
REMARK    2  A    between atoms: C_6  and  O_7
REMARK    3  A    between atoms: O_7  and  C_8
REMARK    4  A    between atoms: C_8  and  C_9
REMARK    5  A    between atoms: C_9  and  C_10
REMARK    6  A    between atoms: C_10  and  N_11
REMARK    7  A    between atoms: C_14  and  C_15
REMARK    8  A    between atoms: C_15  and  C_16
REMARK                            x       y       z     vdW  Elec       q    Type
REMARK                         _______ _______ _______ _____ _____    ______ ____
ROOT
ATOM      1  O   UNL     1       9.049   9.322  18.926  0.00  0.00    +0.000 OA
ENDROOT
BRANCH   1   5
ATOM      2  C   UNL     1      10.273  13.234  19.608  0.00  0.00    +0.000 A 
ATOM      3  C   UNL     1       9.926  12.344  20.645  0.00  0.00    +0.000 A 
ATOM      4  C   UNL     1       9.456  11.075  20.359  0.00  0.00    +0.000 A 
ATOM      5  C   UNL     1       9.450  10.617  19.049  0.00  0.00    +0.000 A 
ATOM      6  C   UNL     1       9.892  11.453  18.018  0.00  0.00    +0.000 A 
ATOM      7  C   UNL     1      10.290  12.763  18.301  0.00  0.00    +0.000 A 
BRANCH   2   9
ATOM      8  O   UNL     1      11.753  14.990  20.063  0.00  0.00    +0.000 OA
ATOM      9  C   UNL     1      10.570  14.670  19.883  0.00  0.00    +0.000 C 
ATOM     10  N   UNL     1       9.517  15.571  19.886  0.00  0.00    +0.000 N 
ATOM     11  C   UNL     1       9.728  16.992  20.158  0.00  0.00    +0.000 C 
ATOM     12  C   UNL     1       9.216  17.855  18.982  0.00  0.00    +0.000 C 
ATOM     13  N   UNL     1       7.816  17.559  18.602  0.00  0.00    +0.000 NA
ATOM     14  C   UNL     1       7.694  16.137  18.291  0.00  0.00    +0.000 C 
ATOM     15  C   UNL     1       8.149  15.263  19.449  0.00  0.00    +0.000 C 
ATOM     16  H   UNL     1       7.569  18.095  17.768  0.00  0.00    +0.000 HD
ENDBRANCH   2   9
ENDBRANCH   1   5
BRANCH   1  17
ATOM     17  C   UNL     1       8.078   9.062  17.918  0.00  0.00    +0.000 C 
BRANCH  17  18
ATOM     18  C   UNL     1       7.587   7.639  18.139  0.00  0.00    +0.000 C 
BRANCH  18  19
ATOM     19  C   UNL     1       7.351   6.909  16.816  0.00  0.00    +0.000 C 
BRANCH  19  20
ATOM     20  N   UNL     1       6.730   5.582  16.975  0.00  0.00    +0.000 NA
ATOM     21  C   UNL     1       6.191   5.392  18.333  0.00  0.00    +0.000 C 
ATOM     22  C   UNL     1       5.559   4.011  18.487  0.00  0.00    +0.000 C 
ATOM     23  C   UNL     1       4.424   3.800  17.479  0.00  0.00    +0.000 C 
ATOM     24  C   UNL     1       5.017   4.006  16.076  0.00  0.00    +0.000 C 
ATOM     25  C   UNL     1       5.709   5.368  15.935  0.00  0.00    +0.000 C 
BRANCH  23  26
ATOM     26  C   UNL     1       3.210   4.730  17.695  0.00  0.00    +0.000 C 
BRANCH  26  27
ATOM     27  C   UNL     1       2.131   4.126  18.523  0.00  0.00    +0.000 A 
ATOM     28  C   UNL     1       1.601   4.566  19.715  0.00  0.00    +0.000 A 
ATOM     29  N   UNL     1       0.647   3.646  20.044  0.00  0.00    +0.000 N 
ATOM     30  C   UNL     1       0.634   2.696  19.064  0.00  0.00    +0.000 A 
ATOM     31  N   UNL     1       1.526   2.953  18.136  0.00  0.00    +0.000 NA
ATOM     32  H   UNL     1       0.055   3.662  20.864  0.00  0.00    +0.000 HD
ENDBRANCH  26  27
ENDBRANCH  23  26
ENDBRANCH  19  20
ENDBRANCH  18  19
ENDBRANCH  17  18
ENDBRANCH   1  17
TORSDOF 8
ENDMDL
