MODEL 1
REMARK VINA RESULT:      -5.4      0.000      0.000
REMARK  Name = 
REMARK  5 active torsions:
REMARK  status: ('A' for Active; 'I' for Inactive)
REMARK    1  A    between atoms: C_1  and  C_2
REMARK    2  A    between atoms: C_2  and  O_3
REMARK    3  A    between atoms: O_3  and  C_4
REMARK    4  A    between atoms: C_4  and  C_6
REMARK    5  A    between atoms: C_6  and  N_7
REMARK                            x       y       z     vdW  Elec       q    Type
REMARK                         _______ _______ _______ _____ _____    ______ ____
ROOT
ATOM      1  C   UNL     1       6.037   5.082  15.892  0.00  0.00    +0.000 C 
ENDROOT
BRANCH   1   2
ATOM      2  N   UNL     1       6.371   4.289  17.083  0.00  0.00    +0.000 NA
ATOM      3  C   UNL     1       5.316   4.203  18.103  0.00  0.00    +0.000 C 
ATOM      4  C   UNL     1       5.365   5.299  19.181  0.00  0.00    +0.000 C 
ATOM      5  O   UNL     1       6.667   5.397  19.771  0.00  0.00    +0.000 OA
ATOM      6  C   UNL     1       7.655   5.672  18.772  0.00  0.00    +0.000 C 
ATOM      7  C   UNL     1       7.675   4.583  17.690  0.00  0.00    +0.000 C 
ENDBRANCH   1   2
BRANCH   1   8
ATOM      8  C   UNL     1       6.825   4.794  14.627  0.00  0.00    +0.000 C 
ATOM      9  O   UNL     1       7.729   5.501  14.202  0.00  0.00    +0.000 OA
BRANCH   8  10
ATOM     10  O   UNL     1       6.331   3.687  13.998  0.00  0.00    +0.000 OA
BRANCH  10  12
ATOM     11  C   UNL     1       5.106   3.297  11.985  0.00  0.00    +0.000 C 
ATOM     12  C   UNL     1       6.457   3.681  12.569  0.00  0.00    +0.000 C 
ENDBRANCH  10  12
ENDBRANCH   8  10
ENDBRANCH   1   8
TORSDOF 4
ENDMDL
MODEL 2
REMARK VINA RESULT:      -5.1      0.777      1.570
REMARK  Name = 
REMARK  5 active torsions:
REMARK  status: ('A' for Active; 'I' for Inactive)
REMARK    1  A    between atoms: C_1  and  C_2
REMARK    2  A    between atoms: C_2  and  O_3
REMARK    3  A    between atoms: O_3  and  C_4
REMARK    4  A    between atoms: C_4  and  C_6
REMARK    5  A    between atoms: C_6  and  N_7
REMARK                            x       y       z     vdW  Elec       q    Type
REMARK                         _______ _______ _______ _____ _____    ______ ____
ROOT
ATOM      1  C   UNL     1       6.576   4.393  15.977  0.00  0.00    +0.000 C 
ENDROOT
BRANCH   1   2
ATOM      2  N   UNL     1       6.229   5.501  16.877  0.00  0.00    +0.000 NA
ATOM      3  C   UNL     1       7.361   6.135  17.567  0.00  0.00    +0.000 C 
ATOM      4  C   UNL     1       7.714   5.524  18.934  0.00  0.00    +0.000 C 
ATOM      5  O   UNL     1       6.561   5.431  19.779  0.00  0.00    +0.000 OA
ATOM      6  C   UNL     1       5.539   4.643  19.158  0.00  0.00    +0.000 C 
ATOM      7  C   UNL     1       5.122   5.236  17.805  0.00  0.00    +0.000 C 
ENDBRANCH   1   2
BRANCH   1   8
ATOM      8  C   UNL     1       6.791   4.734  14.513  0.00  0.00    +0.000 C 
ATOM      9  O   UNL     1       7.687   5.457  14.098  0.00  0.00    +0.000 OA
BRANCH   8  10
ATOM     10  O   UNL     1       5.803   4.186  13.745  0.00  0.00    +0.000 OA
BRANCH  10  12
ATOM     11  C   UNL     1       5.010   3.097  11.772  0.00  0.00    +0.000 C 
ATOM     12  C   UNL     1       6.245   3.516  12.556  0.00  0.00    +0.000 C 
ENDBRANCH  10  12
ENDBRANCH   8  10
ENDBRANCH   1   8
TORSDOF 4
ENDMDL
MODEL 3
REMARK VINA RESULT:      -4.9      1.480      1.979
REMARK  Name = 
REMARK  5 active torsions:
REMARK  status: ('A' for Active; 'I' for Inactive)
REMARK    1  A    between atoms: C_1  and  C_2
REMARK    2  A    between atoms: C_2  and  O_3
REMARK    3  A    between atoms: O_3  and  C_4
REMARK    4  A    between atoms: C_4  and  C_6
REMARK    5  A    between atoms: C_6  and  N_7
REMARK                            x       y       z     vdW  Elec       q    Type
REMARK                         _______ _______ _______ _____ _____    ______ ____
ROOT
ATOM      1  C   UNL     1       6.334   4.336  16.330  0.00  0.00    +0.000 C 
ENDROOT
BRANCH   1   2
ATOM      2  N   UNL     1       4.975   4.685  16.766  0.00  0.00    +0.000 NA
ATOM      3  C   UNL     1       4.883   5.797  17.723  0.00  0.00    +0.000 C 
ATOM      4  C   UNL     1       4.935   5.386  19.204  0.00  0.00    +0.000 C 
ATOM      5  O   UNL     1       3.985   4.353  19.495  0.00  0.00    +0.000 OA
ATOM      6  C   UNL     1       4.220   3.203  18.676  0.00  0.00    +0.000 C 
ATOM      7  C   UNL     1       4.138   3.553  17.183  0.00  0.00    +0.000 C 
ENDBRANCH   1   2
BRANCH   1   8
ATOM      8  C   UNL     1       6.691   4.626  14.883  0.00  0.00    +0.000 C 
ATOM      9  O   UNL     1       7.630   5.329  14.532  0.00  0.00    +0.000 OA
BRANCH   8  10
ATOM     10  O   UNL     1       5.775   4.061  14.042  0.00  0.00    +0.000 OA
BRANCH  10  12
ATOM     11  C   UNL     1       5.103   3.211  11.913  0.00  0.00    +0.000 C 
ATOM     12  C   UNL     1       6.287   3.623  12.775  0.00  0.00    +0.000 C 
ENDBRANCH  10  12
ENDBRANCH   8  10
ENDBRANCH   1   8
TORSDOF 4
ENDMDL
MODEL 4
REMARK VINA RESULT:      -4.9      3.202      5.065
REMARK  Name = 
REMARK  5 active torsions:
REMARK  status: ('A' for Active; 'I' for Inactive)
REMARK    1  A    between atoms: C_1  and  C_2
REMARK    2  A    between atoms: C_2  and  O_3
REMARK    3  A    between atoms: O_3  and  C_4
REMARK    4  A    between atoms: C_4  and  C_6
REMARK    5  A    between atoms: C_6  and  N_7
REMARK                            x       y       z     vdW  Elec       q    Type
REMARK                         _______ _______ _______ _____ _____    ______ ____
ROOT
ATOM      1  C   UNL     1       3.919   4.106  17.098  0.00  0.00    +0.000 C 
ENDROOT
BRANCH   1   2
ATOM      2  N   UNL     1       5.370   3.891  17.012  0.00  0.00    +0.000 NA
ATOM      3  C   UNL     1       6.193   4.782  17.842  0.00  0.00    +0.000 C 
ATOM      4  C   UNL     1       6.642   6.081  17.151  0.00  0.00    +0.000 C 
ATOM      5  O   UNL     1       7.257   5.815  15.885  0.00  0.00    +0.000 OA
ATOM      6  C   UNL     1       6.358   5.108  15.024  0.00  0.00    +0.000 C 
ATOM      7  C   UNL     1       5.911   3.780  15.652  0.00  0.00    +0.000 C 
ENDBRANCH   1   2
BRANCH   1   8
ATOM      8  C   UNL     1       3.078   2.952  17.612  0.00  0.00    +0.000 C 
ATOM      9  O   UNL     1       3.524   1.849  17.902  0.00  0.00    +0.000 OA
BRANCH   8  10
ATOM     10  O   UNL     1       1.755   3.294  17.628  0.00  0.00    +0.000 OA
BRANCH  10  12
ATOM     11  C   UNL     1       1.034   3.563  19.890  0.00  0.00    +0.000 C 
ATOM     12  C   UNL     1       0.970   2.675  18.656  0.00  0.00    +0.000 C 
ENDBRANCH  10  12
ENDBRANCH   8  10
ENDBRANCH   1   8
TORSDOF 4
ENDMDL
MODEL 5
REMARK VINA RESULT:      -4.9      1.244      1.756
REMARK  Name = 
REMARK  5 active torsions:
REMARK  status: ('A' for Active; 'I' for Inactive)
REMARK    1  A    between atoms: C_1  and  C_2
REMARK    2  A    between atoms: C_2  and  O_3
REMARK    3  A    between atoms: O_3  and  C_4
REMARK    4  A    between atoms: C_4  and  C_6
REMARK    5  A    between atoms: C_6  and  N_7
REMARK                            x       y       z     vdW  Elec       q    Type
REMARK                         _______ _______ _______ _____ _____    ______ ____
ROOT
ATOM      1  C   UNL     1       6.880   4.465  16.072  0.00  0.00    +0.000 C 
ENDROOT
BRANCH   1   2
ATOM      2  N   UNL     1       6.626   5.598  16.971  0.00  0.00    +0.000 NA
ATOM      3  C   UNL     1       6.734   5.304  18.407  0.00  0.00    +0.000 C 
ATOM      4  C   UNL     1       5.425   4.857  19.079  0.00  0.00    +0.000 C 
ATOM      5  O   UNL     1       4.356   5.770  18.803  0.00  0.00    +0.000 OA
ATOM      6  C   UNL     1       4.146   5.892  17.392  0.00  0.00    +0.000 C 
ATOM      7  C   UNL     1       5.416   6.376  16.678  0.00  0.00    +0.000 C 
ENDBRANCH   1   2
BRANCH   1   8
ATOM      8  C   UNL     1       6.976   4.769  14.588  0.00  0.00    +0.000 C 
ATOM      9  O   UNL     1       7.822   5.497  14.086  0.00  0.00    +0.000 OA
BRANCH   8  10
ATOM     10  O   UNL     1       5.945   4.180  13.912  0.00  0.00    +0.000 OA
BRANCH  10  12
ATOM     11  C   UNL     1       5.000   3.310  11.898  0.00  0.00    +0.000 C 
ATOM     12  C   UNL     1       6.291   3.584  12.654  0.00  0.00    +0.000 C 
ENDBRANCH  10  12
ENDBRANCH   8  10
ENDBRANCH   1   8
TORSDOF 4
ENDMDL
MODEL 6
REMARK VINA RESULT:      -4.8      2.862      4.218
REMARK  Name = 
REMARK  5 active torsions:
REMARK  status: ('A' for Active; 'I' for Inactive)
REMARK    1  A    between atoms: C_1  and  C_2
REMARK    2  A    between atoms: C_2  and  O_3
REMARK    3  A    between atoms: O_3  and  C_4
REMARK    4  A    between atoms: C_4  and  C_6
REMARK    5  A    between atoms: C_6  and  N_7
REMARK                            x       y       z     vdW  Elec       q    Type
REMARK                         _______ _______ _______ _____ _____    ______ ____
ROOT
ATOM      1  C   UNL     1       5.782   4.944  17.047  0.00  0.00    +0.000 C 
ENDROOT
BRANCH   1   2
ATOM      2  N   UNL     1       5.111   4.141  18.078  0.00  0.00    +0.000 NA
ATOM      3  C   UNL     1       4.015   3.286  17.601  0.00  0.00    +0.000 C 
ATOM      4  C   UNL     1       2.623   3.941  17.623  0.00  0.00    +0.000 C 
ATOM      5  O   UNL     1       2.333   4.512  18.905  0.00  0.00    +0.000 OA
ATOM      6  C   UNL     1       3.320   5.486  19.261  0.00  0.00    +0.000 C 
ATOM      7  C   UNL     1       4.726   4.871  19.293  0.00  0.00    +0.000 C 
ENDBRANCH   1   2
BRANCH   1   8
ATOM      8  C   UNL     1       7.279   5.150  17.198  0.00  0.00    +0.000 C 
ATOM      9  O   UNL     1       8.033   4.357  17.746  0.00  0.00    +0.000 OA
BRANCH   8  10
ATOM     10  O   UNL     1       7.645   6.372  16.708  0.00  0.00    +0.000 OA
BRANCH  10  12
ATOM     11  C   UNL     1       8.089   8.423  17.848  0.00  0.00    +0.000 C 
ATOM     12  C   UNL     1       7.002   7.500  17.318  0.00  0.00    +0.000 C 
ENDBRANCH  10  12
ENDBRANCH   8  10
ENDBRANCH   1   8
TORSDOF 4
ENDMDL
MODEL 7
REMARK VINA RESULT:      -4.8      2.547      4.212
REMARK  Name = 
REMARK  5 active torsions:
REMARK  status: ('A' for Active; 'I' for Inactive)
REMARK    1  A    between atoms: C_1  and  C_2
REMARK    2  A    between atoms: C_2  and  O_3
REMARK    3  A    between atoms: O_3  and  C_4
REMARK    4  A    between atoms: C_4  and  C_6
REMARK    5  A    between atoms: C_6  and  N_7
REMARK                            x       y       z     vdW  Elec       q    Type
REMARK                         _______ _______ _______ _____ _____    ______ ____
ROOT
ATOM      1  C   UNL     1       5.499   4.215  16.707  0.00  0.00    +0.000 C 
ENDROOT
BRANCH   1   2
ATOM      2  N   UNL     1       4.337   4.395  17.589  0.00  0.00    +0.000 NA
ATOM      3  C   UNL     1       4.611   4.279  19.028  0.00  0.00    +0.000 C 
ATOM      4  C   UNL     1       4.459   2.862  19.606  0.00  0.00    +0.000 C 
ATOM      5  O   UNL     1       3.194   2.287  19.257  0.00  0.00    +0.000 OA
ATOM      6  C   UNL     1       3.035   2.237  17.835  0.00  0.00    +0.000 C 
ATOM      7  C   UNL     1       3.138   3.637  17.213  0.00  0.00    +0.000 C 
ENDBRANCH   1   2
BRANCH   1   8
ATOM      8  C   UNL     1       6.111   5.468  16.107  0.00  0.00    +0.000 C 
ATOM      9  O   UNL     1       5.590   6.135  15.223  0.00  0.00    +0.000 OA
BRANCH   8  10
ATOM     10  O   UNL     1       7.350   5.695  16.635  0.00  0.00    +0.000 OA
BRANCH  10  12
ATOM     11  C   UNL     1       7.859   6.082  18.938  0.00  0.00    +0.000 C 
ATOM     12  C   UNL     1       7.418   6.725  17.631  0.00  0.00    +0.000 C 
ENDBRANCH  10  12
ENDBRANCH   8  10
ENDBRANCH   1   8
TORSDOF 4
ENDMDL
MODEL 8
REMARK VINA RESULT:      -4.8      2.959      5.326
REMARK  Name = 
REMARK  5 active torsions:
REMARK  status: ('A' for Active; 'I' for Inactive)
REMARK    1  A    between atoms: C_1  and  C_2
REMARK    2  A    between atoms: C_2  and  O_3
REMARK    3  A    between atoms: O_3  and  C_4
REMARK    4  A    between atoms: C_4  and  C_6
REMARK    5  A    between atoms: C_6  and  N_7
REMARK                            x       y       z     vdW  Elec       q    Type
REMARK                         _______ _______ _______ _____ _____    ______ ____
ROOT
ATOM      1  C   UNL     1       4.054   3.662  17.373  0.00  0.00    +0.000 C 
ENDROOT
BRANCH   1   2
ATOM      2  N   UNL     1       4.822   4.844  16.959  0.00  0.00    +0.000 NA
ATOM      3  C   UNL     1       5.264   4.852  15.557  0.00  0.00    +0.000 C 
ATOM      4  C   UNL     1       6.649   4.230  15.310  0.00  0.00    +0.000 C 
ATOM      5  O   UNL     1       7.638   4.789  16.183  0.00  0.00    +0.000 OA
ATOM      6  C   UNL     1       7.271   4.596  17.553  0.00  0.00    +0.000 C 
ATOM      7  C   UNL     1       5.910   5.236  17.863  0.00  0.00    +0.000 C 
ENDBRANCH   1   2
BRANCH   1   8
ATOM      8  C   UNL     1       2.649   3.899  17.896  0.00  0.00    +0.000 C 
ATOM      9  O   UNL     1       1.633   3.775  17.225  0.00  0.00    +0.000 OA
BRANCH   8  10
ATOM     10  O   UNL     1       2.688   4.343  19.188  0.00  0.00    +0.000 OA
BRANCH  10  12
ATOM     11  C   UNL     1       1.311   3.314  20.846  0.00  0.00    +0.000 C 
ATOM     12  C   UNL     1       2.685   3.320  20.193  0.00  0.00    +0.000 C 
ENDBRANCH  10  12
ENDBRANCH   8  10
ENDBRANCH   1   8
TORSDOF 4
ENDMDL
MODEL 9
REMARK VINA RESULT:      -4.8      2.760      5.165
REMARK  Name = 
REMARK  5 active torsions:
REMARK  status: ('A' for Active; 'I' for Inactive)
REMARK    1  A    between atoms: C_1  and  C_2
REMARK    2  A    between atoms: C_2  and  O_3
REMARK    3  A    between atoms: O_3  and  C_4
REMARK    4  A    between atoms: C_4  and  C_6
REMARK    5  A    between atoms: C_6  and  N_7
REMARK                            x       y       z     vdW  Elec       q    Type
REMARK                         _______ _______ _______ _____ _____    ______ ____
ROOT
ATOM      1  C   UNL     1       4.521   5.072  18.880  0.00  0.00    +0.000 C 
ENDROOT
BRANCH   1   2
ATOM      2  N   UNL     1       4.828   5.332  17.467  0.00  0.00    +0.000 NA
ATOM      3  C   UNL     1       5.758   4.384  16.836  0.00  0.00    +0.000 C 
ATOM      4  C   UNL     1       7.243   4.773  16.926  0.00  0.00    +0.000 C 
ATOM      5  O   UNL     1       7.462   6.114  16.471  0.00  0.00    +0.000 OA
ATOM      6  C   UNL     1       6.682   7.041  17.234  0.00  0.00    +0.000 C 
ATOM      7  C   UNL     1       5.184   6.720  17.144  0.00  0.00    +0.000 C 
ENDBRANCH   1   2
BRANCH   1   8
ATOM      8  C   UNL     1       4.118   3.656  19.250  0.00  0.00    +0.000 C 
ATOM      9  O   UNL     1       4.865   2.843  19.778  0.00  0.00    +0.000 OA
BRANCH   8  10
ATOM     10  O   UNL     1       2.840   3.400  18.840  0.00  0.00    +0.000 OA
BRANCH  10  12
ATOM     11  C   UNL     1       1.161   3.839  20.482  0.00  0.00    +0.000 C 
ATOM     12  C   UNL     1       1.858   4.368  19.237  0.00  0.00    +0.000 C 
ENDBRANCH  10  12
ENDBRANCH   8  10
ENDBRANCH   1   8
TORSDOF 4
ENDMDL
