MODEL 1
REMARK VINA RESULT:      -7.1      0.000      0.000
REMARK  Name = 
REMARK  6 active torsions:
REMARK  status: ('A' for Active; 'I' for Inactive)
REMARK    1  A    between atoms: C_1  and  C_2
REMARK    2  A    between atoms: C_2  and  N_3
REMARK    3  A    between atoms: C_6  and  C_7
REMARK    4  A    between atoms: C_6  and  C_8
REMARK    5  A    between atoms: C_11  and  N_12
REMARK    6  A    between atoms: C_13  and  C_15
REMARK                            x       y       z     vdW  Elec       q    Type
REMARK                         _______ _______ _______ _____ _____    ______ ____
ROOT
ATOM      1  N   UNL     1       3.581   4.520  18.562  0.00  0.00    +0.000 N 
ATOM      2  C   UNL     1       3.114   3.440  19.328  0.00  0.00    +0.000 C 
ATOM      3  O   UNL     1       3.463   2.272  19.231  0.00  0.00    +0.000 OA
ATOM      4  C   UNL     1       2.076   3.995  20.324  0.00  0.00    +0.000 C 
ATOM      5  C   UNL     1       2.557   3.803  21.761  0.00  0.00    +0.000 C 
ATOM      6  C   UNL     1       0.714   3.348  20.080  0.00  0.00    +0.000 C 
ATOM      7  C   UNL     1       2.056   5.455  19.959  0.00  0.00    +0.000 A 
ATOM      8  C   UNL     1       1.300   6.459  20.542  0.00  0.00    +0.000 A 
ATOM      9  C   UNL     1       1.444   7.769  20.093  0.00  0.00    +0.000 A 
ATOM     10  C   UNL     1       2.324   8.029  19.019  0.00  0.00    +0.000 A 
ATOM     11  C   UNL     1       3.087   6.998  18.430  0.00  0.00    +0.000 A 
ATOM     12  C   UNL     1       2.944   5.715  18.922  0.00  0.00    +0.000 A 
ENDROOT
BRANCH   9  13
ATOM     13  N   UNL     1       0.738   8.839  20.682  0.00  0.00    +0.000 N 
ATOM     14  C   UNL     1       1.046   9.457  21.888  0.00  0.00    +0.000 C 
ATOM     15  O   UNL     1       2.014   9.194  22.595  0.00  0.00    +0.000 OA
ATOM     16  H   UNL     1      -0.029   9.251  20.162  0.00  0.00    +0.000 HD
BRANCH  14  17
ATOM     17  C   UNL     1       0.126  10.511  22.266  0.00  0.00    +0.000 A 
ATOM     18  C   UNL     1      -1.006  10.463  23.059  0.00  0.00    +0.000 A 
ATOM     19  C   UNL     1      -1.528  11.774  23.103  0.00  0.00    +0.000 A 
ATOM     20  C   UNL     1      -0.690  12.543  22.331  0.00  0.00    +0.000 A 
ATOM     21  O   UNL     1       0.321  11.792  21.819  0.00  0.00    +0.000 OA
ENDBRANCH  14  17
ENDBRANCH   9  13
BRANCH   1  23
ATOM     22  C   UNL     1       5.972   4.620  17.993  0.00  0.00    +0.000 C 
ATOM     23  C   UNL     1       4.555   4.365  17.507  0.00  0.00    +0.000 C 
ENDBRANCH   1  23
TORSDOF 3
ENDMDL
MODEL 2
REMARK VINA RESULT:      -7.0      1.196      1.301
REMARK  Name = 
REMARK  6 active torsions:
REMARK  status: ('A' for Active; 'I' for Inactive)
REMARK    1  A    between atoms: C_1  and  C_2
REMARK    2  A    between atoms: C_2  and  N_3
REMARK    3  A    between atoms: C_6  and  C_7
REMARK    4  A    between atoms: C_6  and  C_8
REMARK    5  A    between atoms: C_11  and  N_12
REMARK    6  A    between atoms: C_13  and  C_15
REMARK                            x       y       z     vdW  Elec       q    Type
REMARK                         _______ _______ _______ _____ _____    ______ ____
ROOT
ATOM      1  N   UNL     1       3.952   3.812  18.470  0.00  0.00    +0.000 N 
ATOM      2  C   UNL     1       3.331   2.651  18.959  0.00  0.00    +0.000 C 
ATOM      3  O   UNL     1       3.624   1.496  18.685  0.00  0.00    +0.000 OA
ATOM      4  C   UNL     1       2.205   3.097  19.913  0.00  0.00    +0.000 C 
ATOM      5  C   UNL     1       2.486   2.613  21.335  0.00  0.00    +0.000 C 
ATOM      6  C   UNL     1       0.853   2.614  19.395  0.00  0.00    +0.000 C 
ATOM      7  C   UNL     1       2.314   4.596  19.831  0.00  0.00    +0.000 A 
ATOM      8  C   UNL     1       1.547   5.536  20.500  0.00  0.00    +0.000 A 
ATOM      9  C   UNL     1       1.820   6.889  20.326  0.00  0.00    +0.000 A 
ATOM     10  C   UNL     1       2.844   7.268  19.430  0.00  0.00    +0.000 A 
ATOM     11  C   UNL     1       3.619   6.304  18.750  0.00  0.00    +0.000 A 
ATOM     12  C   UNL     1       3.342   4.968  18.972  0.00  0.00    +0.000 A 
ENDROOT
BRANCH   9  13
ATOM     13  N   UNL     1       1.104   7.888  21.020  0.00  0.00    +0.000 N 
ATOM     14  C   UNL     1       0.701   9.114  20.505  0.00  0.00    +0.000 C 
ATOM     15  O   UNL     1       0.868   9.488  19.347  0.00  0.00    +0.000 OA
ATOM     16  H   UNL     1       0.788   7.683  21.962  0.00  0.00    +0.000 HD
BRANCH  14  17
ATOM     17  C   UNL     1       0.007   9.957  21.456  0.00  0.00    +0.000 A 
ATOM     18  C   UNL     1      -0.538   9.648  22.688  0.00  0.00    +0.000 A 
ATOM     19  C   UNL     1      -1.095  10.841  23.199  0.00  0.00    +0.000 A 
ATOM     20  C   UNL     1      -0.863  11.806  22.247  0.00  0.00    +0.000 A 
ATOM     21  O   UNL     1      -0.192  11.286  21.185  0.00  0.00    +0.000 OA
ENDBRANCH  14  17
ENDBRANCH   9  13
BRANCH   1  23
ATOM     22  C   UNL     1       4.612   4.194  16.131  0.00  0.00    +0.000 C 
ATOM     23  C   UNL     1       5.045   3.773  17.525  0.00  0.00    +0.000 C 
ENDBRANCH   1  23
TORSDOF 3
ENDMDL
MODEL 3
REMARK VINA RESULT:      -7.0      2.444      3.927
REMARK  Name = 
REMARK  6 active torsions:
REMARK  status: ('A' for Active; 'I' for Inactive)
REMARK    1  A    between atoms: C_1  and  C_2
REMARK    2  A    between atoms: C_2  and  N_3
REMARK    3  A    between atoms: C_6  and  C_7
REMARK    4  A    between atoms: C_6  and  C_8
REMARK    5  A    between atoms: C_11  and  N_12
REMARK    6  A    between atoms: C_13  and  C_15
REMARK                            x       y       z     vdW  Elec       q    Type
REMARK                         _______ _______ _______ _____ _____    ______ ____
ROOT
ATOM      1  N   UNL     1       5.723   4.350  16.487  0.00  0.00    +0.000 N 
ATOM      2  C   UNL     1       6.988   4.849  16.835  0.00  0.00    +0.000 C 
ATOM      3  O   UNL     1       8.059   4.538  16.334  0.00  0.00    +0.000 OA
ATOM      4  C   UNL     1       6.783   5.872  17.971  0.00  0.00    +0.000 C 
ATOM      5  C   UNL     1       7.214   7.267  17.518  0.00  0.00    +0.000 C 
ATOM      6  C   UNL     1       7.523   5.419  19.228  0.00  0.00    +0.000 C 
ATOM      7  C   UNL     1       5.292   5.813  18.167  0.00  0.00    +0.000 A 
ATOM      8  C   UNL     1       4.531   6.541  19.067  0.00  0.00    +0.000 A 
ATOM      9  C   UNL     1       3.149   6.378  19.078  0.00  0.00    +0.000 A 
ATOM     10  C   UNL     1       2.565   5.436  18.204  0.00  0.00    +0.000 A 
ATOM     11  C   UNL     1       3.349   4.696  17.293  0.00  0.00    +0.000 A 
ATOM     12  C   UNL     1       4.715   4.907  17.285  0.00  0.00    +0.000 A 
ENDROOT
BRANCH   9  13
ATOM     13  N   UNL     1       2.319   7.130  19.938  0.00  0.00    +0.000 N 
ATOM     14  C   UNL     1       1.756   8.369  19.656  0.00  0.00    +0.000 C 
ATOM     15  O   UNL     1       1.858   8.970  18.590  0.00  0.00    +0.000 OA
ATOM     16  H   UNL     1       2.044   6.715  20.822  0.00  0.00    +0.000 HD
BRANCH  14  17
ATOM     17  C   UNL     1       0.971   8.924  20.739  0.00  0.00    +0.000 A 
ATOM     18  C   UNL     1       1.118   8.787  22.107  0.00  0.00    +0.000 A 
ATOM     19  C   UNL     1       0.085   9.539  22.706  0.00  0.00    +0.000 A 
ATOM     20  C   UNL     1      -0.636  10.086  21.671  0.00  0.00    +0.000 A 
ATOM     21  O   UNL     1      -0.108   9.726  20.471  0.00  0.00    +0.000 OA
ENDBRANCH  14  17
ENDBRANCH   9  13
BRANCH   1  23
ATOM     22  C   UNL     1       5.592   3.935  14.065  0.00  0.00    +0.000 C 
ATOM     23  C   UNL     1       5.535   3.346  15.465  0.00  0.00    +0.000 C 
ENDBRANCH   1  23
TORSDOF 3
ENDMDL
MODEL 4
REMARK VINA RESULT:      -7.0      2.496      2.745
REMARK  Name = 
REMARK  6 active torsions:
REMARK  status: ('A' for Active; 'I' for Inactive)
REMARK    1  A    between atoms: C_1  and  C_2
REMARK    2  A    between atoms: C_2  and  N_3
REMARK    3  A    between atoms: C_6  and  C_7
REMARK    4  A    between atoms: C_6  and  C_8
REMARK    5  A    between atoms: C_11  and  N_12
REMARK    6  A    between atoms: C_13  and  C_15
REMARK                            x       y       z     vdW  Elec       q    Type
REMARK                         _______ _______ _______ _____ _____    ______ ____
ROOT
ATOM      1  N   UNL     1       5.118   4.745  18.521  0.00  0.00    +0.000 N 
ATOM      2  C   UNL     1       4.386   3.751  19.190  0.00  0.00    +0.000 C 
ATOM      3  O   UNL     1       4.803   2.664  19.563  0.00  0.00    +0.000 OA
ATOM      4  C   UNL     1       2.950   4.281  19.373  0.00  0.00    +0.000 C 
ATOM      5  C   UNL     1       2.621   4.432  20.857  0.00  0.00    +0.000 C 
ATOM      6  C   UNL     1       1.957   3.373  18.651  0.00  0.00    +0.000 C 
ATOM      7  C   UNL     1       3.036   5.628  18.707  0.00  0.00    +0.000 A 
ATOM      8  C   UNL     1       2.029   6.571  18.577  0.00  0.00    +0.000 A 
ATOM      9  C   UNL     1       2.308   7.786  17.958  0.00  0.00    +0.000 A 
ATOM     10  C   UNL     1       3.601   8.003  17.435  0.00  0.00    +0.000 A 
ATOM     11  C   UNL     1       4.620   7.036  17.569  0.00  0.00    +0.000 A 
ATOM     12  C   UNL     1       4.318   5.854  18.219  0.00  0.00    +0.000 A 
ENDROOT
BRANCH   9  13
ATOM     13  N   UNL     1       1.335   8.802  17.843  0.00  0.00    +0.000 N 
ATOM     14  C   UNL     1       0.813   9.558  18.886  0.00  0.00    +0.000 C 
ATOM     15  O   UNL     1       1.162   9.485  20.060  0.00  0.00    +0.000 OA
ATOM     16  H   UNL     1       1.024   9.063  16.914  0.00  0.00    +0.000 HD
BRANCH  14  17
ATOM     17  C   UNL     1      -0.199  10.511  18.478  0.00  0.00    +0.000 A 
ATOM     18  C   UNL     1      -1.417  10.306  17.857  0.00  0.00    +0.000 A 
ATOM     19  C   UNL     1      -2.009  11.577  17.691  0.00  0.00    +0.000 A 
ATOM     20  C   UNL     1      -1.116  12.483  18.214  0.00  0.00    +0.000 A 
ATOM     21  O   UNL     1      -0.014  11.851  18.699  0.00  0.00    +0.000 OA
ENDBRANCH  14  17
ENDBRANCH   9  13
BRANCH   1  23
ATOM     22  C   UNL     1       7.421   5.489  18.967  0.00  0.00    +0.000 C 
ATOM     23  C   UNL     1       6.508   4.581  18.160  0.00  0.00    +0.000 C 
ENDBRANCH   1  23
TORSDOF 3
ENDMDL
MODEL 5
REMARK VINA RESULT:      -7.0      3.551      7.996
REMARK  Name = 
REMARK  6 active torsions:
REMARK  status: ('A' for Active; 'I' for Inactive)
REMARK    1  A    between atoms: C_1  and  C_2
REMARK    2  A    between atoms: C_2  and  N_3
REMARK    3  A    between atoms: C_6  and  C_7
REMARK    4  A    between atoms: C_6  and  C_8
REMARK    5  A    between atoms: C_11  and  N_12
REMARK    6  A    between atoms: C_13  and  C_15
REMARK                            x       y       z     vdW  Elec       q    Type
REMARK                         _______ _______ _______ _____ _____    ______ ____
ROOT
ATOM      1  N   UNL     1       2.242   5.012  20.385  0.00  0.00    +0.000 N 
ATOM      2  C   UNL     1       2.225   3.660  20.763  0.00  0.00    +0.000 C 
ATOM      3  O   UNL     1       1.685   3.185  21.752  0.00  0.00    +0.000 OA
ATOM      4  C   UNL     1       3.013   2.874  19.697  0.00  0.00    +0.000 C 
ATOM      5  C   UNL     1       2.099   1.883  18.978  0.00  0.00    +0.000 C 
ATOM      6  C   UNL     1       4.220   2.188  20.333  0.00  0.00    +0.000 C 
ATOM      7  C   UNL     1       3.444   3.974  18.765  0.00  0.00    +0.000 A 
ATOM      8  C   UNL     1       4.185   3.852  17.600  0.00  0.00    +0.000 A 
ATOM      9  C   UNL     1       4.456   4.987  16.842  0.00  0.00    +0.000 A 
ATOM     10  C   UNL     1       4.009   6.242  17.309  0.00  0.00    +0.000 A 
ATOM     11  C   UNL     1       3.257   6.358  18.498  0.00  0.00    +0.000 A 
ATOM     12  C   UNL     1       2.977   5.206  19.209  0.00  0.00    +0.000 A 
ENDROOT
BRANCH   9  13
ATOM     13  N   UNL     1       5.163   4.915  15.623  0.00  0.00    +0.000 N 
ATOM     14  C   UNL     1       6.541   4.810  15.480  0.00  0.00    +0.000 C 
ATOM     15  O   UNL     1       7.345   4.712  16.403  0.00  0.00    +0.000 OA
ATOM     16  H   UNL     1       4.629   4.869  14.762  0.00  0.00    +0.000 HD
BRANCH  14  17
ATOM     17  C   UNL     1       6.995   4.787  14.105  0.00  0.00    +0.000 A 
ATOM     18  C   UNL     1       6.609   3.976  13.053  0.00  0.00    +0.000 A 
ATOM     19  C   UNL     1       7.365   4.377  11.931  0.00  0.00    +0.000 A 
ATOM     20  C   UNL     1       8.171   5.404  12.363  0.00  0.00    +0.000 A 
ATOM     21  O   UNL     1       7.955   5.666  13.679  0.00  0.00    +0.000 OA
ENDBRANCH  14  17
ENDBRANCH   9  13
BRANCH   1  23
ATOM     22  C   UNL     1       1.693   7.408  20.496  0.00  0.00    +0.000 C 
ATOM     23  C   UNL     1       1.614   6.050  21.172  0.00  0.00    +0.000 C 
ENDBRANCH   1  23
TORSDOF 3
ENDMDL
MODEL 6
REMARK VINA RESULT:      -6.8      1.694      1.991
REMARK  Name = 
REMARK  6 active torsions:
REMARK  status: ('A' for Active; 'I' for Inactive)
REMARK    1  A    between atoms: C_1  and  C_2
REMARK    2  A    between atoms: C_2  and  N_3
REMARK    3  A    between atoms: C_6  and  C_7
REMARK    4  A    between atoms: C_6  and  C_8
REMARK    5  A    between atoms: C_11  and  N_12
REMARK    6  A    between atoms: C_13  and  C_15
REMARK                            x       y       z     vdW  Elec       q    Type
REMARK                         _______ _______ _______ _____ _____    ______ ____
ROOT
ATOM      1  N   UNL     1       4.202   4.050  17.171  0.00  0.00    +0.000 N 
ATOM      2  C   UNL     1       3.630   2.948  17.825  0.00  0.00    +0.000 C 
ATOM      3  O   UNL     1       3.868   1.768  17.610  0.00  0.00    +0.000 OA
ATOM      4  C   UNL     1       2.641   3.496  18.874  0.00  0.00    +0.000 C 
ATOM      5  C   UNL     1       3.092   3.115  20.283  0.00  0.00    +0.000 C 
ATOM      6  C   UNL     1       1.227   3.008  18.569  0.00  0.00    +0.000 C 
ATOM      7  C   UNL     1       2.762   4.980  18.658  0.00  0.00    +0.000 A 
ATOM      8  C   UNL     1       2.101   5.988  19.341  0.00  0.00    +0.000 A 
ATOM      9  C   UNL     1       2.372   7.316  19.025  0.00  0.00    +0.000 A 
ATOM     10  C   UNL     1       3.279   7.598  17.981  0.00  0.00    +0.000 A 
ATOM     11  C   UNL     1       3.946   6.565  17.289  0.00  0.00    +0.000 A 
ATOM     12  C   UNL     1       3.679   5.258  17.651  0.00  0.00    +0.000 A 
ENDROOT
BRANCH   9  13
ATOM     13  N   UNL     1       1.765   8.384  19.721  0.00  0.00    +0.000 N 
ATOM     14  C   UNL     1       1.047   9.429  19.152  0.00  0.00    +0.000 C 
ATOM     15  O   UNL     1       0.791   9.548  17.957  0.00  0.00    +0.000 OA
ATOM     16  H   UNL     1       1.788   8.370  20.735  0.00  0.00    +0.000 HD
BRANCH  14  17
ATOM     17  C   UNL     1       0.562  10.405  20.107  0.00  0.00    +0.000 A 
ATOM     18  C   UNL     1       0.082  10.231  21.392  0.00  0.00    +0.000 A 
ATOM     19  C   UNL     1      -0.252  11.513  21.879  0.00  0.00    +0.000 A 
ATOM     20  C   UNL     1       0.037  12.393  20.863  0.00  0.00    +0.000 A 
ATOM     21  O   UNL     1       0.535  11.736  19.782  0.00  0.00    +0.000 OA
ENDBRANCH  14  17
ENDBRANCH   9  13
BRANCH   1  23
ATOM     22  C   UNL     1       6.557   4.353  16.524  0.00  0.00    +0.000 C 
ATOM     23  C   UNL     1       5.166   3.910  16.103  0.00  0.00    +0.000 C 
ENDBRANCH   1  23
TORSDOF 3
ENDMDL
MODEL 7
REMARK VINA RESULT:      -6.8      2.607      3.848
REMARK  Name = 
REMARK  6 active torsions:
REMARK  status: ('A' for Active; 'I' for Inactive)
REMARK    1  A    between atoms: C_1  and  C_2
REMARK    2  A    between atoms: C_2  and  N_3
REMARK    3  A    between atoms: C_6  and  C_7
REMARK    4  A    between atoms: C_6  and  C_8
REMARK    5  A    between atoms: C_11  and  N_12
REMARK    6  A    between atoms: C_13  and  C_15
REMARK                            x       y       z     vdW  Elec       q    Type
REMARK                         _______ _______ _______ _____ _____    ______ ____
ROOT
ATOM      1  N   UNL     1       4.843   4.572  18.566  0.00  0.00    +0.000 N 
ATOM      2  C   UNL     1       5.848   4.872  17.633  0.00  0.00    +0.000 C 
ATOM      3  O   UNL     1       6.816   4.179  17.354  0.00  0.00    +0.000 OA
ATOM      4  C   UNL     1       5.509   6.244  17.016  0.00  0.00    +0.000 C 
ATOM      5  C   UNL     1       5.239   6.105  15.519  0.00  0.00    +0.000 C 
ATOM      6  C   UNL     1       6.625   7.244  17.310  0.00  0.00    +0.000 C 
ATOM      7  C   UNL     1       4.248   6.605  17.754  0.00  0.00    +0.000 A 
ATOM      8  C   UNL     1       3.478   7.746  17.599  0.00  0.00    +0.000 A 
ATOM      9  C   UNL     1       2.314   7.890  18.349  0.00  0.00    +0.000 A 
ATOM     10  C   UNL     1       1.977   6.888  19.285  0.00  0.00    +0.000 A 
ATOM     11  C   UNL     1       2.769   5.730  19.437  0.00  0.00    +0.000 A 
ATOM     12  C   UNL     1       3.900   5.603  18.653  0.00  0.00    +0.000 A 
ENDROOT
BRANCH   9  13
ATOM     13  N   UNL     1       1.466   9.008  18.197  0.00  0.00    +0.000 N 
ATOM     14  C   UNL     1       0.911   9.761  19.225  0.00  0.00    +0.000 C 
ATOM     15  O   UNL     1       1.122   9.592  20.423  0.00  0.00    +0.000 OA
ATOM     16  H   UNL     1       1.285   9.348  17.259  0.00  0.00    +0.000 HD
BRANCH  14  17
ATOM     17  C   UNL     1       0.050  10.835  18.775  0.00  0.00    +0.000 A 
ATOM     18  C   UNL     1      -1.236  10.793  18.269  0.00  0.00    +0.000 A 
ATOM     19  C   UNL     1      -1.609  12.126  17.991  0.00  0.00    +0.000 A 
ATOM     20  C   UNL     1      -0.527  12.903  18.336  0.00  0.00    +0.000 A 
ATOM     21  O   UNL     1       0.485  12.134  18.818  0.00  0.00    +0.000 OA
ENDBRANCH  14  17
ENDBRANCH   9  13
BRANCH   1  23
ATOM     22  C   UNL     1       3.896   2.314  18.810  0.00  0.00    +0.000 C 
ATOM     23  C   UNL     1       4.850   3.362  19.358  0.00  0.00    +0.000 C 
ENDBRANCH   1  23
TORSDOF 3
ENDMDL
MODEL 8
REMARK VINA RESULT:      -6.8      1.494      1.797
REMARK  Name = 
REMARK  6 active torsions:
REMARK  status: ('A' for Active; 'I' for Inactive)
REMARK    1  A    between atoms: C_1  and  C_2
REMARK    2  A    between atoms: C_2  and  N_3
REMARK    3  A    between atoms: C_6  and  C_7
REMARK    4  A    between atoms: C_6  and  C_8
REMARK    5  A    between atoms: C_11  and  N_12
REMARK    6  A    between atoms: C_13  and  C_15
REMARK                            x       y       z     vdW  Elec       q    Type
REMARK                         _______ _______ _______ _____ _____    ______ ____
ROOT
ATOM      1  N   UNL     1       4.496   4.299  17.478  0.00  0.00    +0.000 N 
ATOM      2  C   UNL     1       3.787   3.241  18.070  0.00  0.00    +0.000 C 
ATOM      3  O   UNL     1       4.060   2.051  18.003  0.00  0.00    +0.000 OA
ATOM      4  C   UNL     1       2.593   3.854  18.830  0.00  0.00    +0.000 C 
ATOM      5  C   UNL     1       2.718   3.585  20.329  0.00  0.00    +0.000 C 
ATOM      6  C   UNL     1       1.279   3.330  18.257  0.00  0.00    +0.000 C 
ATOM      7  C   UNL     1       2.767   5.320  18.535  0.00  0.00    +0.000 A 
ATOM      8  C   UNL     1       1.976   6.368  18.977  0.00  0.00    +0.000 A 
ATOM      9  C   UNL     1       2.317   7.672  18.631  0.00  0.00    +0.000 A 
ATOM     10  C   UNL     1       3.435   7.886  17.795  0.00  0.00    +0.000 A 
ATOM     11  C   UNL     1       4.234   6.812  17.348  0.00  0.00    +0.000 A 
ATOM     12  C   UNL     1       3.886   5.533  17.739  0.00  0.00    +0.000 A 
ENDROOT
BRANCH   9  13
ATOM     13  N   UNL     1       1.577   8.782  19.093  0.00  0.00    +0.000 N 
ATOM     14  C   UNL     1       1.194   9.020  20.407  0.00  0.00    +0.000 C 
ATOM     15  O   UNL     1       1.489   8.320  21.372  0.00  0.00    +0.000 OA
ATOM     16  H   UNL     1       1.351   9.516  18.431  0.00  0.00    +0.000 HD
BRANCH  14  17
ATOM     17  C   UNL     1       0.411  10.226  20.587  0.00  0.00    +0.000 A 
ATOM     18  C   UNL     1      -0.685  10.689  19.884  0.00  0.00    +0.000 A 
ATOM     19  C   UNL     1      -1.063  11.913  20.477  0.00  0.00    +0.000 A 
ATOM     20  C   UNL     1      -0.173  12.129  21.502  0.00  0.00    +0.000 A 
ATOM     21  O   UNL     1       0.725  11.111  21.584  0.00  0.00    +0.000 OA
ENDBRANCH  14  17
ENDBRANCH   9  13
BRANCH   1  23
ATOM     22  C   UNL     1       5.382   4.271  15.183  0.00  0.00    +0.000 C 
ATOM     23  C   UNL     1       5.671   4.090  16.664  0.00  0.00    +0.000 C 
ENDBRANCH   1  23
TORSDOF 3
ENDMDL
MODEL 9
REMARK VINA RESULT:      -6.8      2.281      7.896
REMARK  Name = 
REMARK  6 active torsions:
REMARK  status: ('A' for Active; 'I' for Inactive)
REMARK    1  A    between atoms: C_1  and  C_2
REMARK    2  A    between atoms: C_2  and  N_3
REMARK    3  A    between atoms: C_6  and  C_7
REMARK    4  A    between atoms: C_6  and  C_8
REMARK    5  A    between atoms: C_11  and  N_12
REMARK    6  A    between atoms: C_13  and  C_15
REMARK                            x       y       z     vdW  Elec       q    Type
REMARK                         _______ _______ _______ _____ _____    ______ ____
ROOT
ATOM      1  N   UNL     1      -0.007   9.232  21.069  0.00  0.00    +0.000 N 
ATOM      2  C   UNL     1      -0.381  10.352  20.310  0.00  0.00    +0.000 C 
ATOM      3  O   UNL     1      -1.177  11.221  20.635  0.00  0.00    +0.000 OA
ATOM      4  C   UNL     1       0.402  10.291  18.983  0.00  0.00    +0.000 C 
ATOM      5  C   UNL     1       1.342  11.490  18.861  0.00  0.00    +0.000 C 
ATOM      6  C   UNL     1      -0.565  10.195  17.805  0.00  0.00    +0.000 C 
ATOM      7  C   UNL     1       1.183   9.016  19.150  0.00  0.00    +0.000 A 
ATOM      8  C   UNL     1       2.082   8.455  18.257  0.00  0.00    +0.000 A 
ATOM      9  C   UNL     1       2.743   7.280  18.603  0.00  0.00    +0.000 A 
ATOM     10  C   UNL     1       2.442   6.666  19.838  0.00  0.00    +0.000 A 
ATOM     11  C   UNL     1       1.523   7.244  20.740  0.00  0.00    +0.000 A 
ATOM     12  C   UNL     1       0.909   8.428  20.379  0.00  0.00    +0.000 A 
ENDROOT
BRANCH   9  13
ATOM     13  N   UNL     1       3.706   6.691  17.754  0.00  0.00    +0.000 N 
ATOM     14  C   UNL     1       3.725   5.367  17.335  0.00  0.00    +0.000 C 
ATOM     15  O   UNL     1       2.874   4.524  17.603  0.00  0.00    +0.000 OA
ATOM     16  H   UNL     1       4.419   7.289  17.352  0.00  0.00    +0.000 HD
BRANCH  14  17
ATOM     17  C   UNL     1       4.852   5.029  16.489  0.00  0.00    +0.000 A 
ATOM     18  C   UNL     1       5.739   5.851  15.818  0.00  0.00    +0.000 A 
ATOM     19  C   UNL     1       6.647   5.006  15.144  0.00  0.00    +0.000 A 
ATOM     20  C   UNL     1       6.258   3.720  15.437  0.00  0.00    +0.000 A 
ATOM     21  O   UNL     1       5.173   3.718  16.256  0.00  0.00    +0.000 OA
ENDBRANCH  14  17
ENDBRANCH   9  13
BRANCH   1  23
ATOM     22  C   UNL     1       0.255   9.572  23.492  0.00  0.00    +0.000 C 
ATOM     23  C   UNL     1      -0.565   8.952  22.373  0.00  0.00    +0.000 C 
ENDBRANCH   1  23
TORSDOF 3
ENDMDL
