MODEL 1
REMARK VINA RESULT:      -8.7      0.000      0.000
REMARK  Name = 
REMARK  6 active torsions:
REMARK  status: ('A' for Active; 'I' for Inactive)
REMARK    1  A    between atoms: C_1  and  O_2
REMARK    2  A    between atoms: O_2  and  C_3
REMARK    3  A    between atoms: C_6  and  C_7
REMARK    4  A    between atoms: C_8  and  C_9
REMARK    5  A    between atoms: N_11  and  C_12
REMARK    6  A    between atoms: C_22  and  O_23
REMARK                            x       y       z     vdW  Elec       q    Type
REMARK                         _______ _______ _______ _____ _____    ______ ____
ROOT
ATOM      1  C   UNL     1       7.666   7.578  17.865  0.00  0.00    +0.000 C 
ATOM      2  O   UNL     1       8.172   6.892  18.746  0.00  0.00    +0.000 OA
ATOM      3  N   UNL     1       6.711   7.112  16.989  0.00  0.00    +0.000 N 
ATOM      4  H   UNL     1       6.396   7.668  16.211  0.00  0.00    +0.000 HD
ENDROOT
BRANCH   3   5
ATOM      5  C   UNL     1       6.296   5.732  17.077  0.00  0.00    +0.000 C 
ATOM      6  C   UNL     1       6.457   4.967  15.750  0.00  0.00    +0.000 C 
ATOM      7  C   UNL     1       5.548   3.738  15.884  0.00  0.00    +0.000 C 
ATOM      8  C   UNL     1       4.433   4.303  16.712  0.00  0.00    +0.000 A 
ATOM      9  C   UNL     1       3.184   3.746  16.938  0.00  0.00    +0.000 A 
ATOM     10  C   UNL     1       2.309   4.418  17.791  0.00  0.00    +0.000 A 
ATOM     11  C   UNL     1       2.692   5.623  18.404  0.00  0.00    +0.000 A 
ATOM     12  C   UNL     1       3.966   6.162  18.194  0.00  0.00    +0.000 A 
ATOM     13  C   UNL     1       4.834   5.489  17.349  0.00  0.00    +0.000 A 
ENDBRANCH   3   5
BRANCH   1  15
ATOM     14  C   UNL     1       8.879   9.587  18.537  0.00  0.00    +0.000 C 
ATOM     15  C   UNL     1       8.043   9.001  17.662  0.00  0.00    +0.000 C 
BRANCH  14  19
ATOM     16  C   UNL     1      10.168  13.687  18.256  0.00  0.00    +0.000 A 
ATOM     17  C   UNL     1      11.003  12.715  18.821  0.00  0.00    +0.000 A 
ATOM     18  C   UNL     1      10.597  11.380  18.928  0.00  0.00    +0.000 A 
ATOM     19  C   UNL     1       9.337  10.984  18.479  0.00  0.00    +0.000 A 
ATOM     20  C   UNL     1       8.505  11.951  17.892  0.00  0.00    +0.000 A 
ATOM     21  C   UNL     1       8.913  13.289  17.788  0.00  0.00    +0.000 A 
BRANCH  16  23
ATOM     22  C   UNL     1      11.721  15.213  17.259  0.00  0.00    +0.000 C 
ATOM     23  O   UNL     1      10.736  14.931  18.241  0.00  0.00    +0.000 OA
ENDBRANCH  16  23
BRANCH  21  24
ATOM     24  O   UNL     1       8.050  14.188  17.220  0.00  0.00    +0.000 OA
ATOM     25  H   UNL     1       8.553  14.819  16.681  0.00  0.00    +0.000 HD
ENDBRANCH  21  24
ENDBRANCH  14  19
ENDBRANCH   1  15
TORSDOF 5
ENDMDL
MODEL 2
REMARK VINA RESULT:      -8.6      0.630      1.452
REMARK  Name = 
REMARK  6 active torsions:
REMARK  status: ('A' for Active; 'I' for Inactive)
REMARK    1  A    between atoms: C_1  and  O_2
REMARK    2  A    between atoms: O_2  and  C_3
REMARK    3  A    between atoms: C_6  and  C_7
REMARK    4  A    between atoms: C_8  and  C_9
REMARK    5  A    between atoms: N_11  and  C_12
REMARK    6  A    between atoms: C_22  and  O_23
REMARK                            x       y       z     vdW  Elec       q    Type
REMARK                         _______ _______ _______ _____ _____    ______ ____
ROOT
ATOM      1  C   UNL     1       7.680   7.538  17.876  0.00  0.00    +0.000 C 
ATOM      2  O   UNL     1       8.159   6.863  18.780  0.00  0.00    +0.000 OA
ATOM      3  N   UNL     1       6.732   7.069  16.993  0.00  0.00    +0.000 N 
ATOM      4  H   UNL     1       6.440   7.614  16.198  0.00  0.00    +0.000 HD
ENDROOT
BRANCH   3   5
ATOM      5  C   UNL     1       6.293   5.699  17.103  0.00  0.00    +0.000 C 
ATOM      6  C   UNL     1       6.455   4.906  15.793  0.00  0.00    +0.000 C 
ATOM      7  C   UNL     1       5.524   3.695  15.940  0.00  0.00    +0.000 C 
ATOM      8  C   UNL     1       4.410   4.294  16.745  0.00  0.00    +0.000 A 
ATOM      9  C   UNL     1       3.149   3.763  16.967  0.00  0.00    +0.000 A 
ATOM     10  C   UNL     1       2.277   4.465  17.799  0.00  0.00    +0.000 A 
ATOM     11  C   UNL     1       2.674   5.675  18.393  0.00  0.00    +0.000 A 
ATOM     12  C   UNL     1       3.959   6.189  18.186  0.00  0.00    +0.000 A 
ATOM     13  C   UNL     1       4.824   5.485  17.364  0.00  0.00    +0.000 A 
ENDBRANCH   3   5
BRANCH   1  15
ATOM     14  C   UNL     1       8.857   9.563  18.564  0.00  0.00    +0.000 C 
ATOM     15  C   UNL     1       8.084   8.950  17.650  0.00  0.00    +0.000 C 
BRANCH  14  19
ATOM     16  C   UNL     1      10.277  13.628  18.463  0.00  0.00    +0.000 A 
ATOM     17  C   UNL     1       9.095  13.270  17.803  0.00  0.00    +0.000 A 
ATOM     18  C   UNL     1       8.624  11.952  17.818  0.00  0.00    +0.000 A 
ATOM     19  C   UNL     1       9.330  10.954  18.489  0.00  0.00    +0.000 A 
ATOM     20  C   UNL     1      10.504  11.313  19.172  0.00  0.00    +0.000 A 
ATOM     21  C   UNL     1      10.977  12.634  19.153  0.00  0.00    +0.000 A 
BRANCH  16  23
ATOM     22  C   UNL     1      11.289  15.381  17.183  0.00  0.00    +0.000 C 
ATOM     23  O   UNL     1      10.576  14.957  18.334  0.00  0.00    +0.000 OA
ENDBRANCH  16  23
BRANCH  21  24
ATOM     24  O   UNL     1      12.135  12.918  19.825  0.00  0.00    +0.000 OA
ATOM     25  H   UNL     1      11.958  12.933  20.779  0.00  0.00    +0.000 HD
ENDBRANCH  21  24
ENDBRANCH  14  19
ENDBRANCH   1  15
TORSDOF 5
ENDMDL
MODEL 3
REMARK VINA RESULT:      -8.6      1.071      1.211
REMARK  Name = 
REMARK  6 active torsions:
REMARK  status: ('A' for Active; 'I' for Inactive)
REMARK    1  A    between atoms: C_1  and  O_2
REMARK    2  A    between atoms: O_2  and  C_3
REMARK    3  A    between atoms: C_6  and  C_7
REMARK    4  A    between atoms: C_8  and  C_9
REMARK    5  A    between atoms: N_11  and  C_12
REMARK    6  A    between atoms: C_22  and  O_23
REMARK                            x       y       z     vdW  Elec       q    Type
REMARK                         _______ _______ _______ _____ _____    ______ ____
ROOT
ATOM      1  C   UNL     1       7.842   7.524  17.967  0.00  0.00    +0.000 C 
ATOM      2  O   UNL     1       8.188   6.784  18.881  0.00  0.00    +0.000 OA
ATOM      3  N   UNL     1       7.081   7.110  16.897  0.00  0.00    +0.000 N 
ATOM      4  H   UNL     1       6.906   7.715  16.111  0.00  0.00    +0.000 HD
ENDROOT
BRANCH   3   5
ATOM      5  C   UNL     1       6.689   5.723  16.813  0.00  0.00    +0.000 C 
ATOM      6  C   UNL     1       6.692   5.181  15.371  0.00  0.00    +0.000 C 
ATOM      7  C   UNL     1       5.814   3.923  15.415  0.00  0.00    +0.000 C 
ATOM      8  C   UNL     1       4.805   4.321  16.450  0.00  0.00    +0.000 A 
ATOM      9  C   UNL     1       3.597   3.703  16.732  0.00  0.00    +0.000 A 
ATOM     10  C   UNL     1       2.829   4.209  17.780  0.00  0.00    +0.000 A 
ATOM     11  C   UNL     1       3.276   5.312  18.527  0.00  0.00    +0.000 A 
ATOM     12  C   UNL     1       4.511   5.911  18.254  0.00  0.00    +0.000 A 
ATOM     13  C   UNL     1       5.273   5.402  17.216  0.00  0.00    +0.000 A 
ENDBRANCH   3   5
BRANCH   1  15
ATOM     14  C   UNL     1       8.987   9.459  18.919  0.00  0.00    +0.000 C 
ATOM     15  C   UNL     1       8.217   8.961  17.934  0.00  0.00    +0.000 C 
BRANCH  14  19
ATOM     16  C   UNL     1      10.368  13.531  19.157  0.00  0.00    +0.000 A 
ATOM     17  C   UNL     1      10.120  12.794  20.322  0.00  0.00    +0.000 A 
ATOM     18  C   UNL     1       9.662  11.473  20.262  0.00  0.00    +0.000 A 
ATOM     19  C   UNL     1       9.433  10.856  19.032  0.00  0.00    +0.000 A 
ATOM     20  C   UNL     1       9.702  11.584  17.862  0.00  0.00    +0.000 A 
ATOM     21  C   UNL     1      10.158  12.910  17.923  0.00  0.00    +0.000 A 
BRANCH  16  23
ATOM     22  C   UNL     1      10.907  15.221  20.767  0.00  0.00    +0.000 C 
ATOM     23  O   UNL     1      10.807  14.801  19.415  0.00  0.00    +0.000 OA
ENDBRANCH  16  23
BRANCH  21  24
ATOM     24  O   UNL     1      10.388  13.571  16.747  0.00  0.00    +0.000 OA
ATOM     25  H   UNL     1       9.543  13.876  16.379  0.00  0.00    +0.000 HD
ENDBRANCH  21  24
ENDBRANCH  14  19
ENDBRANCH   1  15
TORSDOF 5
ENDMDL
MODEL 4
REMARK VINA RESULT:      -8.4      1.164      1.484
REMARK  Name = 
REMARK  6 active torsions:
REMARK  status: ('A' for Active; 'I' for Inactive)
REMARK    1  A    between atoms: C_1  and  O_2
REMARK    2  A    between atoms: O_2  and  C_3
REMARK    3  A    between atoms: C_6  and  C_7
REMARK    4  A    between atoms: C_8  and  C_9
REMARK    5  A    between atoms: N_11  and  C_12
REMARK    6  A    between atoms: C_22  and  O_23
REMARK                            x       y       z     vdW  Elec       q    Type
REMARK                         _______ _______ _______ _____ _____    ______ ____
ROOT
ATOM      1  C   UNL     1       7.829   7.481  17.956  0.00  0.00    +0.000 C 
ATOM      2  O   UNL     1       8.165   6.757  18.885  0.00  0.00    +0.000 OA
ATOM      3  N   UNL     1       7.059   7.056  16.896  0.00  0.00    +0.000 N 
ATOM      4  H   UNL     1       6.893   7.647  16.097  0.00  0.00    +0.000 HD
ENDROOT
BRANCH   3   5
ATOM      5  C   UNL     1       6.643   5.675  16.845  0.00  0.00    +0.000 C 
ATOM      6  C   UNL     1       6.664   5.091  15.419  0.00  0.00    +0.000 C 
ATOM      7  C   UNL     1       5.763   3.850  15.482  0.00  0.00    +0.000 C 
ATOM      8  C   UNL     1       4.742   4.296  16.485  0.00  0.00    +0.000 A 
ATOM      9  C   UNL     1       3.517   3.709  16.760  0.00  0.00    +0.000 A 
ATOM     10  C   UNL     1       2.738   4.258  17.778  0.00  0.00    +0.000 A 
ATOM     11  C   UNL     1       3.190   5.374  18.501  0.00  0.00    +0.000 A 
ATOM     12  C   UNL     1       4.441   5.943  18.236  0.00  0.00    +0.000 A 
ATOM     13  C   UNL     1       5.214   5.391  17.228  0.00  0.00    +0.000 A 
ENDBRANCH   3   5
BRANCH   1  15
ATOM     14  C   UNL     1       8.937   9.440  18.903  0.00  0.00    +0.000 C 
ATOM     15  C   UNL     1       8.228   8.911  17.889  0.00  0.00    +0.000 C 
BRANCH  14  19
ATOM     16  C   UNL     1      10.202  13.542  19.247  0.00  0.00    +0.000 A 
ATOM     17  C   UNL     1      10.084  12.936  17.990  0.00  0.00    +0.000 A 
ATOM     18  C   UNL     1       9.682  11.602  17.860  0.00  0.00    +0.000 A 
ATOM     19  C   UNL     1       9.397  10.834  18.989  0.00  0.00    +0.000 A 
ATOM     20  C   UNL     1       9.493  11.445  20.251  0.00  0.00    +0.000 A 
ATOM     21  C   UNL     1       9.898  12.782  20.379  0.00  0.00    +0.000 A 
BRANCH  16  23
ATOM     22  C   UNL     1      11.999  15.125  19.193  0.00  0.00    +0.000 C 
ATOM     23  O   UNL     1      10.608  14.846  19.172  0.00  0.00    +0.000 OA
ENDBRANCH  16  23
BRANCH  21  24
ATOM     24  O   UNL     1       9.987  13.315  21.637  0.00  0.00    +0.000 OA
ATOM     25  H   UNL     1      10.903  13.589  21.805  0.00  0.00    +0.000 HD
ENDBRANCH  21  24
ENDBRANCH  14  19
ENDBRANCH   1  15
TORSDOF 5
ENDMDL
MODEL 5
REMARK VINA RESULT:      -8.1      1.351      1.513
REMARK  Name = 
REMARK  6 active torsions:
REMARK  status: ('A' for Active; 'I' for Inactive)
REMARK    1  A    between atoms: C_1  and  O_2
REMARK    2  A    between atoms: O_2  and  C_3
REMARK    3  A    between atoms: C_6  and  C_7
REMARK    4  A    between atoms: C_8  and  C_9
REMARK    5  A    between atoms: N_11  and  C_12
REMARK    6  A    between atoms: C_22  and  O_23
REMARK                            x       y       z     vdW  Elec       q    Type
REMARK                         _______ _______ _______ _____ _____    ______ ____
ROOT
ATOM      1  C   UNL     1       7.532   7.098  17.766  0.00  0.00    +0.000 C 
ATOM      2  O   UNL     1       6.732   7.334  16.867  0.00  0.00    +0.000 OA
ATOM      3  N   UNL     1       7.774   5.835  18.259  0.00  0.00    +0.000 N 
ATOM      4  H   UNL     1       8.356   5.690  19.069  0.00  0.00    +0.000 HD
ENDROOT
BRANCH   3   5
ATOM      5  C   UNL     1       7.031   4.720  17.723  0.00  0.00    +0.000 C 
ATOM      6  C   UNL     1       6.993   4.705  16.183  0.00  0.00    +0.000 C 
ATOM      7  C   UNL     1       5.809   3.799  15.820  0.00  0.00    +0.000 C 
ATOM      8  C   UNL     1       4.871   4.098  16.951  0.00  0.00    +0.000 A 
ATOM      9  C   UNL     1       3.523   3.785  17.035  0.00  0.00    +0.000 A 
ATOM     10  C   UNL     1       2.845   4.110  18.210  0.00  0.00    +0.000 A 
ATOM     11  C   UNL     1       3.516   4.735  19.274  0.00  0.00    +0.000 A 
ATOM     12  C   UNL     1       4.883   5.022  19.191  0.00  0.00    +0.000 A 
ATOM     13  C   UNL     1       5.555   4.692  18.026  0.00  0.00    +0.000 A 
ENDBRANCH   3   5
BRANCH   1  15
ATOM     14  C   UNL     1       8.241   9.428  17.936  0.00  0.00    +0.000 C 
ATOM     15  C   UNL     1       8.327   8.173  18.413  0.00  0.00    +0.000 C 
BRANCH  14  19
ATOM     16  C   UNL     1      10.402  12.873  19.351  0.00  0.00    +0.000 A 
ATOM     17  C   UNL     1      10.478  11.654  20.036  0.00  0.00    +0.000 A 
ATOM     18  C   UNL     1       9.776  10.527  19.595  0.00  0.00    +0.000 A 
ATOM     19  C   UNL     1       8.970  10.593  18.459  0.00  0.00    +0.000 A 
ATOM     20  C   UNL     1       8.908  11.808  17.756  0.00  0.00    +0.000 A 
ATOM     21  C   UNL     1       9.611  12.938  18.201  0.00  0.00    +0.000 A 
BRANCH  16  23
ATOM     22  C   UNL     1      10.560  14.651  20.950  0.00  0.00    +0.000 C 
ATOM     23  O   UNL     1      11.154  13.857  19.933  0.00  0.00    +0.000 OA
ENDBRANCH  16  23
BRANCH  21  24
ATOM     24  O   UNL     1       9.498  14.097  17.482  0.00  0.00    +0.000 OA
ATOM     25  H   UNL     1       8.979  14.741  17.990  0.00  0.00    +0.000 HD
ENDBRANCH  21  24
ENDBRANCH  14  19
ENDBRANCH   1  15
TORSDOF 5
ENDMDL
MODEL 6
REMARK VINA RESULT:      -8.0      1.763      2.045
REMARK  Name = 
REMARK  6 active torsions:
REMARK  status: ('A' for Active; 'I' for Inactive)
REMARK    1  A    between atoms: C_1  and  O_2
REMARK    2  A    between atoms: O_2  and  C_3
REMARK    3  A    between atoms: C_6  and  C_7
REMARK    4  A    between atoms: C_8  and  C_9
REMARK    5  A    between atoms: N_11  and  C_12
REMARK    6  A    between atoms: C_22  and  O_23
REMARK                            x       y       z     vdW  Elec       q    Type
REMARK                         _______ _______ _______ _____ _____    ______ ____
ROOT
ATOM      1  C   UNL     1       7.548   7.112  17.760  0.00  0.00    +0.000 C 
ATOM      2  O   UNL     1       6.638   7.464  17.017  0.00  0.00    +0.000 OA
ATOM      3  N   UNL     1       7.859   5.795  18.014  0.00  0.00    +0.000 N 
ATOM      4  H   UNL     1       8.540   5.541  18.711  0.00  0.00    +0.000 HD
ENDROOT
BRANCH   3   5
ATOM      5  C   UNL     1       7.059   4.758  17.407  0.00  0.00    +0.000 C 
ATOM      6  C   UNL     1       6.837   4.973  15.898  0.00  0.00    +0.000 C 
ATOM      7  C   UNL     1       5.619   4.108  15.545  0.00  0.00    +0.000 C 
ATOM      8  C   UNL     1       4.824   4.214  16.812  0.00  0.00    +0.000 A 
ATOM      9  C   UNL     1       3.497   3.864  17.006  0.00  0.00    +0.000 A 
ATOM     10  C   UNL     1       2.964   3.995  18.288  0.00  0.00    +0.000 A 
ATOM     11  C   UNL     1       3.756   4.467  19.348  0.00  0.00    +0.000 A 
ATOM     12  C   UNL     1       5.103   4.791  19.148  0.00  0.00    +0.000 A 
ATOM     13  C   UNL     1       5.630   4.654  17.875  0.00  0.00    +0.000 A 
ENDBRANCH   3   5
BRANCH   1  15
ATOM     14  C   UNL     1       8.421   9.373  18.048  0.00  0.00    +0.000 C 
ATOM     15  C   UNL     1       8.413   8.094  18.463  0.00  0.00    +0.000 C 
BRANCH  14  19
ATOM     16  C   UNL     1      10.690  12.570  19.832  0.00  0.00    +0.000 A 
ATOM     17  C   UNL     1      10.726  12.357  18.448  0.00  0.00    +0.000 A 
ATOM     18  C   UNL     1      10.002  11.318  17.853  0.00  0.00    +0.000 A 
ATOM     19  C   UNL     1       9.228  10.457  18.631  0.00  0.00    +0.000 A 
ATOM     20  C   UNL     1       9.171  10.681  20.017  0.00  0.00    +0.000 A 
ATOM     21  C   UNL     1       9.900  11.721  20.612  0.00  0.00    +0.000 A 
BRANCH  16  23
ATOM     22  C   UNL     1      10.846  14.900  20.365  0.00  0.00    +0.000 C 
ATOM     23  O   UNL     1      11.461  13.628  20.227  0.00  0.00    +0.000 OA
ENDBRANCH  16  23
BRANCH  21  24
ATOM     24  O   UNL     1       9.815  11.878  21.969  0.00  0.00    +0.000 OA
ATOM     25  H   UNL     1      10.674  11.668  22.371  0.00  0.00    +0.000 HD
ENDBRANCH  21  24
ENDBRANCH  14  19
ENDBRANCH   1  15
TORSDOF 5
ENDMDL
MODEL 7
REMARK VINA RESULT:      -7.9      1.507      2.154
REMARK  Name = 
REMARK  6 active torsions:
REMARK  status: ('A' for Active; 'I' for Inactive)
REMARK    1  A    between atoms: C_1  and  O_2
REMARK    2  A    between atoms: O_2  and  C_3
REMARK    3  A    between atoms: C_6  and  C_7
REMARK    4  A    between atoms: C_8  and  C_9
REMARK    5  A    between atoms: N_11  and  C_12
REMARK    6  A    between atoms: C_22  and  O_23
REMARK                            x       y       z     vdW  Elec       q    Type
REMARK                         _______ _______ _______ _____ _____    ______ ____
ROOT
ATOM      1  C   UNL     1       7.095   6.719  17.548  0.00  0.00    +0.000 C 
ATOM      2  O   UNL     1       7.858   5.778  17.362  0.00  0.00    +0.000 OA
ATOM      3  N   UNL     1       5.749   6.572  17.797  0.00  0.00    +0.000 N 
ATOM      4  H   UNL     1       5.132   7.367  17.838  0.00  0.00    +0.000 HD
ENDROOT
BRANCH   3   5
ATOM      5  C   UNL     1       5.181   5.244  17.809  0.00  0.00    +0.000 C 
ATOM      6  C   UNL     1       4.816   4.731  16.403  0.00  0.00    +0.000 C 
ATOM      7  C   UNL     1       3.820   3.588  16.640  0.00  0.00    +0.000 C 
ATOM      8  C   UNL     1       3.107   4.087  17.861  0.00  0.00    +0.000 A 
ATOM      9  C   UNL     1       1.918   3.615  18.395  0.00  0.00    +0.000 A 
ATOM     10  C   UNL     1       1.453   4.192  19.577  0.00  0.00    +0.000 A 
ATOM     11  C   UNL     1       2.178   5.219  20.204  0.00  0.00    +0.000 A 
ATOM     12  C   UNL     1       3.392   5.669  19.673  0.00  0.00    +0.000 A 
ATOM     13  C   UNL     1       3.853   5.090  18.502  0.00  0.00    +0.000 A 
ENDBRANCH   3   5
BRANCH   1  15
ATOM     14  C   UNL     1       8.348   8.573  18.524  0.00  0.00    +0.000 C 
ATOM     15  C   UNL     1       7.565   8.128  17.525  0.00  0.00    +0.000 C 
BRANCH  14  19
ATOM     16  C   UNL     1       9.879  12.569  19.008  0.00  0.00    +0.000 A 
ATOM     17  C   UNL     1       9.222  12.196  17.828  0.00  0.00    +0.000 A 
ATOM     18  C   UNL     1       8.726  10.899  17.651  0.00  0.00    +0.000 A 
ATOM     19  C   UNL     1       8.883   9.937  18.649  0.00  0.00    +0.000 A 
ATOM     20  C   UNL     1       9.522  10.314  19.842  0.00  0.00    +0.000 A 
ATOM     21  C   UNL     1      10.021  11.613  20.017  0.00  0.00    +0.000 A 
BRANCH  16  23
ATOM     22  C   UNL     1       9.419  14.866  19.508  0.00  0.00    +0.000 C 
ATOM     23  O   UNL     1      10.293  13.873  18.995  0.00  0.00    +0.000 OA
ENDBRANCH  16  23
BRANCH  21  24
ATOM     24  O   UNL     1      10.647  11.914  21.196  0.00  0.00    +0.000 OA
ATOM     25  H   UNL     1      11.583  11.664  21.136  0.00  0.00    +0.000 HD
ENDBRANCH  21  24
ENDBRANCH  14  19
ENDBRANCH   1  15
TORSDOF 5
ENDMDL
MODEL 8
REMARK VINA RESULT:      -7.9      1.136      1.432
REMARK  Name = 
REMARK  6 active torsions:
REMARK  status: ('A' for Active; 'I' for Inactive)
REMARK    1  A    between atoms: C_1  and  O_2
REMARK    2  A    between atoms: O_2  and  C_3
REMARK    3  A    between atoms: C_6  and  C_7
REMARK    4  A    between atoms: C_8  and  C_9
REMARK    5  A    between atoms: N_11  and  C_12
REMARK    6  A    between atoms: C_22  and  O_23
REMARK                            x       y       z     vdW  Elec       q    Type
REMARK                         _______ _______ _______ _____ _____    ______ ____
ROOT
ATOM      1  C   UNL     1       7.142   6.777  17.639  0.00  0.00    +0.000 C 
ATOM      2  O   UNL     1       7.933   5.851  17.768  0.00  0.00    +0.000 OA
ATOM      3  N   UNL     1       5.774   6.618  17.637  0.00  0.00    +0.000 N 
ATOM      4  H   UNL     1       5.156   7.383  17.421  0.00  0.00    +0.000 HD
ENDROOT
BRANCH   3   5
ATOM      5  C   UNL     1       5.226   5.288  17.761  0.00  0.00    +0.000 C 
ATOM      6  C   UNL     1       4.911   4.636  16.401  0.00  0.00    +0.000 C 
ATOM      7  C   UNL     1       3.925   3.504  16.718  0.00  0.00    +0.000 C 
ATOM      8  C   UNL     1       3.167   4.105  17.864  0.00  0.00    +0.000 A 
ATOM      9  C   UNL     1       1.969   3.666  18.406  0.00  0.00    +0.000 A 
ATOM     10  C   UNL     1       1.461   4.345  19.513  0.00  0.00    +0.000 A 
ATOM     11  C   UNL     1       2.150   5.441  20.059  0.00  0.00    +0.000 A 
ATOM     12  C   UNL     1       3.374   5.858  19.523  0.00  0.00    +0.000 A 
ATOM     13  C   UNL     1       3.879   5.178  18.427  0.00  0.00    +0.000 A 
ENDBRANCH   3   5
BRANCH   1  15
ATOM     14  C   UNL     1       8.345   8.747  18.436  0.00  0.00    +0.000 C 
ATOM     15  C   UNL     1       7.595   8.182  17.472  0.00  0.00    +0.000 C 
BRANCH  14  19
ATOM     16  C   UNL     1       9.820  12.789  18.279  0.00  0.00    +0.000 A 
ATOM     17  C   UNL     1      10.527  11.800  18.973  0.00  0.00    +0.000 A 
ATOM     18  C   UNL     1      10.058  10.483  19.041  0.00  0.00    +0.000 A 
ATOM     19  C   UNL     1       8.860  10.124  18.422  0.00  0.00    +0.000 A 
ATOM     20  C   UNL     1       8.160  11.109  17.706  0.00  0.00    +0.000 A 
ATOM     21  C   UNL     1       8.630  12.429  17.641  0.00  0.00    +0.000 A 
BRANCH  16  23
ATOM     22  C   UNL     1      10.069  14.912  19.361  0.00  0.00    +0.000 C 
ATOM     23  O   UNL     1      10.433  14.012  18.326  0.00  0.00    +0.000 OA
ENDBRANCH  16  23
BRANCH  21  24
ATOM     24  O   UNL     1       7.894  13.346  16.941  0.00  0.00    +0.000 OA
ATOM     25  H   UNL     1       7.815  14.160  17.463  0.00  0.00    +0.000 HD
ENDBRANCH  21  24
ENDBRANCH  14  19
ENDBRANCH   1  15
TORSDOF 5
ENDMDL
MODEL 9
REMARK VINA RESULT:      -7.8      1.282      1.448
REMARK  Name = 
REMARK  6 active torsions:
REMARK  status: ('A' for Active; 'I' for Inactive)
REMARK    1  A    between atoms: C_1  and  O_2
REMARK    2  A    between atoms: O_2  and  C_3
REMARK    3  A    between atoms: C_6  and  C_7
REMARK    4  A    between atoms: C_8  and  C_9
REMARK    5  A    between atoms: N_11  and  C_12
REMARK    6  A    between atoms: C_22  and  O_23
REMARK                            x       y       z     vdW  Elec       q    Type
REMARK                         _______ _______ _______ _____ _____    ______ ____
ROOT
ATOM      1  C   UNL     1       7.395   7.148  17.709  0.00  0.00    +0.000 C 
ATOM      2  O   UNL     1       8.214   6.238  17.768  0.00  0.00    +0.000 OA
ATOM      3  N   UNL     1       6.040   6.949  17.563  0.00  0.00    +0.000 N 
ATOM      4  H   UNL     1       5.409   7.718  17.410  0.00  0.00    +0.000 HD
ENDROOT
BRANCH   3   5
ATOM      5  C   UNL     1       5.543   5.599  17.437  0.00  0.00    +0.000 C 
ATOM      6  C   UNL     1       5.373   5.154  15.972  0.00  0.00    +0.000 C 
ATOM      7  C   UNL     1       4.414   3.956  16.027  0.00  0.00    +0.000 C 
ATOM      8  C   UNL     1       3.537   4.352  17.177  0.00  0.00    +0.000 A 
ATOM      9  C   UNL     1       2.319   3.799  17.538  0.00  0.00    +0.000 A 
ATOM     10  C   UNL     1       1.690   4.285  18.684  0.00  0.00    +0.000 A 
ATOM     11  C   UNL     1       2.283   5.304  19.447  0.00  0.00    +0.000 A 
ATOM     12  C   UNL     1       3.527   5.837  19.092  0.00  0.00    +0.000 A 
ATOM     13  C   UNL     1       4.151   5.347  17.956  0.00  0.00    +0.000 A 
ENDBRANCH   3   5
BRANCH   1  15
ATOM     14  C   UNL     1       8.660   8.955  18.756  0.00  0.00    +0.000 C 
ATOM     15  C   UNL     1       7.799   8.576  17.795  0.00  0.00    +0.000 C 
BRANCH  14  19
ATOM     16  C   UNL     1      10.149  12.959  19.300  0.00  0.00    +0.000 A 
ATOM     17  C   UNL     1      10.003  12.099  20.396  0.00  0.00    +0.000 A 
ATOM     18  C   UNL     1       9.513  10.798  20.238  0.00  0.00    +0.000 A 
ATOM     19  C   UNL     1       9.146  10.325  18.977  0.00  0.00    +0.000 A 
ATOM     20  C   UNL     1       9.313  11.178  17.873  0.00  0.00    +0.000 A 
ATOM     21  C   UNL     1       9.802  12.483  18.033  0.00  0.00    +0.000 A 
BRANCH  16  23
ATOM     22  C   UNL     1      10.567  14.581  21.013  0.00  0.00    +0.000 C 
ATOM     23  O   UNL     1      10.639  14.187  19.651  0.00  0.00    +0.000 OA
ENDBRANCH  16  23
BRANCH  21  24
ATOM     24  O   UNL     1       9.926  13.270  16.921  0.00  0.00    +0.000 OA
ATOM     25  H   UNL     1      10.732  13.022  16.440  0.00  0.00    +0.000 HD
ENDBRANCH  21  24
ENDBRANCH  14  19
ENDBRANCH   1  15
TORSDOF 5
ENDMDL
