MODEL 1
REMARK VINA RESULT:      -8.2      0.000      0.000
REMARK  Name = 
REMARK  14 active torsions:
REMARK  status: ('A' for Active; 'I' for Inactive)
REMARK    1  A    between atoms: C_2  and  OXT_3
REMARK    2  A    between atoms: C_2  and  CA_4
REMARK    3  A    between atoms: CA_4  and  CB_5
REMARK    4  A    between atoms: CA_4  and  N_12
REMARK    5  A    between atoms: CB_5  and  CG_6
REMARK    6  A    between atoms: C_13  and  CA_15
REMARK    7  A    between atoms: CA_15  and  C_16
REMARK    8  A    between atoms: CA_15  and  N_27
REMARK    9  A    between atoms: C_16  and  C_17
REMARK   10  A    between atoms: C_18  and  C_19
REMARK   11  A    between atoms: N_27  and  C_28
REMARK   12  A    between atoms: C_28  and  P_29
REMARK   13  A    between atoms: P_29  and  O_31
REMARK   14  A    between atoms: P_29  and  O_32
REMARK                            x       y       z     vdW  Elec       q    Type
REMARK                         _______ _______ _______ _____ _____    ______ ____
ROOT
ATOM      1  CA  UNL     1       6.671   6.413  17.954  0.00  0.00    +0.000 C 
ENDROOT
BRANCH   1   3
ATOM      2  N   UNL     1       4.270   6.179  18.300  0.00  0.00    +0.000 N 
ATOM      3  C   UNL     1       5.232   6.850  17.566  0.00  0.00    +0.000 C 
ATOM      4  O   UNL     1       4.952   7.724  16.756  0.00  0.00    +0.000 OA
ATOM      5  H   UNL     1       4.592   5.393  18.856  0.00  0.00    +0.000 HD
BRANCH   2   6
ATOM      6  CA  UNL     1       2.839   6.358  18.048  0.00  0.00    +0.000 C 
BRANCH   6   8
ATOM      7  O   UNL     1       1.893   8.588  18.447  0.00  0.00    +0.000 OA
ATOM      8  C   UNL     1       2.287   7.517  18.889  0.00  0.00    +0.000 C 
BRANCH   8   9
ATOM      9  OXT UNL     1       2.369   7.304  20.229  0.00  0.00    +0.000 OA
ATOM     10  HXT UNL     1       2.946   6.540  20.438  0.00  0.00    +0.000 HD
ENDBRANCH   8   9
ENDBRANCH   6   8
BRANCH   6  11
ATOM     11  CB  UNL     1       2.020   5.048  18.092  0.00  0.00    +0.000 C 
BRANCH  11  12
ATOM     12  CG  UNL     1       2.681   3.765  18.667  0.00  0.00    +0.000 C 
ATOM     13  CD1 UNL     1       3.244   3.875  20.094  0.00  0.00    +0.000 C 
ATOM     14  CE1 UNL     1       2.156   3.953  21.169  0.00  0.00    +0.000 C 
ATOM     15  CZ  UNL     1       1.224   2.751  21.101  0.00  0.00    +0.000 C 
ATOM     16  CE2 UNL     1       0.619   2.615  19.707  0.00  0.00    +0.000 C 
ATOM     17  CD2 UNL     1       1.700   2.566  18.623  0.00  0.00    +0.000 C 
ENDBRANCH  11  12
ENDBRANCH   6  11
ENDBRANCH   2   6
ENDBRANCH   1   3
BRANCH   1  18
ATOM     18  N   UNL     1       6.739   4.904  17.878  0.00  0.00    +0.000 NA
ATOM     19  H   UNL     1       5.771   4.551  17.847  0.00  0.00    +0.000 HD
BRANCH  18  20
ATOM     20  C   UNL     1       7.428   4.452  16.654  0.00  0.00    +0.000 C 
BRANCH  20  21
ATOM     21  P   UNL     1       6.367   4.195  15.239  0.00  0.00    +0.000 P 
ATOM     22  O   UNL     1       4.994   4.037  15.814  0.00  0.00    +0.000 OA
BRANCH  21  23
ATOM     23  O   UNL     1       6.666   5.563  14.461  0.00  0.00    +0.000 OA
ATOM     24  H   UNL     1       5.878   5.896  13.994  0.00  0.00    +0.000 HD
ENDBRANCH  21  23
BRANCH  21  25
ATOM     25  O   UNL     1       6.248   3.244  13.976  0.00  0.00    +0.000 OA
ATOM     26  H   UNL     1       5.283   2.994  14.023  0.00  0.00    +0.000 HD
ENDBRANCH  21  25
ENDBRANCH  20  21
ENDBRANCH  18  20
ENDBRANCH   1  18
BRANCH   1  27
ATOM     27  C   UNL     1       7.686   7.223  17.094  0.00  0.00    +0.000 C 
BRANCH  27  28
ATOM     28  C   UNL     1       8.081   8.455  17.806  0.00  0.00    +0.000 C 
ATOM     29  C   UNL     1       8.538   9.478  18.303  0.00  0.00    +0.000 C 
BRANCH  29  30
ATOM     30  C   UNL     1       9.105  10.653  18.858  0.00  0.00    +0.000 A 
ATOM     31  C   UNL     1       9.852  10.580  20.040  0.00  0.00    +0.000 A 
ATOM     32  C   UNL     1      10.420  11.745  20.581  0.00  0.00    +0.000 A 
ATOM     33  C   UNL     1      10.225  12.968  19.949  0.00  0.00    +0.000 A 
ATOM     34  F   UNL     1      10.780  14.075  20.475  0.00  0.00    +0.000 F 
ATOM     35  C   UNL     1       9.470  13.068  18.802  0.00  0.00    +0.000 A 
ATOM     36  C   UNL     1       8.899  11.905  18.241  0.00  0.00    +0.000 A 
ATOM     37  F   UNL     1       8.183  12.008  17.149  0.00  0.00    +0.000 F 
ENDBRANCH  29  30
ENDBRANCH  27  28
ENDBRANCH   1  27
TORSDOF 14
ENDMDL
MODEL 2
REMARK VINA RESULT:      -7.9      4.276      5.959
REMARK  Name = 
REMARK  14 active torsions:
REMARK  status: ('A' for Active; 'I' for Inactive)
REMARK    1  A    between atoms: C_2  and  OXT_3
REMARK    2  A    between atoms: C_2  and  CA_4
REMARK    3  A    between atoms: CA_4  and  CB_5
REMARK    4  A    between atoms: CA_4  and  N_12
REMARK    5  A    between atoms: CB_5  and  CG_6
REMARK    6  A    between atoms: C_13  and  CA_15
REMARK    7  A    between atoms: CA_15  and  C_16
REMARK    8  A    between atoms: CA_15  and  N_27
REMARK    9  A    between atoms: C_16  and  C_17
REMARK   10  A    between atoms: C_18  and  C_19
REMARK   11  A    between atoms: N_27  and  C_28
REMARK   12  A    between atoms: C_28  and  P_29
REMARK   13  A    between atoms: P_29  and  O_31
REMARK   14  A    between atoms: P_29  and  O_32
REMARK                            x       y       z     vdW  Elec       q    Type
REMARK                         _______ _______ _______ _____ _____    ______ ____
ROOT
ATOM      1  CA  UNL     1       4.417   7.258  17.350  0.00  0.00    +0.000 C 
ENDROOT
BRANCH   1   3
ATOM      2  N   UNL     1       3.474   5.034  17.673  0.00  0.00    +0.000 N 
ATOM      3  C   UNL     1       4.238   6.020  18.271  0.00  0.00    +0.000 C 
ATOM      4  O   UNL     1       4.751   5.879  19.374  0.00  0.00    +0.000 OA
ATOM      5  H   UNL     1       2.995   5.291  16.815  0.00  0.00    +0.000 HD
BRANCH   2   6
ATOM      6  CA  UNL     1       3.095   3.812  18.384  0.00  0.00    +0.000 C 
BRANCH   6   8
ATOM      7  O   UNL     1       3.841   1.571  17.713  0.00  0.00    +0.000 OA
ATOM      8  C   UNL     1       4.112   2.696  18.112  0.00  0.00    +0.000 C 
BRANCH   8   9
ATOM      9  OXT UNL     1       5.384   3.022  18.462  0.00  0.00    +0.000 OA
ATOM     10  HXT UNL     1       5.482   3.986  18.608  0.00  0.00    +0.000 HD
ENDBRANCH   8   9
ENDBRANCH   6   8
BRANCH   6  11
ATOM     11  CB  UNL     1       1.608   3.419  18.219  0.00  0.00    +0.000 C 
BRANCH  11  12
ATOM     12  CG  UNL     1       0.706   3.336  19.481  0.00  0.00    +0.000 C 
ATOM     13  CD1 UNL     1       1.029   2.205  20.471  0.00  0.00    +0.000 C 
ATOM     14  CE1 UNL     1       2.324   2.438  21.254  0.00  0.00    +0.000 C 
ATOM     15  CZ  UNL     1       2.283   3.757  22.012  0.00  0.00    +0.000 C 
ATOM     16  CE2 UNL     1       1.990   4.917  21.065  0.00  0.00    +0.000 C 
ATOM     17  CD2 UNL     1       0.711   4.678  20.257  0.00  0.00    +0.000 C 
ENDBRANCH  11  12
ENDBRANCH   6  11
ENDBRANCH   2   6
ENDBRANCH   1   3
BRANCH   1  18
ATOM     18  N   UNL     1       5.281   6.850  16.178  0.00  0.00    +0.000 NA
ATOM     19  H   UNL     1       5.484   7.700  15.631  0.00  0.00    +0.000 HD
BRANCH  18  20
ATOM     20  C   UNL     1       6.566   6.277  16.623  0.00  0.00    +0.000 C 
BRANCH  20  21
ATOM     21  P   UNL     1       6.990   4.705  15.884  0.00  0.00    +0.000 P 
ATOM     22  O   UNL     1       7.644   5.058  14.585  0.00  0.00    +0.000 OA
BRANCH  21  23
ATOM     23  O   UNL     1       7.947   4.145  17.041  0.00  0.00    +0.000 OA
ATOM     24  H   UNL     1       8.352   3.293  16.797  0.00  0.00    +0.000 HD
ENDBRANCH  21  23
BRANCH  21  25
ATOM     25  O   UNL     1       6.302   3.334  15.483  0.00  0.00    +0.000 OA
ATOM     26  H   UNL     1       5.485   3.364  16.055  0.00  0.00    +0.000 HD
ENDBRANCH  21  25
ENDBRANCH  20  21
ENDBRANCH  18  20
ENDBRANCH   1  18
BRANCH   1  27
ATOM     27  C   UNL     1       3.012   7.852  17.035  0.00  0.00    +0.000 C 
BRANCH  27  28
ATOM     28  C   UNL     1       2.336   8.242  18.289  0.00  0.00    +0.000 C 
ATOM     29  C   UNL     1       1.705   8.680  19.244  0.00  0.00    +0.000 C 
BRANCH  29  30
ATOM     30  C   UNL     1       0.964   9.224  20.324  0.00  0.00    +0.000 A 
ATOM     31  C   UNL     1       0.865   8.519  21.531  0.00  0.00    +0.000 A 
ATOM     32  C   UNL     1       0.138   9.066  22.601  0.00  0.00    +0.000 A 
ATOM     33  C   UNL     1      -0.492  10.296  22.453  0.00  0.00    +0.000 A 
ATOM     34  F   UNL     1      -1.180  10.810  23.489  0.00  0.00    +0.000 F 
ATOM     35  C   UNL     1      -0.433  10.992  21.267  0.00  0.00    +0.000 A 
ATOM     36  C   UNL     1       0.301  10.461  20.183  0.00  0.00    +0.000 A 
ATOM     37  F   UNL     1       0.353  11.130  19.059  0.00  0.00    +0.000 F 
ENDBRANCH  29  30
ENDBRANCH  27  28
ENDBRANCH   1  27
TORSDOF 14
ENDMDL
MODEL 3
REMARK VINA RESULT:      -7.9      4.712      7.484
REMARK  Name = 
REMARK  14 active torsions:
REMARK  status: ('A' for Active; 'I' for Inactive)
REMARK    1  A    between atoms: C_2  and  OXT_3
REMARK    2  A    between atoms: C_2  and  CA_4
REMARK    3  A    between atoms: CA_4  and  CB_5
REMARK    4  A    between atoms: CA_4  and  N_12
REMARK    5  A    between atoms: CB_5  and  CG_6
REMARK    6  A    between atoms: C_13  and  CA_15
REMARK    7  A    between atoms: CA_15  and  C_16
REMARK    8  A    between atoms: CA_15  and  N_27
REMARK    9  A    between atoms: C_16  and  C_17
REMARK   10  A    between atoms: C_18  and  C_19
REMARK   11  A    between atoms: N_27  and  C_28
REMARK   12  A    between atoms: C_28  and  P_29
REMARK   13  A    between atoms: P_29  and  O_31
REMARK   14  A    between atoms: P_29  and  O_32
REMARK                            x       y       z     vdW  Elec       q    Type
REMARK                         _______ _______ _______ _____ _____    ______ ____
ROOT
ATOM      1  CA  UNL     1       3.228   5.338  19.160  0.00  0.00    +0.000 C 
ENDROOT
BRANCH   1   3
ATOM      2  N   UNL     1       5.600   5.460  18.615  0.00  0.00    +0.000 N 
ATOM      3  C   UNL     1       4.621   4.651  19.165  0.00  0.00    +0.000 C 
ATOM      4  O   UNL     1       4.866   3.553  19.646  0.00  0.00    +0.000 OA
ATOM      5  H   UNL     1       5.279   6.296  18.136  0.00  0.00    +0.000 HD
BRANCH   2   6
ATOM      6  CA  UNL     1       6.974   4.993  18.428  0.00  0.00    +0.000 C 
BRANCH   6   8
ATOM      7  O   UNL     1       8.277   7.054  18.712  0.00  0.00    +0.000 OA
ATOM      8  C   UNL     1       7.962   5.943  19.118  0.00  0.00    +0.000 C 
BRANCH   8   9
ATOM      9  OXT UNL     1       8.573   5.399  20.203  0.00  0.00    +0.000 OA
ATOM     10  HXT UNL     1       8.448   5.952  21.002  0.00  0.00    +0.000 HD
ENDBRANCH   8   9
ENDBRANCH   6   8
BRANCH   6  11
ATOM     11  CB  UNL     1       7.320   4.608  16.971  0.00  0.00    +0.000 C 
BRANCH  11  12
ATOM     12  CG  UNL     1       6.865   5.543  15.817  0.00  0.00    +0.000 C 
ATOM     13  CD1 UNL     1       7.421   5.215  14.421  0.00  0.00    +0.000 C 
ATOM     14  CE1 UNL     1       6.812   3.951  13.809  0.00  0.00    +0.000 C 
ATOM     15  CZ  UNL     1       5.296   4.054  13.722  0.00  0.00    +0.000 C 
ATOM     16  CE2 UNL     1       4.695   4.353  15.092  0.00  0.00    +0.000 C 
ATOM     17  CD2 UNL     1       5.320   5.600  15.724  0.00  0.00    +0.000 C 
ENDBRANCH  11  12
ENDBRANCH   6  11
ENDBRANCH   2   6
ENDBRANCH   1   3
BRANCH   1  18
ATOM     18  N   UNL     1       2.752   5.444  20.592  0.00  0.00    +0.000 NA
ATOM     19  H   UNL     1       2.634   6.445  20.806  0.00  0.00    +0.000 HD
BRANCH  18  20
ATOM     20  C   UNL     1       1.447   4.781  20.781  0.00  0.00    +0.000 C 
BRANCH  20  21
ATOM     21  P   UNL     1       1.463   3.005  20.579  0.00  0.00    +0.000 P 
ATOM     22  O   UNL     1       1.569   2.463  21.969  0.00  0.00    +0.000 OA
BRANCH  21  23
ATOM     23  O   UNL     1       0.049   2.832  19.845  0.00  0.00    +0.000 OA
ATOM     24  H   UNL     1      -0.673   2.672  20.480  0.00  0.00    +0.000 HD
ENDBRANCH  21  23
BRANCH  21  25
ATOM     25  O   UNL     1       2.261   1.888  19.786  0.00  0.00    +0.000 OA
ATOM     26  H   UNL     1       2.405   2.348  18.912  0.00  0.00    +0.000 HD
ENDBRANCH  21  25
ENDBRANCH  20  21
ENDBRANCH  18  20
ENDBRANCH   1  18
BRANCH   1  27
ATOM     27  C   UNL     1       3.324   6.656  18.335  0.00  0.00    +0.000 C 
BRANCH  27  28
ATOM     28  C   UNL     1       2.350   7.642  18.843  0.00  0.00    +0.000 C 
ATOM     29  C   UNL     1       1.631   8.466  19.396  0.00  0.00    +0.000 C 
BRANCH  29  30
ATOM     30  C   UNL     1       0.820   9.411  20.075  0.00  0.00    +0.000 A 
ATOM     31  C   UNL     1       0.139  10.398  19.352  0.00  0.00    +0.000 A 
ATOM     32  C   UNL     1      -0.671  11.326  20.028  0.00  0.00    +0.000 A 
ATOM     33  C   UNL     1      -0.780  11.269  21.412  0.00  0.00    +0.000 A 
ATOM     34  F   UNL     1      -1.564  12.161  22.046  0.00  0.00    +0.000 F 
ATOM     35  C   UNL     1      -0.097  10.326  22.146  0.00  0.00    +0.000 A 
ATOM     36  C   UNL     1       0.715   9.381  21.482  0.00  0.00    +0.000 A 
ATOM     37  F   UNL     1       1.360   8.486  22.187  0.00  0.00    +0.000 F 
ENDBRANCH  29  30
ENDBRANCH  27  28
ENDBRANCH   1  27
TORSDOF 14
ENDMDL
MODEL 4
REMARK VINA RESULT:      -7.9      0.988      1.448
REMARK  Name = 
REMARK  14 active torsions:
REMARK  status: ('A' for Active; 'I' for Inactive)
REMARK    1  A    between atoms: C_2  and  OXT_3
REMARK    2  A    between atoms: C_2  and  CA_4
REMARK    3  A    between atoms: CA_4  and  CB_5
REMARK    4  A    between atoms: CA_4  and  N_12
REMARK    5  A    between atoms: CB_5  and  CG_6
REMARK    6  A    between atoms: C_13  and  CA_15
REMARK    7  A    between atoms: CA_15  and  C_16
REMARK    8  A    between atoms: CA_15  and  N_27
REMARK    9  A    between atoms: C_16  and  C_17
REMARK   10  A    between atoms: C_18  and  C_19
REMARK   11  A    between atoms: N_27  and  C_28
REMARK   12  A    between atoms: C_28  and  P_29
REMARK   13  A    between atoms: P_29  and  O_31
REMARK   14  A    between atoms: P_29  and  O_32
REMARK                            x       y       z     vdW  Elec       q    Type
REMARK                         _______ _______ _______ _____ _____    ______ ____
ROOT
ATOM      1  CA  UNL     1       6.587   6.670  18.082  0.00  0.00    +0.000 C 
ENDROOT
BRANCH   1   3
ATOM      2  N   UNL     1       4.188   6.578  18.501  0.00  0.00    +0.000 N 
ATOM      3  C   UNL     1       5.148   6.996  17.597  0.00  0.00    +0.000 C 
ATOM      4  O   UNL     1       4.868   7.604  16.572  0.00  0.00    +0.000 OA
ATOM      5  H   UNL     1       4.508   5.980  19.257  0.00  0.00    +0.000 HD
BRANCH   2   6
ATOM      6  CA  UNL     1       2.757   6.696  18.220  0.00  0.00    +0.000 C 
BRANCH   6   8
ATOM      7  O   UNL     1       1.667   8.833  18.746  0.00  0.00    +0.000 OA
ATOM      8  C   UNL     1       2.118   7.759  19.124  0.00  0.00    +0.000 C 
BRANCH   8   9
ATOM      9  OXT UNL     1       2.188   7.460  20.448  0.00  0.00    +0.000 OA
ATOM     10  HXT UNL     1       3.113   7.462  20.770  0.00  0.00    +0.000 HD
ENDBRANCH   8   9
ENDBRANCH   6   8
BRANCH   6  11
ATOM     11  CB  UNL     1       2.012   5.342  18.148  0.00  0.00    +0.000 C 
BRANCH  11  12
ATOM     12  CG  UNL     1       2.727   4.061  18.658  0.00  0.00    +0.000 C 
ATOM     13  CD1 UNL     1       3.216   4.093  20.116  0.00  0.00    +0.000 C 
ATOM     14  CE1 UNL     1       2.079   4.021  21.138  0.00  0.00    +0.000 C 
ATOM     15  CZ  UNL     1       1.230   2.775  20.933  0.00  0.00    +0.000 C 
ATOM     16  CE2 UNL     1       0.698   2.711  19.504  0.00  0.00    +0.000 C 
ATOM     17  CD2 UNL     1       1.829   2.812  18.475  0.00  0.00    +0.000 C 
ENDBRANCH  11  12
ENDBRANCH   6  11
ENDBRANCH   2   6
ENDBRANCH   1   3
BRANCH   1  18
ATOM     18  N   UNL     1       6.710   5.168  18.208  0.00  0.00    +0.000 NA
ATOM     19  H   UNL     1       5.758   4.774  18.175  0.00  0.00    +0.000 HD
BRANCH  18  20
ATOM     20  C   UNL     1       7.481   4.590  17.091  0.00  0.00    +0.000 C 
BRANCH  20  21
ATOM     21  P   UNL     1       6.636   4.578  15.515  0.00  0.00    +0.000 P 
ATOM     22  O   UNL     1       7.657   5.054  14.530  0.00  0.00    +0.000 OA
BRANCH  21  23
ATOM     23  O   UNL     1       6.252   3.023  15.458  0.00  0.00    +0.000 OA
ATOM     24  H   UNL     1       6.572   2.541  16.242  0.00  0.00    +0.000 HD
ENDBRANCH  21  23
BRANCH  21  25
ATOM     25  O   UNL     1       5.319   5.154  14.848  0.00  0.00    +0.000 OA
ATOM     26  H   UNL     1       4.625   4.587  15.287  0.00  0.00    +0.000 HD
ENDBRANCH  21  25
ENDBRANCH  20  21
ENDBRANCH  18  20
ENDBRANCH   1  18
BRANCH   1  27
ATOM     27  C   UNL     1       7.603   7.399  17.154  0.00  0.00    +0.000 C 
BRANCH  27  28
ATOM     28  C   UNL     1       8.097   8.626  17.811  0.00  0.00    +0.000 C 
ATOM     29  C   UNL     1       8.647   9.612  18.288  0.00  0.00    +0.000 C 
BRANCH  29  30
ATOM     30  C   UNL     1       9.323  10.735  18.829  0.00  0.00    +0.000 A 
ATOM     31  C   UNL     1       9.866  11.704  17.975  0.00  0.00    +0.000 A 
ATOM     32  C   UNL     1      10.526  12.820  18.516  0.00  0.00    +0.000 A 
ATOM     33  C   UNL     1      10.651  12.950  19.894  0.00  0.00    +0.000 A 
ATOM     34  F   UNL     1      11.281  14.027  20.398  0.00  0.00    +0.000 F 
ATOM     35  C   UNL     1      10.151  11.995  20.751  0.00  0.00    +0.000 A 
ATOM     36  C   UNL     1       9.477  10.871  20.225  0.00  0.00    +0.000 A 
ATOM     37  F   UNL     1       9.003   9.968  21.046  0.00  0.00    +0.000 F 
ENDBRANCH  29  30
ENDBRANCH  27  28
ENDBRANCH   1  27
TORSDOF 14
ENDMDL
MODEL 5
REMARK VINA RESULT:      -7.8      2.014      3.113
REMARK  Name = 
REMARK  14 active torsions:
REMARK  status: ('A' for Active; 'I' for Inactive)
REMARK    1  A    between atoms: C_2  and  OXT_3
REMARK    2  A    between atoms: C_2  and  CA_4
REMARK    3  A    between atoms: CA_4  and  CB_5
REMARK    4  A    between atoms: CA_4  and  N_12
REMARK    5  A    between atoms: CB_5  and  CG_6
REMARK    6  A    between atoms: C_13  and  CA_15
REMARK    7  A    between atoms: CA_15  and  C_16
REMARK    8  A    between atoms: CA_15  and  N_27
REMARK    9  A    between atoms: C_16  and  C_17
REMARK   10  A    between atoms: C_18  and  C_19
REMARK   11  A    between atoms: N_27  and  C_28
REMARK   12  A    between atoms: C_28  and  P_29
REMARK   13  A    between atoms: P_29  and  O_31
REMARK   14  A    between atoms: P_29  and  O_32
REMARK                            x       y       z     vdW  Elec       q    Type
REMARK                         _______ _______ _______ _____ _____    ______ ____
ROOT
ATOM      1  CA  UNL     1       7.044   5.522  17.706  0.00  0.00    +0.000 C 
ENDROOT
BRANCH   1   3
ATOM      2  N   UNL     1       5.254   3.889  17.966  0.00  0.00    +0.000 N 
ATOM      3  C   UNL     1       5.830   5.013  18.530  0.00  0.00    +0.000 C 
ATOM      4  O   UNL     1       5.443   5.491  19.589  0.00  0.00    +0.000 OA
ATOM      5  H   UNL     1       5.567   3.641  17.032  0.00  0.00    +0.000 HD
BRANCH   2   6
ATOM      6  CA  UNL     1       4.041   3.282  18.515  0.00  0.00    +0.000 C 
BRANCH   6   8
ATOM      7  O   UNL     1       3.826   0.848  18.754  0.00  0.00    +0.000 OA
ATOM      8  C   UNL     1       4.351   1.898  19.101  0.00  0.00    +0.000 C 
BRANCH   8   9
ATOM      9  OXT UNL     1       5.210   1.933  20.154  0.00  0.00    +0.000 OA
ATOM     10  HXT UNL     1       5.950   2.554  19.994  0.00  0.00    +0.000 HD
ENDBRANCH   8   9
ENDBRANCH   6   8
BRANCH   6  11
ATOM     11  CB  UNL     1       2.816   3.353  17.574  0.00  0.00    +0.000 C 
BRANCH  11  12
ATOM     12  CG  UNL     1       1.487   3.952  18.112  0.00  0.00    +0.000 C 
ATOM     13  CD1 UNL     1       1.099   3.560  19.548  0.00  0.00    +0.000 C 
ATOM     14  CE1 UNL     1       1.978   4.220  20.613  0.00  0.00    +0.000 C 
ATOM     15  CZ  UNL     1       1.946   5.737  20.493  0.00  0.00    +0.000 C 
ATOM     16  CE2 UNL     1       2.349   6.178  19.089  0.00  0.00    +0.000 C 
ATOM     17  CD2 UNL     1       1.494   5.498  18.016  0.00  0.00    +0.000 C 
ENDBRANCH  11  12
ENDBRANCH   6  11
ENDBRANCH   2   6
ENDBRANCH   1   3
BRANCH   1  18
ATOM     18  N   UNL     1       6.526   6.458  16.637  0.00  0.00    +0.000 NA
ATOM     19  H   UNL     1       7.341   6.819  16.119  0.00  0.00    +0.000 HD
BRANCH  18  20
ATOM     20  C   UNL     1       5.652   5.755  15.678  0.00  0.00    +0.000 C 
BRANCH  20  21
ATOM     21  P   UNL     1       6.497   4.656  14.549  0.00  0.00    +0.000 P 
ATOM     22  O   UNL     1       7.863   5.246  14.391  0.00  0.00    +0.000 OA
BRANCH  21  23
ATOM     23  O   UNL     1       6.392   3.304  15.403  0.00  0.00    +0.000 OA
ATOM     24  H   UNL     1       6.874   2.570  14.982  0.00  0.00    +0.000 HD
ENDBRANCH  21  23
BRANCH  21  25
ATOM     25  O   UNL     1       6.302   4.022  13.109  0.00  0.00    +0.000 OA
ATOM     26  H   UNL     1       6.143   3.066  13.348  0.00  0.00    +0.000 HD
ENDBRANCH  21  25
ENDBRANCH  20  21
ENDBRANCH  18  20
ENDBRANCH   1  18
BRANCH   1  27
ATOM     27  C   UNL     1       8.116   6.079  18.690  0.00  0.00    +0.000 C 
BRANCH  27  28
ATOM     28  C   UNL     1       8.184   7.550  18.585  0.00  0.00    +0.000 C 
ATOM     29  C   UNL     1       8.385   8.759  18.560  0.00  0.00    +0.000 C 
BRANCH  29  30
ATOM     30  C   UNL     1       8.653  10.151  18.560  0.00  0.00    +0.000 A 
ATOM     31  C   UNL     1       8.317  10.929  17.444  0.00  0.00    +0.000 A 
ATOM     32  C   UNL     1       8.577  12.309  17.452  0.00  0.00    +0.000 A 
ATOM     33  C   UNL     1       9.178  12.894  18.560  0.00  0.00    +0.000 A 
ATOM     34  F   UNL     1       9.416  14.219  18.556  0.00  0.00    +0.000 F 
ATOM     35  C   UNL     1       9.544  12.145  19.655  0.00  0.00    +0.000 A 
ATOM     36  C   UNL     1       9.283  10.757  19.667  0.00  0.00    +0.000 A 
ATOM     37  F   UNL     1       9.633  10.051  20.714  0.00  0.00    +0.000 F 
ENDBRANCH  29  30
ENDBRANCH  27  28
ENDBRANCH   1  27
TORSDOF 14
ENDMDL
MODEL 6
REMARK VINA RESULT:      -7.7      4.971      8.834
REMARK  Name = 
REMARK  14 active torsions:
REMARK  status: ('A' for Active; 'I' for Inactive)
REMARK    1  A    between atoms: C_2  and  OXT_3
REMARK    2  A    between atoms: C_2  and  CA_4
REMARK    3  A    between atoms: CA_4  and  CB_5
REMARK    4  A    between atoms: CA_4  and  N_12
REMARK    5  A    between atoms: CB_5  and  CG_6
REMARK    6  A    between atoms: C_13  and  CA_15
REMARK    7  A    between atoms: CA_15  and  C_16
REMARK    8  A    between atoms: CA_15  and  N_27
REMARK    9  A    between atoms: C_16  and  C_17
REMARK   10  A    between atoms: C_18  and  C_19
REMARK   11  A    between atoms: N_27  and  C_28
REMARK   12  A    between atoms: C_28  and  P_29
REMARK   13  A    between atoms: P_29  and  O_31
REMARK   14  A    between atoms: P_29  and  O_32
REMARK                            x       y       z     vdW  Elec       q    Type
REMARK                         _______ _______ _______ _____ _____    ______ ____
ROOT
ATOM      1  CA  UNL     1       1.847   7.263  19.439  0.00  0.00    +0.000 C 
ENDROOT
BRANCH   1   3
ATOM      2  N   UNL     1       2.223   5.350  17.977  0.00  0.00    +0.000 N 
ATOM      3  C   UNL     1       2.722   6.033  19.072  0.00  0.00    +0.000 C 
ATOM      4  O   UNL     1       3.765   5.717  19.628  0.00  0.00    +0.000 OA
ATOM      5  H   UNL     1       1.295   5.615  17.663  0.00  0.00    +0.000 HD
BRANCH   2   6
ATOM      6  CA  UNL     1       2.828   4.105  17.501  0.00  0.00    +0.000 C 
BRANCH   6   8
ATOM      7  O   UNL     1       1.667   2.869  19.277  0.00  0.00    +0.000 OA
ATOM      8  C   UNL     1       2.144   2.894  18.150  0.00  0.00    +0.000 C 
BRANCH   8   9
ATOM      9  OXT UNL     1       2.201   1.767  17.392  0.00  0.00    +0.000 OA
ATOM     10  HXT UNL     1       2.884   1.836  16.694  0.00  0.00    +0.000 HD
ENDBRANCH   8   9
ENDBRANCH   6   8
BRANCH   6  11
ATOM     11  CB  UNL     1       4.374   4.099  17.535  0.00  0.00    +0.000 C 
BRANCH  11  12
ATOM     12  CG  UNL     1       5.156   4.684  16.327  0.00  0.00    +0.000 C 
ATOM     13  CD1 UNL     1       5.071   6.207  16.138  0.00  0.00    +0.000 C 
ATOM     14  CE1 UNL     1       5.856   6.993  17.191  0.00  0.00    +0.000 C 
ATOM     15  CZ  UNL     1       7.322   6.582  17.208  0.00  0.00    +0.000 C 
ATOM     16  CE2 UNL     1       7.460   5.077  17.419  0.00  0.00    +0.000 C 
ATOM     17  CD2 UNL     1       6.653   4.285  16.387  0.00  0.00    +0.000 C 
ENDBRANCH  11  12
ENDBRANCH   6  11
ENDBRANCH   2   6
ENDBRANCH   1   3
BRANCH   1  18
ATOM     18  N   UNL     1       2.016   7.536  20.917  0.00  0.00    +0.000 NA
ATOM     19  H   UNL     1       2.703   8.298  21.015  0.00  0.00    +0.000 HD
BRANCH  18  20
ATOM     20  C   UNL     1       0.752   7.980  21.535  0.00  0.00    +0.000 C 
BRANCH  20  21
ATOM     21  P   UNL     1       0.825   9.571  22.347  0.00  0.00    +0.000 P 
ATOM     22  O   UNL     1      -0.325   9.564  23.305  0.00  0.00    +0.000 OA
BRANCH  21  23
ATOM     23  O   UNL     1       2.291   9.452  22.982  0.00  0.00    +0.000 OA
ATOM     24  H   UNL     1       2.707  10.325  23.102  0.00  0.00    +0.000 HD
ENDBRANCH  21  23
BRANCH  21  25
ATOM     25  O   UNL     1       0.868  11.113  21.979  0.00  0.00    +0.000 OA
ATOM     26  H   UNL     1       0.533  11.088  21.039  0.00  0.00    +0.000 HD
ENDBRANCH  21  25
ENDBRANCH  20  21
ENDBRANCH  18  20
ENDBRANCH   1  18
BRANCH   1  27
ATOM     27  C   UNL     1       2.177   8.422  18.452  0.00  0.00    +0.000 C 
BRANCH  27  28
ATOM     28  C   UNL     1       0.936   9.116  18.054  0.00  0.00    +0.000 C 
ATOM     29  C   UNL     1      -0.149   9.654  17.868  0.00  0.00    +0.000 C 
BRANCH  29  30
ATOM     30  C   UNL     1      -1.421  10.257  17.690  0.00  0.00    +0.000 A 
ATOM     31  C   UNL     1      -2.140  10.039  16.508  0.00  0.00    +0.000 A 
ATOM     32  C   UNL     1      -3.403  10.630  16.340  0.00  0.00    +0.000 A 
ATOM     33  C   UNL     1      -3.926  11.440  17.341  0.00  0.00    +0.000 A 
ATOM     34  F   UNL     1      -5.140  11.996  17.168  0.00  0.00    +0.000 F 
ATOM     35  C   UNL     1      -3.224  11.693  18.498  0.00  0.00    +0.000 A 
ATOM     36  C   UNL     1      -1.957  11.099  18.686  0.00  0.00    +0.000 A 
ATOM     37  F   UNL     1      -1.296  11.343  19.790  0.00  0.00    +0.000 F 
ENDBRANCH  29  30
ENDBRANCH  27  28
ENDBRANCH   1  27
TORSDOF 14
ENDMDL
MODEL 7
REMARK VINA RESULT:      -7.6      1.128      1.753
REMARK  Name = 
REMARK  14 active torsions:
REMARK  status: ('A' for Active; 'I' for Inactive)
REMARK    1  A    between atoms: C_2  and  OXT_3
REMARK    2  A    between atoms: C_2  and  CA_4
REMARK    3  A    between atoms: CA_4  and  CB_5
REMARK    4  A    between atoms: CA_4  and  N_12
REMARK    5  A    between atoms: CB_5  and  CG_6
REMARK    6  A    between atoms: C_13  and  CA_15
REMARK    7  A    between atoms: CA_15  and  C_16
REMARK    8  A    between atoms: CA_15  and  N_27
REMARK    9  A    between atoms: C_16  and  C_17
REMARK   10  A    between atoms: C_18  and  C_19
REMARK   11  A    between atoms: N_27  and  C_28
REMARK   12  A    between atoms: C_28  and  P_29
REMARK   13  A    between atoms: P_29  and  O_31
REMARK   14  A    between atoms: P_29  and  O_32
REMARK                            x       y       z     vdW  Elec       q    Type
REMARK                         _______ _______ _______ _____ _____    ______ ____
ROOT
ATOM      1  CA  UNL     1       7.319   6.071  18.155  0.00  0.00    +0.000 C 
ENDROOT
BRANCH   1   3
ATOM      2  N   UNL     1       4.895   5.897  18.338  0.00  0.00    +0.000 N 
ATOM      3  C   UNL     1       6.089   5.477  18.896  0.00  0.00    +0.000 C 
ATOM      4  O   UNL     1       6.140   4.683  19.825  0.00  0.00    +0.000 OA
ATOM      5  H   UNL     1       4.953   6.645  17.654  0.00  0.00    +0.000 HD
BRANCH   2   6
ATOM      6  CA  UNL     1       3.601   5.541  18.922  0.00  0.00    +0.000 C 
BRANCH   6   8
ATOM      7  O   UNL     1       1.996   7.060  19.993  0.00  0.00    +0.000 OA
ATOM      8  C   UNL     1       2.703   6.781  19.033  0.00  0.00    +0.000 C 
BRANCH   8   9
ATOM      9  OXT UNL     1       2.662   7.526  17.897  0.00  0.00    +0.000 OA
ATOM     10  HXT UNL     1       3.495   8.023  17.762  0.00  0.00    +0.000 HD
ENDBRANCH   8   9
ENDBRANCH   6   8
BRANCH   6  11
ATOM     11  CB  UNL     1       3.699   4.668  20.195  0.00  0.00    +0.000 C 
BRANCH  11  12
ATOM     12  CG  UNL     1       3.343   3.159  20.102  0.00  0.00    +0.000 C 
ATOM     13  CD1 UNL     1       2.073   2.715  20.848  0.00  0.00    +0.000 C 
ATOM     14  CE1 UNL     1       0.781   3.194  20.180  0.00  0.00    +0.000 C 
ATOM     15  CZ  UNL     1       0.695   2.716  18.738  0.00  0.00    +0.000 C 
ATOM     16  CE2 UNL     1       1.924   3.155  17.948  0.00  0.00    +0.000 C 
ATOM     17  CD2 UNL     1       3.222   2.705  18.625  0.00  0.00    +0.000 C 
ENDBRANCH  11  12
ENDBRANCH   6  11
ENDBRANCH   2   6
ENDBRANCH   1   3
BRANCH   1  18
ATOM     18  N   UNL     1       7.980   4.956  17.376  0.00  0.00    +0.000 NA
ATOM     19  H   UNL     1       8.428   4.325  18.057  0.00  0.00    +0.000 HD
BRANCH  18  20
ATOM     20  C   UNL     1       6.995   4.171  16.608  0.00  0.00    +0.000 C 
BRANCH  20  21
ATOM     21  P   UNL     1       6.623   4.807  14.979  0.00  0.00    +0.000 P 
ATOM     22  O   UNL     1       7.899   5.437  14.514  0.00  0.00    +0.000 OA
BRANCH  21  23
ATOM     23  O   UNL     1       6.202   3.432  14.272  0.00  0.00    +0.000 OA
ATOM     24  H   UNL     1       5.769   3.583  13.412  0.00  0.00    +0.000 HD
ENDBRANCH  21  23
BRANCH  21  25
ATOM     25  O   UNL     1       5.572   5.754  14.264  0.00  0.00    +0.000 OA
ATOM     26  H   UNL     1       4.934   5.078  13.897  0.00  0.00    +0.000 HD
ENDBRANCH  21  25
ENDBRANCH  20  21
ENDBRANCH  18  20
ENDBRANCH   1  18
BRANCH   1  27
ATOM     27  C   UNL     1       6.862   7.330  17.360  0.00  0.00    +0.000 C 
BRANCH  27  28
ATOM     28  C   UNL     1       7.736   8.475  17.682  0.00  0.00    +0.000 C 
ATOM     29  C   UNL     1       8.348   9.472  18.050  0.00  0.00    +0.000 C 
BRANCH  29  30
ATOM     30  C   UNL     1       9.018  10.639  18.495  0.00  0.00    +0.000 A 
ATOM     31  C   UNL     1       9.968  10.555  19.521  0.00  0.00    +0.000 A 
ATOM     32  C   UNL     1      10.636  11.713  19.952  0.00  0.00    +0.000 A 
ATOM     33  C   UNL     1      10.340  12.939  19.369  0.00  0.00    +0.000 A 
ATOM     34  F   UNL     1      10.992  14.040  19.788  0.00  0.00    +0.000 F 
ATOM     35  C   UNL     1       9.389  13.051  18.380  0.00  0.00    +0.000 A 
ATOM     36  C   UNL     1       8.714  11.896  17.929  0.00  0.00    +0.000 A 
ATOM     37  F   UNL     1       7.812  12.010  16.987  0.00  0.00    +0.000 F 
ENDBRANCH  29  30
ENDBRANCH  27  28
ENDBRANCH   1  27
TORSDOF 14
ENDMDL
MODEL 8
REMARK VINA RESULT:      -7.6      5.106      9.092
REMARK  Name = 
REMARK  14 active torsions:
REMARK  status: ('A' for Active; 'I' for Inactive)
REMARK    1  A    between atoms: C_2  and  OXT_3
REMARK    2  A    between atoms: C_2  and  CA_4
REMARK    3  A    between atoms: CA_4  and  CB_5
REMARK    4  A    between atoms: CA_4  and  N_12
REMARK    5  A    between atoms: CB_5  and  CG_6
REMARK    6  A    between atoms: C_13  and  CA_15
REMARK    7  A    between atoms: CA_15  and  C_16
REMARK    8  A    between atoms: CA_15  and  N_27
REMARK    9  A    between atoms: C_16  and  C_17
REMARK   10  A    between atoms: C_18  and  C_19
REMARK   11  A    between atoms: N_27  and  C_28
REMARK   12  A    between atoms: C_28  and  P_29
REMARK   13  A    between atoms: P_29  and  O_31
REMARK   14  A    between atoms: P_29  and  O_32
REMARK                            x       y       z     vdW  Elec       q    Type
REMARK                         _______ _______ _______ _____ _____    ______ ____
ROOT
ATOM      1  CA  UNL     1       1.965   7.736  18.921  0.00  0.00    +0.000 C 
ENDROOT
BRANCH   1   3
ATOM      2  N   UNL     1       3.190   5.629  18.900  0.00  0.00    +0.000 N 
ATOM      3  C   UNL     1       3.079   6.862  18.282  0.00  0.00    +0.000 C 
ATOM      4  O   UNL     1       3.752   7.176  17.309  0.00  0.00    +0.000 OA
ATOM      5  H   UNL     1       2.676   5.510  19.767  0.00  0.00    +0.000 HD
BRANCH   2   6
ATOM      6  CA  UNL     1       4.231   4.670  18.529  0.00  0.00    +0.000 C 
BRANCH   6   8
ATOM      7  O   UNL     1       2.860   2.815  19.372  0.00  0.00    +0.000 OA
ATOM      8  C   UNL     1       3.679   3.238  18.566  0.00  0.00    +0.000 C 
BRANCH   8   9
ATOM      9  OXT UNL     1       4.269   2.404  17.670  0.00  0.00    +0.000 OA
ATOM     10  HXT UNL     1       4.764   2.902  16.986  0.00  0.00    +0.000 HD
ENDBRANCH   8   9
ENDBRANCH   6   8
BRANCH   6  11
ATOM     11  CB  UNL     1       5.580   4.888  19.254  0.00  0.00    +0.000 C 
BRANCH  11  12
ATOM     12  CG  UNL     1       6.901   4.694  18.460  0.00  0.00    +0.000 C 
ATOM     13  CD1 UNL     1       6.806   4.862  16.934  0.00  0.00    +0.000 C 
ATOM     14  CE1 UNL     1       6.605   6.315  16.497  0.00  0.00    +0.000 C 
ATOM     15  CZ  UNL     1       7.721   7.208  17.020  0.00  0.00    +0.000 C 
ATOM     16  CE2 UNL     1       7.838   7.096  18.537  0.00  0.00    +0.000 C 
ATOM     17  CD2 UNL     1       8.009   5.641  18.984  0.00  0.00    +0.000 C 
ENDBRANCH  11  12
ENDBRANCH   6  11
ENDBRANCH   2   6
ENDBRANCH   1   3
BRANCH   1  18
ATOM     18  N   UNL     1       2.176   7.744  20.419  0.00  0.00    +0.000 NA
ATOM     19  H   UNL     1       2.769   8.558  20.644  0.00  0.00    +0.000 HD
BRANCH  18  20
ATOM     20  C   UNL     1       0.902   7.894  21.147  0.00  0.00    +0.000 C 
BRANCH  20  21
ATOM     21  P   UNL     1       0.739   9.408  22.084  0.00  0.00    +0.000 P 
ATOM     22  O   UNL     1      -0.502   9.223  22.898  0.00  0.00    +0.000 OA
BRANCH  21  23
ATOM     23  O   UNL     1       2.132   9.355  22.875  0.00  0.00    +0.000 OA
ATOM     24  H   UNL     1       2.355   8.449  23.157  0.00  0.00    +0.000 HD
ENDBRANCH  21  23
BRANCH  21  25
ATOM     25  O   UNL     1       0.681  10.975  21.846  0.00  0.00    +0.000 OA
ATOM     26  H   UNL     1       1.578  11.247  22.189  0.00  0.00    +0.000 HD
ENDBRANCH  21  25
ENDBRANCH  20  21
ENDBRANCH  18  20
ENDBRANCH   1  18
BRANCH   1  27
ATOM     27  C   UNL     1       1.930   9.112  18.192  0.00  0.00    +0.000 C 
BRANCH  27  28
ATOM     28  C   UNL     1       0.540   9.605  18.110  0.00  0.00    +0.000 C 
ATOM     29  C   UNL     1      -0.590  10.023  17.885  0.00  0.00    +0.000 C 
BRANCH  29  30
ATOM     30  C   UNL     1      -1.884  10.518  17.584  0.00  0.00    +0.000 A 
ATOM     31  C   UNL     1      -2.451  10.278  16.326  0.00  0.00    +0.000 A 
ATOM     32  C   UNL     1      -3.736  10.762  16.035  0.00  0.00    +0.000 A 
ATOM     33  C   UNL     1      -4.434  11.490  16.991  0.00  0.00    +0.000 A 
ATOM     34  F   UNL     1      -5.668  11.944  16.700  0.00  0.00    +0.000 F 
ATOM     35  C   UNL     1      -3.885  11.764  18.223  0.00  0.00    +0.000 A 
ATOM     36  C   UNL     1      -2.597  11.278  18.535  0.00  0.00    +0.000 A 
ATOM     37  F   UNL     1      -2.082  11.541  19.710  0.00  0.00    +0.000 F 
ENDBRANCH  29  30
ENDBRANCH  27  28
ENDBRANCH   1  27
TORSDOF 14
ENDMDL
MODEL 9
REMARK VINA RESULT:      -7.5      5.596      9.418
REMARK  Name = 
REMARK  14 active torsions:
REMARK  status: ('A' for Active; 'I' for Inactive)
REMARK    1  A    between atoms: C_2  and  OXT_3
REMARK    2  A    between atoms: C_2  and  CA_4
REMARK    3  A    between atoms: CA_4  and  CB_5
REMARK    4  A    between atoms: CA_4  and  N_12
REMARK    5  A    between atoms: CB_5  and  CG_6
REMARK    6  A    between atoms: C_13  and  CA_15
REMARK    7  A    between atoms: CA_15  and  C_16
REMARK    8  A    between atoms: CA_15  and  N_27
REMARK    9  A    between atoms: C_16  and  C_17
REMARK   10  A    between atoms: C_18  and  C_19
REMARK   11  A    between atoms: N_27  and  C_28
REMARK   12  A    between atoms: C_28  and  P_29
REMARK   13  A    between atoms: P_29  and  O_31
REMARK   14  A    between atoms: P_29  and  O_32
REMARK                            x       y       z     vdW  Elec       q    Type
REMARK                         _______ _______ _______ _____ _____    ______ ____
ROOT
ATOM      1  CA  UNL     1       1.285   8.607  19.608  0.00  0.00    +0.000 C 
ENDROOT
BRANCH   1   3
ATOM      2  N   UNL     1       2.305   6.518  18.879  0.00  0.00    +0.000 N 
ATOM      3  C   UNL     1       2.163   7.858  18.568  0.00  0.00    +0.000 C 
ATOM      4  O   UNL     1       2.636   8.354  17.554  0.00  0.00    +0.000 OA
ATOM      5  H   UNL     1       1.982   6.229  19.797  0.00  0.00    +0.000 HD
BRANCH   2   6
ATOM      6  CA  UNL     1       3.163   5.629  18.094  0.00  0.00    +0.000 C 
BRANCH   6   8
ATOM      7  O   UNL     1       1.777   3.800  17.220  0.00  0.00    +0.000 OA
ATOM      8  C   UNL     1       2.574   4.213  18.053  0.00  0.00    +0.000 C 
BRANCH   8   9
ATOM      9  OXT UNL     1       2.930   3.444  19.116  0.00  0.00    +0.000 OA
ATOM     10  HXT UNL     1       3.763   2.958  18.947  0.00  0.00    +0.000 HD
ENDBRANCH   8   9
ENDBRANCH   6   8
BRANCH   6  11
ATOM     11  CB  UNL     1       4.665   5.720  18.451  0.00  0.00    +0.000 C 
BRANCH  11  12
ATOM     12  CG  UNL     1       5.631   6.436  17.468  0.00  0.00    +0.000 C 
ATOM     13  CD1 UNL     1       7.115   6.047  17.572  0.00  0.00    +0.000 C 
ATOM     14  CE1 UNL     1       7.411   4.642  17.041  0.00  0.00    +0.000 C 
ATOM     15  CZ  UNL     1       6.965   4.493  15.593  0.00  0.00    +0.000 C 
ATOM     16  CE2 UNL     1       5.488   4.844  15.444  0.00  0.00    +0.000 C 
ATOM     17  CD2 UNL     1       5.179   6.238  16.000  0.00  0.00    +0.000 C 
ENDBRANCH  11  12
ENDBRANCH   6  11
ENDBRANCH   2   6
ENDBRANCH   1   3
BRANCH   1  18
ATOM     18  N   UNL     1       1.746   8.202  20.990  0.00  0.00    +0.000 NA
ATOM     19  H   UNL     1       2.749   7.974  20.928  0.00  0.00    +0.000 HD
BRANCH  18  20
ATOM     20  C   UNL     1       1.587   9.302  21.960  0.00  0.00    +0.000 C 
BRANCH  20  21
ATOM     21  P   UNL     1      -0.068   9.514  22.601  0.00  0.00    +0.000 P 
ATOM     22  O   UNL     1      -0.822   8.316  22.115  0.00  0.00    +0.000 OA
BRANCH  21  23
ATOM     23  O   UNL     1       0.281   9.558  24.164  0.00  0.00    +0.000 OA
ATOM     24  H   UNL     1       0.984   8.925  24.398  0.00  0.00    +0.000 HD
ENDBRANCH  21  23
BRANCH  21  25
ATOM     25  O   UNL     1      -1.232  10.590  22.605  0.00  0.00    +0.000 OA
ATOM     26  H   UNL     1      -0.733  11.401  22.904  0.00  0.00    +0.000 HD
ENDBRANCH  21  25
ENDBRANCH  20  21
ENDBRANCH  18  20
ENDBRANCH   1  18
BRANCH   1  27
ATOM     27  C   UNL     1       1.293  10.127  19.264  0.00  0.00    +0.000 C 
BRANCH  27  28
ATOM     28  C   UNL     1      -0.010  10.522  18.693  0.00  0.00    +0.000 C 
ATOM     29  C   UNL     1      -1.152  10.822  18.364  0.00  0.00    +0.000 C 
BRANCH  29  30
ATOM     30  C   UNL     1      -2.488  11.152  18.021  0.00  0.00    +0.000 A 
ATOM     31  C   UNL     1      -2.972  10.870  16.737  0.00  0.00    +0.000 A 
ATOM     32  C   UNL     1      -4.298  11.190  16.405  0.00  0.00    +0.000 A 
ATOM     33  C   UNL     1      -5.120  11.797  17.347  0.00  0.00    +0.000 A 
ATOM     34  F   UNL     1      -6.391  12.093  17.017  0.00  0.00    +0.000 F 
ATOM     35  C   UNL     1      -4.658  12.110  18.605  0.00  0.00    +0.000 A 
ATOM     36  C   UNL     1      -3.329  11.788  18.958  0.00  0.00    +0.000 A 
ATOM     37  F   UNL     1      -2.896  12.088  20.157  0.00  0.00    +0.000 F 
ENDBRANCH  29  30
ENDBRANCH  27  28
ENDBRANCH   1  27
TORSDOF 14
ENDMDL
