MODEL 1
REMARK VINA RESULT:      -7.7      0.000      0.000
REMARK  Name = 
REMARK  2 active torsions:
REMARK  status: ('A' for Active; 'I' for Inactive)
REMARK    1  A    between atoms: C_1  and  N_2
REMARK    2  A    between atoms: C_6  and  C_7
REMARK                            x       y       z     vdW  Elec       q    Type
REMARK                         _______ _______ _______ _____ _____    ______ ____
ROOT
ATOM      1  C   UNL     1       2.132   2.430  21.497  0.00  0.00    +0.000 C 
ATOM      2  N   UNL     1       2.280   3.087  20.208  0.00  0.00    +0.000 NA
ATOM      3  C   UNL     1       2.318   2.129  19.084  0.00  0.00    +0.000 C 
ATOM      4  C   UNL     1       2.558   2.853  17.730  0.00  0.00    +0.000 C 
ATOM      5  C   UNL     1       3.916   3.519  17.742  0.00  0.00    +0.000 C 
ATOM      6  C   UNL     1       4.065   4.779  18.193  0.00  0.00    +0.000 C 
ATOM      7  C   UNL     1       2.908   5.617  18.700  0.00  0.00    +0.000 C 
ATOM      8  C   UNL     1       1.532   4.898  18.681  0.00  0.00    +0.000 C 
ATOM      9  C   UNL     1       1.474   3.916  17.507  0.00  0.00    +0.000 C 
ATOM     10  C   UNL     1       1.266   4.123  19.990  0.00  0.00    +0.000 C 
ENDROOT
BRANCH   6  11
ATOM     11  C   UNL     1       5.402   5.379  18.266  0.00  0.00    +0.000 A 
ATOM     12  C   UNL     1       6.210   5.108  19.366  0.00  0.00    +0.000 A 
ATOM     13  N   UNL     1       7.456   5.612  19.542  0.00  0.00    +0.000 NA
ATOM     14  C   UNL     1       7.921   6.429  18.575  0.00  0.00    +0.000 A 
ATOM     15  C   UNL     1       7.209   6.756  17.437  0.00  0.00    +0.000 A 
ATOM     16  C   UNL     1       5.931   6.221  17.286  0.00  0.00    +0.000 A 
ATOM     17 CL   UNL     1       5.050   6.630  15.855  0.00  0.00    +0.000 Cl
ENDBRANCH   6  11
TORSDOF 1
ENDMDL
MODEL 2
REMARK VINA RESULT:      -7.2      1.788      5.420
REMARK  Name = 
REMARK  2 active torsions:
REMARK  status: ('A' for Active; 'I' for Inactive)
REMARK    1  A    between atoms: C_1  and  N_2
REMARK    2  A    between atoms: C_6  and  C_7
REMARK                            x       y       z     vdW  Elec       q    Type
REMARK                         _______ _______ _______ _____ _____    ______ ____
ROOT
ATOM      1  C   UNL     1       7.854   5.917  18.975  0.00  0.00    +0.000 C 
ATOM      2  N   UNL     1       6.802   5.637  18.010  0.00  0.00    +0.000 NA
ATOM      3  C   UNL     1       6.271   6.861  17.377  0.00  0.00    +0.000 C 
ATOM      4  C   UNL     1       5.096   6.537  16.413  0.00  0.00    +0.000 C 
ATOM      5  C   UNL     1       3.942   5.951  17.195  0.00  0.00    +0.000 C 
ATOM      6  C   UNL     1       3.850   4.624  17.404  0.00  0.00    +0.000 C 
ATOM      7  C   UNL     1       4.865   3.632  16.871  0.00  0.00    +0.000 C 
ATOM      8  C   UNL     1       6.039   4.270  16.081  0.00  0.00    +0.000 C 
ATOM      9  C   UNL     1       5.555   5.527  15.352  0.00  0.00    +0.000 C 
ATOM     10  C   UNL     1       7.217   4.655  17.003  0.00  0.00    +0.000 C 
ENDROOT
BRANCH   6  11
ATOM     11  C   UNL     1       2.764   4.084  18.228  0.00  0.00    +0.000 A 
ATOM     12  C   UNL     1       2.212   2.848  17.901  0.00  0.00    +0.000 A 
ATOM     13  N   UNL     1       1.203   2.256  18.584  0.00  0.00    +0.000 NA
ATOM     14  C   UNL     1       0.716   2.928  19.647  0.00  0.00    +0.000 A 
ATOM     15  C   UNL     1       1.195   4.154  20.067  0.00  0.00    +0.000 A 
ATOM     16  C   UNL     1       2.233   4.736  19.342  0.00  0.00    +0.000 A 
ATOM     17 CL   UNL     1       2.832   6.267  19.879  0.00  0.00    +0.000 Cl
ENDBRANCH   6  11
TORSDOF 1
ENDMDL
MODEL 3
REMARK VINA RESULT:      -7.1      1.915      5.374
REMARK  Name = 
REMARK  2 active torsions:
REMARK  status: ('A' for Active; 'I' for Inactive)
REMARK    1  A    between atoms: C_1  and  N_2
REMARK    2  A    between atoms: C_6  and  C_7
REMARK                            x       y       z     vdW  Elec       q    Type
REMARK                         _______ _______ _______ _____ _____    ______ ____
ROOT
ATOM      1  C   UNL     1       8.019   6.389  18.823  0.00  0.00    +0.000 C 
ATOM      2  N   UNL     1       6.913   5.955  17.982  0.00  0.00    +0.000 NA
ATOM      3  C   UNL     1       6.373   7.047  17.148  0.00  0.00    +0.000 C 
ATOM      4  C   UNL     1       5.144   6.574  16.322  0.00  0.00    +0.000 C 
ATOM      5  C   UNL     1       4.022   6.186  17.258  0.00  0.00    +0.000 C 
ATOM      6  C   UNL     1       3.915   4.928  17.727  0.00  0.00    +0.000 C 
ATOM      7  C   UNL     1       4.883   3.822  17.352  0.00  0.00    +0.000 C 
ATOM      8  C   UNL     1       6.026   4.261  16.398  0.00  0.00    +0.000 C 
ATOM      9  C   UNL     1       5.528   5.365  15.460  0.00  0.00    +0.000 C 
ATOM     10  C   UNL     1       7.257   4.784  17.170  0.00  0.00    +0.000 C 
ENDROOT
BRANCH   6  11
ATOM     11  C   UNL     1       2.863   4.590  18.692  0.00  0.00    +0.000 A 
ATOM     12  C   UNL     1       2.557   5.491  19.708  0.00  0.00    +0.000 A 
ATOM     13  N   UNL     1       1.612   5.282  20.656  0.00  0.00    +0.000 NA
ATOM     14  C   UNL     1       0.937   4.117  20.591  0.00  0.00    +0.000 A 
ATOM     15  C   UNL     1       1.150   3.157  19.620  0.00  0.00    +0.000 A 
ATOM     16  C   UNL     1       2.129   3.403  18.660  0.00  0.00    +0.000 A 
ATOM     17 CL   UNL     1       2.385   2.201  17.444  0.00  0.00    +0.000 Cl
ENDBRANCH   6  11
TORSDOF 1
ENDMDL
MODEL 4
REMARK VINA RESULT:      -7.1      2.137      5.279
REMARK  Name = 
REMARK  2 active torsions:
REMARK  status: ('A' for Active; 'I' for Inactive)
REMARK    1  A    between atoms: C_1  and  N_2
REMARK    2  A    between atoms: C_6  and  C_7
REMARK                            x       y       z     vdW  Elec       q    Type
REMARK                         _______ _______ _______ _____ _____    ______ ____
ROOT
ATOM      1  C   UNL     1       6.103   3.795  14.544  0.00  0.00    +0.000 C 
ATOM      2  N   UNL     1       5.942   4.613  15.736  0.00  0.00    +0.000 NA
ATOM      3  C   UNL     1       7.064   4.464  16.684  0.00  0.00    +0.000 C 
ATOM      4  C   UNL     1       6.824   5.286  17.981  0.00  0.00    +0.000 C 
ATOM      5  C   UNL     1       5.608   4.753  18.704  0.00  0.00    +0.000 C 
ATOM      6  C   UNL     1       4.377   5.228  18.435  0.00  0.00    +0.000 C 
ATOM      7  C   UNL     1       4.120   6.323  17.417  0.00  0.00    +0.000 C 
ATOM      8  C   UNL     1       5.390   6.840  16.689  0.00  0.00    +0.000 C 
ATOM      9  C   UNL     1       6.597   6.762  17.628  0.00  0.00    +0.000 C 
ATOM     10  C   UNL     1       5.699   6.023  15.415  0.00  0.00    +0.000 C 
ENDROOT
BRANCH   6  11
ATOM     11  C   UNL     1       3.204   4.646  19.094  0.00  0.00    +0.000 A 
ATOM     12  C   UNL     1       2.847   5.090  20.363  0.00  0.00    +0.000 A 
ATOM     13  N   UNL     1       1.790   4.619  21.069  0.00  0.00    +0.000 NA
ATOM     14  C   UNL     1       1.049   3.657  20.482  0.00  0.00    +0.000 A 
ATOM     15  C   UNL     1       1.306   3.152  19.221  0.00  0.00    +0.000 A 
ATOM     16  C   UNL     1       2.400   3.657  18.523  0.00  0.00    +0.000 A 
ATOM     17 CL   UNL     1       2.710   3.024  16.943  0.00  0.00    +0.000 Cl
ENDBRANCH   6  11
TORSDOF 1
ENDMDL
MODEL 5
REMARK VINA RESULT:      -7.0      2.212      5.385
REMARK  Name = 
REMARK  2 active torsions:
REMARK  status: ('A' for Active; 'I' for Inactive)
REMARK    1  A    between atoms: C_1  and  N_2
REMARK    2  A    between atoms: C_6  and  C_7
REMARK                            x       y       z     vdW  Elec       q    Type
REMARK                         _______ _______ _______ _____ _____    ______ ____
ROOT
ATOM      1  C   UNL     1       6.094   3.887  14.332  0.00  0.00    +0.000 C 
ATOM      2  N   UNL     1       5.895   4.571  15.601  0.00  0.00    +0.000 NA
ATOM      3  C   UNL     1       7.025   4.381  16.531  0.00  0.00    +0.000 C 
ATOM      4  C   UNL     1       6.749   5.055  17.905  0.00  0.00    +0.000 C 
ATOM      5  C   UNL     1       5.562   4.392  18.567  0.00  0.00    +0.000 C 
ATOM      6  C   UNL     1       4.309   4.832  18.344  0.00  0.00    +0.000 C 
ATOM      7  C   UNL     1       3.996   6.011  17.443  0.00  0.00    +0.000 C 
ATOM      8  C   UNL     1       5.238   6.659  16.774  0.00  0.00    +0.000 C 
ATOM      9  C   UNL     1       6.450   6.546  17.703  0.00  0.00    +0.000 C 
ATOM     10  C   UNL     1       5.584   5.993  15.425  0.00  0.00    +0.000 C 
ENDROOT
BRANCH   6  11
ATOM     11  C   UNL     1       3.167   4.129  18.938  0.00  0.00    +0.000 A 
ATOM     12  C   UNL     1       3.027   2.760  18.728  0.00  0.00    +0.000 A 
ATOM     13  N   UNL     1       2.011   2.010  19.219  0.00  0.00    +0.000 NA
ATOM     14  C   UNL     1       1.085   2.656  19.957  0.00  0.00    +0.000 A 
ATOM     15  C   UNL     1       1.131   4.008  20.237  0.00  0.00    +0.000 A 
ATOM     16  C   UNL     1       2.189   4.750  19.716  0.00  0.00    +0.000 A 
ATOM     17 CL   UNL     1       2.243   6.440  20.078  0.00  0.00    +0.000 Cl
ENDBRANCH   6  11
TORSDOF 1
ENDMDL
MODEL 6
REMARK VINA RESULT:      -7.0      1.999      5.543
REMARK  Name = 
REMARK  2 active torsions:
REMARK  status: ('A' for Active; 'I' for Inactive)
REMARK    1  A    between atoms: C_1  and  N_2
REMARK    2  A    between atoms: C_6  and  C_7
REMARK                            x       y       z     vdW  Elec       q    Type
REMARK                         _______ _______ _______ _____ _____    ______ ____
ROOT
ATOM      1  C   UNL     1       7.909   5.765  18.930  0.00  0.00    +0.000 C 
ATOM      2  N   UNL     1       6.848   5.558  17.957  0.00  0.00    +0.000 NA
ATOM      3  C   UNL     1       6.253   6.825  17.487  0.00  0.00    +0.000 C 
ATOM      4  C   UNL     1       5.071   6.569  16.512  0.00  0.00    +0.000 C 
ATOM      5  C   UNL     1       3.960   5.843  17.237  0.00  0.00    +0.000 C 
ATOM      6  C   UNL     1       3.927   4.498  17.285  0.00  0.00    +0.000 C 
ATOM      7  C   UNL     1       4.969   3.622  16.617  0.00  0.00    +0.000 C 
ATOM      8  C   UNL     1       6.098   4.402  15.890  0.00  0.00    +0.000 C 
ATOM      9  C   UNL     1       5.546   5.716  15.328  0.00  0.00    +0.000 C 
ATOM     10  C   UNL     1       7.279   4.723  16.831  0.00  0.00    +0.000 C 
ENDROOT
BRANCH   6  11
ATOM     11  C   UNL     1       2.882   3.816  18.056  0.00  0.00    +0.000 A 
ATOM     12  C   UNL     1       1.561   3.888  17.624  0.00  0.00    +0.000 A 
ATOM     13  N   UNL     1       0.515   3.306  18.259  0.00  0.00    +0.000 NA
ATOM     14  C   UNL     1       0.798   2.615  19.382  0.00  0.00    +0.000 A 
ATOM     15  C   UNL     1       2.074   2.468  19.894  0.00  0.00    +0.000 A 
ATOM     16  C   UNL     1       3.126   3.081  19.217  0.00  0.00    +0.000 A 
ATOM     17 CL   UNL     1       4.720   2.886  19.860  0.00  0.00    +0.000 Cl
ENDBRANCH   6  11
TORSDOF 1
ENDMDL
MODEL 7
REMARK VINA RESULT:      -6.9      1.812      5.273
REMARK  Name = 
REMARK  2 active torsions:
REMARK  status: ('A' for Active; 'I' for Inactive)
REMARK    1  A    between atoms: C_1  and  N_2
REMARK    2  A    between atoms: C_6  and  C_7
REMARK                            x       y       z     vdW  Elec       q    Type
REMARK                         _______ _______ _______ _____ _____    ______ ____
ROOT
ATOM      1  C   UNL     1       8.082   5.833  18.938  0.00  0.00    +0.000 C 
ATOM      2  N   UNL     1       6.895   5.568  18.141  0.00  0.00    +0.000 NA
ATOM      3  C   UNL     1       6.251   6.804  17.653  0.00  0.00    +0.000 C 
ATOM      4  C   UNL     1       4.942   6.493  16.874  0.00  0.00    +0.000 C 
ATOM      5  C   UNL     1       3.937   5.851  17.804  0.00  0.00    +0.000 C 
ATOM      6  C   UNL     1       3.900   4.515  17.968  0.00  0.00    +0.000 C 
ATOM      7  C   UNL     1       4.832   3.567  17.239  0.00  0.00    +0.000 C 
ATOM      8  C   UNL     1       5.855   4.262  16.301  0.00  0.00    +0.000 C 
ATOM      9  C   UNL     1       5.242   5.536  15.713  0.00  0.00    +0.000 C 
ATOM     10  C   UNL     1       7.158   4.635  17.041  0.00  0.00    +0.000 C 
ENDROOT
BRANCH   6  11
ATOM     11  C   UNL     1       2.967   3.919  18.930  0.00  0.00    +0.000 A 
ATOM     12  C   UNL     1       3.447   3.475  20.159  0.00  0.00    +0.000 A 
ATOM     13  N   UNL     1       2.681   2.903  21.119  0.00  0.00    +0.000 NA
ATOM     14  C   UNL     1       1.369   2.764  20.843  0.00  0.00    +0.000 A 
ATOM     15  C   UNL     1       0.783   3.179  19.662  0.00  0.00    +0.000 A 
ATOM     16  C   UNL     1       1.599   3.763  18.696  0.00  0.00    +0.000 A 
ATOM     17 CL   UNL     1       0.857   4.287  17.224  0.00  0.00    +0.000 Cl
ENDBRANCH   6  11
TORSDOF 1
ENDMDL
MODEL 8
REMARK VINA RESULT:      -6.8      1.521      2.075
REMARK  Name = 
REMARK  2 active torsions:
REMARK  status: ('A' for Active; 'I' for Inactive)
REMARK    1  A    between atoms: C_1  and  N_2
REMARK    2  A    between atoms: C_6  and  C_7
REMARK                            x       y       z     vdW  Elec       q    Type
REMARK                         _______ _______ _______ _____ _____    ______ ____
ROOT
ATOM      1  C   UNL     1       0.817   4.389  20.454  0.00  0.00    +0.000 C 
ATOM      2  N   UNL     1       1.864   3.719  19.699  0.00  0.00    +0.000 NA
ATOM      3  C   UNL     1       2.669   2.805  20.534  0.00  0.00    +0.000 C 
ATOM      4  C   UNL     1       3.829   2.166  19.719  0.00  0.00    +0.000 C 
ATOM      5  C   UNL     1       4.784   3.246  19.261  0.00  0.00    +0.000 C 
ATOM      6  C   UNL     1       4.600   3.881  18.088  0.00  0.00    +0.000 C 
ATOM      7  C   UNL     1       3.455   3.561  17.147  0.00  0.00    +0.000 C 
ATOM      8  C   UNL     1       2.491   2.456  17.654  0.00  0.00    +0.000 C 
ATOM      9  C   UNL     1       3.264   1.435  18.494  0.00  0.00    +0.000 C 
ATOM     10  C   UNL     1       1.344   3.035  18.511  0.00  0.00    +0.000 C 
ENDROOT
BRANCH   6  11
ATOM     11  C   UNL     1       5.495   4.975  17.697  0.00  0.00    +0.000 A 
ATOM     12  C   UNL     1       6.819   4.689  17.376  0.00  0.00    +0.000 A 
ATOM     13  N   UNL     1       7.735   5.618  17.010  0.00  0.00    +0.000 NA
ATOM     14  C   UNL     1       7.313   6.898  16.960  0.00  0.00    +0.000 A 
ATOM     15  C   UNL     1       6.020   7.293  17.247  0.00  0.00    +0.000 A 
ATOM     16  C   UNL     1       5.103   6.313  17.621  0.00  0.00    +0.000 A 
ATOM     17 CL   UNL     1       3.485   6.814  17.970  0.00  0.00    +0.000 Cl
ENDBRANCH   6  11
TORSDOF 1
ENDMDL
MODEL 9
REMARK VINA RESULT:      -6.7      2.923      4.046
REMARK  Name = 
REMARK  2 active torsions:
REMARK  status: ('A' for Active; 'I' for Inactive)
REMARK    1  A    between atoms: C_1  and  N_2
REMARK    2  A    between atoms: C_6  and  C_7
REMARK                            x       y       z     vdW  Elec       q    Type
REMARK                         _______ _______ _______ _____ _____    ______ ____
ROOT
ATOM      1  C   UNL     1       2.152   2.548  21.449  0.00  0.00    +0.000 C 
ATOM      2  N   UNL     1       2.560   3.164  20.196  0.00  0.00    +0.000 NA
ATOM      3  C   UNL     1       4.026   3.195  20.029  0.00  0.00    +0.000 C 
ATOM      4  C   UNL     1       4.433   3.930  18.721  0.00  0.00    +0.000 C 
ATOM      5  C   UNL     1       4.002   5.377  18.796  0.00  0.00    +0.000 C 
ATOM      6  C   UNL     1       2.782   5.760  18.374  0.00  0.00    +0.000 C 
ATOM      7  C   UNL     1       1.770   4.793  17.789  0.00  0.00    +0.000 C 
ATOM      8  C   UNL     1       2.244   3.316  17.736  0.00  0.00    +0.000 C 
ATOM      9  C   UNL     1       3.759   3.261  17.516  0.00  0.00    +0.000 C 
ATOM     10  C   UNL     1       1.905   2.552  19.035  0.00  0.00    +0.000 C 
ENDROOT
BRANCH   6  11
ATOM     11  C   UNL     1       2.357   7.155  18.523  0.00  0.00    +0.000 A 
ATOM     12  C   UNL     1       2.572   8.048  17.477  0.00  0.00    +0.000 A 
ATOM     13  N   UNL     1       2.229   9.358  17.506  0.00  0.00    +0.000 NA
ATOM     14  C   UNL     1       1.641   9.805  18.635  0.00  0.00    +0.000 A 
ATOM     15  C   UNL     1       1.370   9.005  19.729  0.00  0.00    +0.000 A 
ATOM     16  C   UNL     1       1.736   7.663  19.666  0.00  0.00    +0.000 A 
ATOM     17 CL   UNL     1       1.386   6.667  21.036  0.00  0.00    +0.000 Cl
ENDBRANCH   6  11
TORSDOF 1
ENDMDL
