MODEL 1
REMARK VINA RESULT:      -7.6      0.000      0.000
REMARK  Name = 
REMARK  13 active torsions:
REMARK  status: ('A' for Active; 'I' for Inactive)
REMARK    1  A    between atoms: C_1  and  C_2
REMARK    2  A    between atoms: C_2  and  N_3
REMARK    3  A    between atoms: N_3  and  C_4
REMARK    4  A    between atoms: N_3  and  S_6
REMARK    5  A    between atoms: C_4  and  C_5
REMARK    6  A    between atoms: S_6  and  C_9
REMARK    7  A    between atoms: C_12  and  C_13
REMARK    8  A    between atoms: C_13  and  O_15
REMARK    9  A    between atoms: O_15  and  C_16
REMARK   10  A    between atoms: C_16  and  N_17
REMARK   11  A    between atoms: C_18  and  S_19
REMARK   12  A    between atoms: S_19  and  C_20
REMARK   13  A    between atoms: C_23  and  C_24
REMARK                            x       y       z     vdW  Elec       q    Type
REMARK                         _______ _______ _______ _____ _____    ______ ____
ROOT
ATOM      1  C   UNL     1       1.355   9.277  19.355  0.00  0.00    +0.000 A 
ATOM      2  C   UNL     1       1.994   8.825  18.197  0.00  0.00    +0.000 A 
ATOM      3  C   UNL     1       2.578   7.547  18.181  0.00  0.00    +0.000 A 
ATOM      4  C   UNL     1       2.522   6.712  19.311  0.00  0.00    +0.000 A 
ATOM      5  C   UNL     1       1.861   7.171  20.460  0.00  0.00    +0.000 A 
ATOM      6  C   UNL     1       1.290   8.455  20.487  0.00  0.00    +0.000 A 
ENDROOT
BRANCH   1   7
ATOM      7  S   UNL     1       0.753  10.961  19.431  0.00  0.00    +0.000 S 
ATOM      8  O   UNL     1       1.447  11.709  18.406  0.00  0.00    +0.000 OA
ATOM      9  O   UNL     1       0.797  11.379  20.818  0.00  0.00    +0.000 OA
BRANCH   7  10
ATOM     10  N   UNL     1      -0.904  10.839  18.984  0.00  0.00    +0.000 NA
BRANCH  10  12
ATOM     11  C   UNL     1      -2.246  12.407  20.419  0.00  0.00    +0.000 C 
ATOM     12  C   UNL     1      -1.649  12.130  19.048  0.00  0.00    +0.000 C 
ENDBRANCH  10  12
BRANCH  10  13
ATOM     13  C   UNL     1      -1.136  10.030  17.743  0.00  0.00    +0.000 C 
ATOM     14  C   UNL     1      -2.593   9.965  17.312  0.00  0.00    +0.000 C 
ENDBRANCH  10  13
ENDBRANCH   7  10
ENDBRANCH   1   7
BRANCH   4  15
ATOM     15  C   UNL     1       3.325   5.447  19.315  0.00  0.00    +0.000 C 
ATOM     16  O   UNL     1       2.804   4.343  19.313  0.00  0.00    +0.000 OA
BRANCH  15  17
ATOM     17  O   UNL     1       4.658   5.678  19.241  0.00  0.00    +0.000 OA
BRANCH  17  18
ATOM     18  C   UNL     1       5.452   4.571  18.755  0.00  0.00    +0.000 C 
BRANCH  18  19
ATOM     19  N   UNL     1       6.144   4.779  17.487  0.00  0.00    +0.000 N 
ATOM     20  C   UNL     1       7.151   5.679  17.247  0.00  0.00    +0.000 A 
ATOM     21  N   UNL     1       7.679   5.898  16.086  0.00  0.00    +0.000 NA
ATOM     22  N   UNL     1       7.209   5.283  14.938  0.00  0.00    +0.000 NA
ATOM     23  C   UNL     1       6.151   4.550  15.043  0.00  0.00    +0.000 A 
ATOM     24  C   UNL     1       5.491   4.014  13.807  0.00  0.00    +0.000 C 
ATOM     25  C   UNL     1       5.502   4.267  16.374  0.00  0.00    +0.000 A 
ATOM     26  O   UNL     1       4.418   3.696  16.368  0.00  0.00    +0.000 OA
BRANCH  20  27
ATOM     27  S   UNL     1       7.735   6.678  18.570  0.00  0.00    +0.000 S 
ATOM     28  C   UNL     1       7.955   8.259  17.686  0.00  0.00    +0.000 C 
ENDBRANCH  20  27
ENDBRANCH  18  19
ENDBRANCH  17  18
ENDBRANCH  15  17
ENDBRANCH   4  15
TORSDOF 9
ENDMDL
MODEL 2
REMARK VINA RESULT:      -7.5      1.323      2.589
REMARK  Name = 
REMARK  13 active torsions:
REMARK  status: ('A' for Active; 'I' for Inactive)
REMARK    1  A    between atoms: C_1  and  C_2
REMARK    2  A    between atoms: C_2  and  N_3
REMARK    3  A    between atoms: N_3  and  C_4
REMARK    4  A    between atoms: N_3  and  S_6
REMARK    5  A    between atoms: C_4  and  C_5
REMARK    6  A    between atoms: S_6  and  C_9
REMARK    7  A    between atoms: C_12  and  C_13
REMARK    8  A    between atoms: C_13  and  O_15
REMARK    9  A    between atoms: O_15  and  C_16
REMARK   10  A    between atoms: C_16  and  N_17
REMARK   11  A    between atoms: C_18  and  S_19
REMARK   12  A    between atoms: S_19  and  C_20
REMARK   13  A    between atoms: C_23  and  C_24
REMARK                            x       y       z     vdW  Elec       q    Type
REMARK                         _______ _______ _______ _____ _____    ______ ____
ROOT
ATOM      1  C   UNL     1       1.647   8.919  19.398  0.00  0.00    +0.000 A 
ATOM      2  C   UNL     1       1.537   8.079  20.509  0.00  0.00    +0.000 A 
ATOM      3  C   UNL     1       1.965   6.744  20.416  0.00  0.00    +0.000 A 
ATOM      4  C   UNL     1       2.513   6.242  19.222  0.00  0.00    +0.000 A 
ATOM      5  C   UNL     1       2.636   7.102  18.119  0.00  0.00    +0.000 A 
ATOM      6  C   UNL     1       2.193   8.433  18.203  0.00  0.00    +0.000 A 
ENDROOT
BRANCH   1   7
ATOM      7  S   UNL     1       0.956  10.568  19.465  0.00  0.00    +0.000 S 
ATOM      8  O   UNL     1       1.542  11.321  18.378  0.00  0.00    +0.000 OA
ATOM      9  O   UNL     1       1.060  11.032  20.834  0.00  0.00    +0.000 OA
BRANCH   7  10
ATOM     10  N   UNL     1      -0.716  10.341  19.127  0.00  0.00    +0.000 NA
BRANCH  10  12
ATOM     11  C   UNL     1      -1.441  12.742  19.301  0.00  0.00    +0.000 C 
ATOM     12  C   UNL     1      -1.614  11.318  19.808  0.00  0.00    +0.000 C 
ENDBRANCH  10  12
BRANCH  10  13
ATOM     13  C   UNL     1      -1.011  10.110  17.675  0.00  0.00    +0.000 C 
ATOM     14  C   UNL     1      -2.480   9.852  17.377  0.00  0.00    +0.000 C 
ENDBRANCH  10  13
ENDBRANCH   7  10
ENDBRANCH   1   7
BRANCH   4  15
ATOM     15  C   UNL     1       2.771   4.771  19.107  0.00  0.00    +0.000 C 
ATOM     16  O   UNL     1       2.465   3.984  19.989  0.00  0.00    +0.000 OA
BRANCH  15  17
ATOM     17  O   UNL     1       3.294   4.428  17.905  0.00  0.00    +0.000 OA
BRANCH  17  18
ATOM     18  C   UNL     1       4.682   4.019  17.927  0.00  0.00    +0.000 C 
BRANCH  18  19
ATOM     19  N   UNL     1       5.643   4.963  17.368  0.00  0.00    +0.000 N 
ATOM     20  C   UNL     1       6.136   4.960  16.088  0.00  0.00    +0.000 A 
ATOM     21  N   UNL     1       7.057   5.759  15.653  0.00  0.00    +0.000 NA
ATOM     22  N   UNL     1       7.698   6.661  16.486  0.00  0.00    +0.000 NA
ATOM     23  C   UNL     1       7.419   6.615  17.746  0.00  0.00    +0.000 A 
ATOM     24  C   UNL     1       8.216   7.436  18.716  0.00  0.00    +0.000 C 
ATOM     25  C   UNL     1       6.355   5.700  18.297  0.00  0.00    +0.000 A 
ATOM     26  O   UNL     1       6.262   5.604  19.515  0.00  0.00    +0.000 OA
BRANCH  20  27
ATOM     27  S   UNL     1       5.558   3.748  14.954  0.00  0.00    +0.000 S 
ATOM     28  C   UNL     1       6.556   4.194  13.493  0.00  0.00    +0.000 C 
ENDBRANCH  20  27
ENDBRANCH  18  19
ENDBRANCH  17  18
ENDBRANCH  15  17
ENDBRANCH   4  15
TORSDOF 9
ENDMDL
MODEL 3
REMARK VINA RESULT:      -7.4      2.035      3.307
REMARK  Name = 
REMARK  13 active torsions:
REMARK  status: ('A' for Active; 'I' for Inactive)
REMARK    1  A    between atoms: C_1  and  C_2
REMARK    2  A    between atoms: C_2  and  N_3
REMARK    3  A    between atoms: N_3  and  C_4
REMARK    4  A    between atoms: N_3  and  S_6
REMARK    5  A    between atoms: C_4  and  C_5
REMARK    6  A    between atoms: S_6  and  C_9
REMARK    7  A    between atoms: C_12  and  C_13
REMARK    8  A    between atoms: C_13  and  O_15
REMARK    9  A    between atoms: O_15  and  C_16
REMARK   10  A    between atoms: C_16  and  N_17
REMARK   11  A    between atoms: C_18  and  S_19
REMARK   12  A    between atoms: S_19  and  C_20
REMARK   13  A    between atoms: C_23  and  C_24
REMARK                            x       y       z     vdW  Elec       q    Type
REMARK                         _______ _______ _______ _____ _____    ______ ____
ROOT
ATOM      1  C   UNL     1       1.506   7.506  20.533  0.00  0.00    +0.000 A 
ATOM      2  C   UNL     1       1.288   6.237  21.074  0.00  0.00    +0.000 A 
ATOM      3  C   UNL     1       1.658   5.096  20.341  0.00  0.00    +0.000 A 
ATOM      4  C   UNL     1       2.253   5.214  19.073  0.00  0.00    +0.000 A 
ATOM      5  C   UNL     1       2.484   6.495  18.549  0.00  0.00    +0.000 A 
ATOM      6  C   UNL     1       2.100   7.637  19.271  0.00  0.00    +0.000 A 
ENDROOT
BRANCH   1   7
ATOM      7  S   UNL     1       0.891   8.951  21.391  0.00  0.00    +0.000 S 
ATOM      8  O   UNL     1       1.958   9.426  22.244  0.00  0.00    +0.000 OA
ATOM      9  O   UNL     1      -0.408   8.615  21.939  0.00  0.00    +0.000 OA
BRANCH   7  10
ATOM     10  N   UNL     1       0.638  10.109  20.145  0.00  0.00    +0.000 NA
BRANCH  10  12
ATOM     11  C   UNL     1      -0.810  10.854  18.230  0.00  0.00    +0.000 C 
ATOM     12  C   UNL     1      -0.708  10.033  19.506  0.00  0.00    +0.000 C 
ENDBRANCH  10  12
BRANCH  10  13
ATOM     13  C   UNL     1       1.095  11.491  20.504  0.00  0.00    +0.000 C 
ATOM     14  C   UNL     1       0.119  12.256  21.385  0.00  0.00    +0.000 C 
ENDBRANCH  10  13
ENDBRANCH   7  10
ENDBRANCH   1   7
BRANCH   4  15
ATOM     15  C   UNL     1       2.447   3.978  18.249  0.00  0.00    +0.000 C 
ATOM     16  O   UNL     1       1.916   2.915  18.530  0.00  0.00    +0.000 OA
BRANCH  15  17
ATOM     17  O   UNL     1       3.196   4.204  17.143  0.00  0.00    +0.000 OA
BRANCH  17  18
ATOM     18  C   UNL     1       4.571   3.758  17.224  0.00  0.00    +0.000 C 
BRANCH  18  19
ATOM     19  N   UNL     1       5.593   4.763  16.952  0.00  0.00    +0.000 N 
ATOM     20  C   UNL     1       6.154   5.044  15.732  0.00  0.00    +0.000 A 
ATOM     21  N   UNL     1       7.124   5.880  15.544  0.00  0.00    +0.000 NA
ATOM     22  N   UNL     1       7.750   6.525  16.597  0.00  0.00    +0.000 NA
ATOM     23  C   UNL     1       7.402   6.191  17.795  0.00  0.00    +0.000 A 
ATOM     24  C   UNL     1       8.174   6.718  18.969  0.00  0.00    +0.000 C 
ATOM     25  C   UNL     1       6.279   5.222  18.061  0.00  0.00    +0.000 A 
ATOM     26  O   UNL     1       6.118   4.841  19.215  0.00  0.00    +0.000 OA
BRANCH  20  27
ATOM     27  S   UNL     1       5.596   4.167  14.314  0.00  0.00    +0.000 S 
ATOM     28  C   UNL     1       7.027   4.423  13.212  0.00  0.00    +0.000 C 
ENDBRANCH  20  27
ENDBRANCH  18  19
ENDBRANCH  17  18
ENDBRANCH  15  17
ENDBRANCH   4  15
TORSDOF 9
ENDMDL
MODEL 4
REMARK VINA RESULT:      -7.4      0.975      1.580
REMARK  Name = 
REMARK  13 active torsions:
REMARK  status: ('A' for Active; 'I' for Inactive)
REMARK    1  A    between atoms: C_1  and  C_2
REMARK    2  A    between atoms: C_2  and  N_3
REMARK    3  A    between atoms: N_3  and  C_4
REMARK    4  A    between atoms: N_3  and  S_6
REMARK    5  A    between atoms: C_4  and  C_5
REMARK    6  A    between atoms: S_6  and  C_9
REMARK    7  A    between atoms: C_12  and  C_13
REMARK    8  A    between atoms: C_13  and  O_15
REMARK    9  A    between atoms: O_15  and  C_16
REMARK   10  A    between atoms: C_16  and  N_17
REMARK   11  A    between atoms: C_18  and  S_19
REMARK   12  A    between atoms: S_19  and  C_20
REMARK   13  A    between atoms: C_23  and  C_24
REMARK                            x       y       z     vdW  Elec       q    Type
REMARK                         _______ _______ _______ _____ _____    ______ ____
ROOT
ATOM      1  C   UNL     1       1.047   9.168  20.145  0.00  0.00    +0.000 A 
ATOM      2  C   UNL     1       1.669   8.884  18.927  0.00  0.00    +0.000 A 
ATOM      3  C   UNL     1       2.307   7.646  18.744  0.00  0.00    +0.000 A 
ATOM      4  C   UNL     1       2.322   6.682  19.769  0.00  0.00    +0.000 A 
ATOM      5  C   UNL     1       1.678   6.973  20.981  0.00  0.00    +0.000 A 
ATOM      6  C   UNL     1       1.053   8.217  21.173  0.00  0.00    +0.000 A 
ENDROOT
BRANCH   1   7
ATOM      7  S   UNL     1       0.375  10.801  20.435  0.00  0.00    +0.000 S 
ATOM      8  O   UNL     1       1.421  11.589  21.051  0.00  0.00    +0.000 OA
ATOM      9  O   UNL     1      -0.912  10.637  21.080  0.00  0.00    +0.000 OA
BRANCH   7  10
ATOM     10  N   UNL     1       0.084  11.426  18.859  0.00  0.00    +0.000 NA
BRANCH  10  12
ATOM     11  C   UNL     1      -1.632  10.132  17.556  0.00  0.00    +0.000 C 
ATOM     12  C   UNL     1      -1.341  11.345  18.426  0.00  0.00    +0.000 C 
ENDBRANCH  10  12
BRANCH  10  13
ATOM     13  C   UNL     1       0.755  12.741  18.598  0.00  0.00    +0.000 C 
ATOM     14  C   UNL     1      -0.185  13.935  18.646  0.00  0.00    +0.000 C 
ENDBRANCH  10  13
ENDBRANCH   7  10
ENDBRANCH   1   7
BRANCH   4  15
ATOM     15  C   UNL     1       3.179   5.465  19.603  0.00  0.00    +0.000 C 
ATOM     16  O   UNL     1       3.195   4.561  20.425  0.00  0.00    +0.000 OA
BRANCH  15  17
ATOM     17  O   UNL     1       3.848   5.457  18.426  0.00  0.00    +0.000 OA
BRANCH  17  18
ATOM     18  C   UNL     1       5.062   4.669  18.409  0.00  0.00    +0.000 C 
BRANCH  18  19
ATOM     19  N   UNL     1       5.906   4.806  17.226  0.00  0.00    +0.000 N 
ATOM     20  C   UNL     1       6.981   5.647  17.087  0.00  0.00    +0.000 A 
ATOM     21  N   UNL     1       7.651   5.807  15.991  0.00  0.00    +0.000 NA
ATOM     22  N   UNL     1       7.284   5.185  14.810  0.00  0.00    +0.000 NA
ATOM     23  C   UNL     1       6.184   4.510  14.806  0.00  0.00    +0.000 A 
ATOM     24  C   UNL     1       5.643   3.973  13.513  0.00  0.00    +0.000 C 
ATOM     25  C   UNL     1       5.371   4.297  16.057  0.00  0.00    +0.000 A 
ATOM     26  O   UNL     1       4.266   3.781  15.937  0.00  0.00    +0.000 OA
BRANCH  20  27
ATOM     27  S   UNL     1       7.460   6.652  18.446  0.00  0.00    +0.000 S 
ATOM     28  C   UNL     1       7.789   8.218  17.570  0.00  0.00    +0.000 C 
ENDBRANCH  20  27
ENDBRANCH  18  19
ENDBRANCH  17  18
ENDBRANCH  15  17
ENDBRANCH   4  15
TORSDOF 9
ENDMDL
MODEL 5
REMARK VINA RESULT:      -7.3      1.900      3.171
REMARK  Name = 
REMARK  13 active torsions:
REMARK  status: ('A' for Active; 'I' for Inactive)
REMARK    1  A    between atoms: C_1  and  C_2
REMARK    2  A    between atoms: C_2  and  N_3
REMARK    3  A    between atoms: N_3  and  C_4
REMARK    4  A    between atoms: N_3  and  S_6
REMARK    5  A    between atoms: C_4  and  C_5
REMARK    6  A    between atoms: S_6  and  C_9
REMARK    7  A    between atoms: C_12  and  C_13
REMARK    8  A    between atoms: C_13  and  O_15
REMARK    9  A    between atoms: O_15  and  C_16
REMARK   10  A    between atoms: C_16  and  N_17
REMARK   11  A    between atoms: C_18  and  S_19
REMARK   12  A    between atoms: S_19  and  C_20
REMARK   13  A    between atoms: C_23  and  C_24
REMARK                            x       y       z     vdW  Elec       q    Type
REMARK                         _______ _______ _______ _____ _____    ______ ____
ROOT
ATOM      1  C   UNL     1       1.411   7.869  20.543  0.00  0.00    +0.000 A 
ATOM      2  C   UNL     1       1.976   8.078  19.283  0.00  0.00    +0.000 A 
ATOM      3  C   UNL     1       2.538   6.996  18.586  0.00  0.00    +0.000 A 
ATOM      4  C   UNL     1       2.532   5.701  19.134  0.00  0.00    +0.000 A 
ATOM      5  C   UNL     1       1.945   5.502  20.392  0.00  0.00    +0.000 A 
ATOM      6  C   UNL     1       1.397   6.584  21.101  0.00  0.00    +0.000 A 
ENDROOT
BRANCH   1   7
ATOM      7  S   UNL     1       0.841   9.270  21.500  0.00  0.00    +0.000 S 
ATOM      8  O   UNL     1       1.936   9.679  22.352  0.00  0.00    +0.000 OA
ATOM      9  O   UNL     1      -0.450   8.922  22.061  0.00  0.00    +0.000 OA
BRANCH   7  10
ATOM     10  N   UNL     1       0.575  10.503  20.330  0.00  0.00    +0.000 NA
BRANCH  10  12
ATOM     11  C   UNL     1      -0.875  11.394  18.480  0.00  0.00    +0.000 C 
ATOM     12  C   UNL     1      -0.733  10.400  19.622  0.00  0.00    +0.000 C 
ENDBRANCH  10  12
BRANCH  10  13
ATOM     13  C   UNL     1       0.934  11.877  20.811  0.00  0.00    +0.000 C 
ATOM     14  C   UNL     1      -0.061  12.465  21.800  0.00  0.00    +0.000 C 
ENDBRANCH  10  13
ENDBRANCH   7  10
ENDBRANCH   1   7
BRANCH   4  15
ATOM     15  C   UNL     1       3.314   4.623  18.449  0.00  0.00    +0.000 C 
ATOM     16  O   UNL     1       3.082   4.276  17.301  0.00  0.00    +0.000 OA
BRANCH  15  17
ATOM     17  O   UNL     1       4.331   4.154  19.211  0.00  0.00    +0.000 OA
BRANCH  17  18
ATOM     18  C   UNL     1       5.544   3.827  18.494  0.00  0.00    +0.000 C 
BRANCH  18  19
ATOM     19  N   UNL     1       6.196   4.927  17.790  0.00  0.00    +0.000 N 
ATOM     20  C   UNL     1       6.446   4.996  16.443  0.00  0.00    +0.000 A 
ATOM     21  N   UNL     1       7.107   5.948  15.866  0.00  0.00    +0.000 NA
ATOM     22  N   UNL     1       7.702   6.968  16.588  0.00  0.00    +0.000 NA
ATOM     23  C   UNL     1       7.664   6.891  17.876  0.00  0.00    +0.000 A 
ATOM     24  C   UNL     1       8.450   7.865  18.705  0.00  0.00    +0.000 C 
ATOM     25  C   UNL     1       6.907   5.801  18.591  0.00  0.00    +0.000 A 
ATOM     26  O   UNL     1       7.051   5.709  19.804  0.00  0.00    +0.000 OA
BRANCH  20  27
ATOM     27  S   UNL     1       5.918   3.678  15.408  0.00  0.00    +0.000 S 
ATOM     28  C   UNL     1       6.536   4.282  13.801  0.00  0.00    +0.000 C 
ENDBRANCH  20  27
ENDBRANCH  18  19
ENDBRANCH  17  18
ENDBRANCH  15  17
ENDBRANCH   4  15
TORSDOF 9
ENDMDL
MODEL 6
REMARK VINA RESULT:      -7.3      0.748      1.490
REMARK  Name = 
REMARK  13 active torsions:
REMARK  status: ('A' for Active; 'I' for Inactive)
REMARK    1  A    between atoms: C_1  and  C_2
REMARK    2  A    between atoms: C_2  and  N_3
REMARK    3  A    between atoms: N_3  and  C_4
REMARK    4  A    between atoms: N_3  and  S_6
REMARK    5  A    between atoms: C_4  and  C_5
REMARK    6  A    between atoms: S_6  and  C_9
REMARK    7  A    between atoms: C_12  and  C_13
REMARK    8  A    between atoms: C_13  and  O_15
REMARK    9  A    between atoms: O_15  and  C_16
REMARK   10  A    between atoms: C_16  and  N_17
REMARK   11  A    between atoms: C_18  and  S_19
REMARK   12  A    between atoms: S_19  and  C_20
REMARK   13  A    between atoms: C_23  and  C_24
REMARK                            x       y       z     vdW  Elec       q    Type
REMARK                         _______ _______ _______ _____ _____    ______ ____
ROOT
ATOM      1  C   UNL     1       1.272   9.729  19.673  0.00  0.00    +0.000 A 
ATOM      2  C   UNL     1       1.817   9.234  18.486  0.00  0.00    +0.000 A 
ATOM      3  C   UNL     1       2.279   7.909  18.432  0.00  0.00    +0.000 A 
ATOM      4  C   UNL     1       2.193   7.067  19.556  0.00  0.00    +0.000 A 
ATOM      5  C   UNL     1       1.627   7.571  20.737  0.00  0.00    +0.000 A 
ATOM      6  C   UNL     1       1.179   8.901  20.800  0.00  0.00    +0.000 A 
ENDROOT
BRANCH   1   7
ATOM      7  S   UNL     1       0.833  11.460  19.791  0.00  0.00    +0.000 S 
ATOM      8  O   UNL     1       1.549  12.153  18.744  0.00  0.00    +0.000 OA
ATOM      9  O   UNL     1       0.973  11.854  21.178  0.00  0.00    +0.000 OA
BRANCH   7  10
ATOM     10  N   UNL     1      -0.846  11.497  19.415  0.00  0.00    +0.000 NA
BRANCH  10  12
ATOM     11  C   UNL     1      -1.899  10.500  17.362  0.00  0.00    +0.000 C 
ATOM     12  C   UNL     1      -1.351  10.256  18.760  0.00  0.00    +0.000 C 
ENDBRANCH  10  12
BRANCH  10  13
ATOM     13  C   UNL     1      -1.701  12.024  20.528  0.00  0.00    +0.000 C 
ATOM     14  C   UNL     1      -2.080  13.489  20.376  0.00  0.00    +0.000 C 
ENDBRANCH  10  13
ENDBRANCH   7  10
ENDBRANCH   1   7
BRANCH   4  15
ATOM     15  C   UNL     1       2.875   5.734  19.514  0.00  0.00    +0.000 C 
ATOM     16  O   UNL     1       2.288   4.692  19.761  0.00  0.00    +0.000 OA
BRANCH  15  17
ATOM     17  O   UNL     1       4.162   5.822  19.102  0.00  0.00    +0.000 OA
BRANCH  17  18
ATOM     18  C   UNL     1       4.833   4.557  18.891  0.00  0.00    +0.000 C 
BRANCH  18  19
ATOM     19  N   UNL     1       5.752   4.492  17.759  0.00  0.00    +0.000 N 
ATOM     20  C   UNL     1       7.028   4.995  17.718  0.00  0.00    +0.000 A 
ATOM     21  N   UNL     1       7.781   4.999  16.665  0.00  0.00    +0.000 NA
ATOM     22  N   UNL     1       7.326   4.554  15.436  0.00  0.00    +0.000 NA
ATOM     23  C   UNL     1       6.082   4.223  15.342  0.00  0.00    +0.000 A 
ATOM     24  C   UNL     1       5.491   3.915  13.997  0.00  0.00    +0.000 C 
ATOM     25  C   UNL     1       5.167   4.204  16.540  0.00  0.00    +0.000 A 
ATOM     26  O   UNL     1       3.970   4.032  16.339  0.00  0.00    +0.000 OA
BRANCH  20  27
ATOM     27  S   UNL     1       7.688   5.766  19.152  0.00  0.00    +0.000 S 
ATOM     28  C   UNL     1       8.111   7.398  18.455  0.00  0.00    +0.000 C 
ENDBRANCH  20  27
ENDBRANCH  18  19
ENDBRANCH  17  18
ENDBRANCH  15  17
ENDBRANCH   4  15
TORSDOF 9
ENDMDL
MODEL 7
REMARK VINA RESULT:      -7.2      1.539      2.619
REMARK  Name = 
REMARK  13 active torsions:
REMARK  status: ('A' for Active; 'I' for Inactive)
REMARK    1  A    between atoms: C_1  and  C_2
REMARK    2  A    between atoms: C_2  and  N_3
REMARK    3  A    between atoms: N_3  and  C_4
REMARK    4  A    between atoms: N_3  and  S_6
REMARK    5  A    between atoms: C_4  and  C_5
REMARK    6  A    between atoms: S_6  and  C_9
REMARK    7  A    between atoms: C_12  and  C_13
REMARK    8  A    between atoms: C_13  and  O_15
REMARK    9  A    between atoms: O_15  and  C_16
REMARK   10  A    between atoms: C_16  and  N_17
REMARK   11  A    between atoms: C_18  and  S_19
REMARK   12  A    between atoms: S_19  and  C_20
REMARK   13  A    between atoms: C_23  and  C_24
REMARK                            x       y       z     vdW  Elec       q    Type
REMARK                         _______ _______ _______ _____ _____    ______ ____
ROOT
ATOM      1  C   UNL     1       1.389   8.914  19.840  0.00  0.00    +0.000 A 
ATOM      2  C   UNL     1       1.978   8.473  18.652  0.00  0.00    +0.000 A 
ATOM      3  C   UNL     1       2.417   7.142  18.547  0.00  0.00    +0.000 A 
ATOM      4  C   UNL     1       2.263   6.244  19.618  0.00  0.00    +0.000 A 
ATOM      5  C   UNL     1       1.653   6.695  20.798  0.00  0.00    +0.000 A 
ATOM      6  C   UNL     1       1.228   8.029  20.913  0.00  0.00    +0.000 A 
ENDROOT
BRANCH   1   7
ATOM      7  S   UNL     1       0.977  10.645  20.032  0.00  0.00    +0.000 S 
ATOM      8  O   UNL     1       1.169  11.275  18.744  0.00  0.00    +0.000 OA
ATOM      9  O   UNL     1       1.667  11.131  21.210  0.00  0.00    +0.000 OA
BRANCH   7  10
ATOM     10  N   UNL     1      -0.706  10.643  20.388  0.00  0.00    +0.000 NA
BRANCH  10  12
ATOM     11  C   UNL     1      -0.964  10.174  22.844  0.00  0.00    +0.000 C 
ATOM     12  C   UNL     1      -1.046  11.204  21.728  0.00  0.00    +0.000 C 
ENDBRANCH  10  12
BRANCH  10  13
ATOM     13  C   UNL     1      -1.562  11.131  19.258  0.00  0.00    +0.000 C 
ATOM     14  C   UNL     1      -1.941  10.049  18.258  0.00  0.00    +0.000 C 
ENDBRANCH  10  13
ENDBRANCH   7  10
ENDBRANCH   1   7
BRANCH   4  15
ATOM     15  C   UNL     1       2.921   4.900  19.534  0.00  0.00    +0.000 C 
ATOM     16  O   UNL     1       2.992   4.147  20.493  0.00  0.00    +0.000 OA
BRANCH  15  17
ATOM     17  O   UNL     1       3.340   4.604  18.280  0.00  0.00    +0.000 OA
BRANCH  17  18
ATOM     18  C   UNL     1       4.702   4.125  18.179  0.00  0.00    +0.000 C 
BRANCH  18  19
ATOM     19  N   UNL     1       5.659   5.025  17.545  0.00  0.00    +0.000 N 
ATOM     20  C   UNL     1       6.105   4.956  16.249  0.00  0.00    +0.000 A 
ATOM     21  N   UNL     1       7.024   5.718  15.747  0.00  0.00    +0.000 NA
ATOM     22  N   UNL     1       7.710   6.642  16.515  0.00  0.00    +0.000 NA
ATOM     23  C   UNL     1       7.476   6.657  17.785  0.00  0.00    +0.000 A 
ATOM     24  C   UNL     1       8.322   7.504  18.689  0.00  0.00    +0.000 C 
ATOM     25  C   UNL     1       6.417   5.788  18.414  0.00  0.00    +0.000 A 
ATOM     26  O   UNL     1       6.366   5.747  19.637  0.00  0.00    +0.000 OA
BRANCH  20  27
ATOM     27  S   UNL     1       5.466   3.707  15.191  0.00  0.00    +0.000 S 
ATOM     28  C   UNL     1       6.332   4.140  13.646  0.00  0.00    +0.000 C 
ENDBRANCH  20  27
ENDBRANCH  18  19
ENDBRANCH  17  18
ENDBRANCH  15  17
ENDBRANCH   4  15
TORSDOF 9
ENDMDL
MODEL 8
REMARK VINA RESULT:      -7.2      2.110      9.273
REMARK  Name = 
REMARK  13 active torsions:
REMARK  status: ('A' for Active; 'I' for Inactive)
REMARK    1  A    between atoms: C_1  and  C_2
REMARK    2  A    between atoms: C_2  and  N_3
REMARK    3  A    between atoms: N_3  and  C_4
REMARK    4  A    between atoms: N_3  and  S_6
REMARK    5  A    between atoms: C_4  and  C_5
REMARK    6  A    between atoms: S_6  and  C_9
REMARK    7  A    between atoms: C_12  and  C_13
REMARK    8  A    between atoms: C_13  and  O_15
REMARK    9  A    between atoms: O_15  and  C_16
REMARK   10  A    between atoms: C_16  and  N_17
REMARK   11  A    between atoms: C_18  and  S_19
REMARK   12  A    between atoms: S_19  and  C_20
REMARK   13  A    between atoms: C_23  and  C_24
REMARK                            x       y       z     vdW  Elec       q    Type
REMARK                         _______ _______ _______ _____ _____    ______ ____
ROOT
ATOM      1  C   UNL     1       3.692   5.846  18.593  0.00  0.00    +0.000 A 
ATOM      2  C   UNL     1       3.623   6.904  17.683  0.00  0.00    +0.000 A 
ATOM      3  C   UNL     1       2.796   8.005  17.959  0.00  0.00    +0.000 A 
ATOM      4  C   UNL     1       2.042   8.064  19.144  0.00  0.00    +0.000 A 
ATOM      5  C   UNL     1       2.134   7.004  20.059  0.00  0.00    +0.000 A 
ATOM      6  C   UNL     1       2.947   5.892  19.779  0.00  0.00    +0.000 A 
ENDROOT
BRANCH   1   7
ATOM      7  S   UNL     1       4.618   4.374  18.170  0.00  0.00    +0.000 S 
ATOM      8  O   UNL     1       3.678   3.426  17.611  0.00  0.00    +0.000 OA
ATOM      9  O   UNL     1       5.436   4.027  19.315  0.00  0.00    +0.000 OA
BRANCH   7  10
ATOM     10  N   UNL     1       5.680   4.886  16.917  0.00  0.00    +0.000 NA
BRANCH  10  12
ATOM     11  C   UNL     1       7.449   6.457  17.767  0.00  0.00    +0.000 C 
ATOM     12  C   UNL     1       7.100   5.038  17.347  0.00  0.00    +0.000 C 
ENDBRANCH  10  12
BRANCH  10  13
ATOM     13  C   UNL     1       5.480   4.158  15.622  0.00  0.00    +0.000 C 
ATOM     14  C   UNL     1       6.623   4.330  14.633  0.00  0.00    +0.000 C 
ENDBRANCH  10  13
ENDBRANCH   7  10
ENDBRANCH   1   7
BRANCH   4  15
ATOM     15  C   UNL     1       1.029   9.156  19.303  0.00  0.00    +0.000 C 
ATOM     16  O   UNL     1       0.582   9.775  18.350  0.00  0.00    +0.000 OA
BRANCH  15  17
ATOM     17  O   UNL     1       0.624   9.307  20.587  0.00  0.00    +0.000 OA
BRANCH  17  18
ATOM     18  C   UNL     1       0.874  10.609  21.166  0.00  0.00    +0.000 C 
BRANCH  18  19
ATOM     19  N   UNL     1      -0.269  11.513  21.243  0.00  0.00    +0.000 N 
ATOM     20  C   UNL     1      -0.436  12.675  20.535  0.00  0.00    +0.000 A 
ATOM     21  N   UNL     1      -1.422  13.499  20.696  0.00  0.00    +0.000 NA
ATOM     22  N   UNL     1      -2.380  13.312  21.677  0.00  0.00    +0.000 NA
ATOM     23  C   UNL     1      -2.207  12.335  22.504  0.00  0.00    +0.000 A 
ATOM     24  C   UNL     1      -3.108  12.200  23.696  0.00  0.00    +0.000 C 
ATOM     25  C   UNL     1      -1.074  11.353  22.356  0.00  0.00    +0.000 A 
ATOM     26  O   UNL     1      -0.890  10.554  23.267  0.00  0.00    +0.000 OA
BRANCH  20  27
ATOM     27  S   UNL     1       0.796  13.153  19.376  0.00  0.00    +0.000 S 
ATOM     28  C   UNL     1       0.098  14.746  18.825  0.00  0.00    +0.000 C 
ENDBRANCH  20  27
ENDBRANCH  18  19
ENDBRANCH  17  18
ENDBRANCH  15  17
ENDBRANCH   4  15
TORSDOF 9
ENDMDL
MODEL 9
REMARK VINA RESULT:      -7.1      1.917      9.350
REMARK  Name = 
REMARK  13 active torsions:
REMARK  status: ('A' for Active; 'I' for Inactive)
REMARK    1  A    between atoms: C_1  and  C_2
REMARK    2  A    between atoms: C_2  and  N_3
REMARK    3  A    between atoms: N_3  and  C_4
REMARK    4  A    between atoms: N_3  and  S_6
REMARK    5  A    between atoms: C_4  and  C_5
REMARK    6  A    between atoms: S_6  and  C_9
REMARK    7  A    between atoms: C_12  and  C_13
REMARK    8  A    between atoms: C_13  and  O_15
REMARK    9  A    between atoms: O_15  and  C_16
REMARK   10  A    between atoms: C_16  and  N_17
REMARK   11  A    between atoms: C_18  and  S_19
REMARK   12  A    between atoms: S_19  and  C_20
REMARK   13  A    between atoms: C_23  and  C_24
REMARK                            x       y       z     vdW  Elec       q    Type
REMARK                         _______ _______ _______ _____ _____    ______ ____
ROOT
ATOM      1  C   UNL     1       3.518   5.225  18.843  0.00  0.00    +0.000 A 
ATOM      2  C   UNL     1       2.748   5.120  20.004  0.00  0.00    +0.000 A 
ATOM      3  C   UNL     1       1.981   6.217  20.430  0.00  0.00    +0.000 A 
ATOM      4  C   UNL     1       1.969   7.419  19.699  0.00  0.00    +0.000 A 
ATOM      5  C   UNL     1       2.732   7.504  18.524  0.00  0.00    +0.000 A 
ATOM      6  C   UNL     1       3.514   6.415  18.104  0.00  0.00    +0.000 A 
ENDROOT
BRANCH   1   7
ATOM      7  S   UNL     1       4.618   3.888  18.388  0.00  0.00    +0.000 S 
ATOM      8  O   UNL     1       3.824   2.904  17.685  0.00  0.00    +0.000 OA
ATOM      9  O   UNL     1       5.380   3.529  19.566  0.00  0.00    +0.000 OA
BRANCH   7  10
ATOM     10  N   UNL     1       5.711   4.602  17.268  0.00  0.00    +0.000 NA
BRANCH  10  12
ATOM     11  C   UNL     1       7.415   6.232  18.136  0.00  0.00    +0.000 C 
ATOM     12  C   UNL     1       7.093   4.785  17.798  0.00  0.00    +0.000 C 
ENDBRANCH  10  12
BRANCH  10  13
ATOM     13  C   UNL     1       5.630   4.016  15.890  0.00  0.00    +0.000 C 
ATOM     14  C   UNL     1       6.021   4.984  14.783  0.00  0.00    +0.000 C 
ENDBRANCH  10  13
ENDBRANCH   7  10
ENDBRANCH   1   7
BRANCH   4  15
ATOM     15  C   UNL     1       1.299   8.619  20.292  0.00  0.00    +0.000 C 
ATOM     16  O   UNL     1       1.497   8.976  21.444  0.00  0.00    +0.000 OA
BRANCH  15  17
ATOM     17  O   UNL     1       0.533   9.285  19.394  0.00  0.00    +0.000 OA
BRANCH  17  18
ATOM     18  C   UNL     1       0.583  10.728  19.486  0.00  0.00    +0.000 C 
BRANCH  18  19
ATOM     19  N   UNL     1      -0.579  11.378  20.084  0.00  0.00    +0.000 N 
ATOM     20  C   UNL     1      -1.749  11.702  19.444  0.00  0.00    +0.000 A 
ATOM     21  N   UNL     1      -2.723  12.360  19.985  0.00  0.00    +0.000 NA
ATOM     22  N   UNL     1      -2.638  12.877  21.266  0.00  0.00    +0.000 NA
ATOM     23  C   UNL     1      -1.507  12.769  21.880  0.00  0.00    +0.000 A 
ATOM     24  C   UNL     1      -1.300  13.472  23.190  0.00  0.00    +0.000 C 
ATOM     25  C   UNL     1      -0.345  12.012  21.290  0.00  0.00    +0.000 A 
ATOM     26  O   UNL     1       0.735  12.090  21.863  0.00  0.00    +0.000 OA
BRANCH  20  27
ATOM     27  S   UNL     1      -1.940  11.280  17.749  0.00  0.00    +0.000 S 
ATOM     28  C   UNL     1      -3.753  11.407  17.603  0.00  0.00    +0.000 C 
ENDBRANCH  20  27
ENDBRANCH  18  19
ENDBRANCH  17  18
ENDBRANCH  15  17
ENDBRANCH   4  15
TORSDOF 9
ENDMDL
