MODEL 1
REMARK VINA RESULT:      -7.2      0.000      0.000
REMARK  Name = 
REMARK  4 active torsions:
REMARK  status: ('A' for Active; 'I' for Inactive)
REMARK    1  A    between atoms: C_2  and  C_3
REMARK    2  A    between atoms: C_3  and  N_4
REMARK    3  A    between atoms: N_15  and  C_16
REMARK    4  A    between atoms: N_22  and  C_23
REMARK                            x       y       z     vdW  Elec       q    Type
REMARK                         _______ _______ _______ _____ _____    ______ ____
ROOT
ATOM      1  N   UNL     1       0.137  11.708  20.691  0.00  0.00    +0.000 N 
ATOM      2  C   UNL     1       0.750  11.055  19.634  0.00  0.00    +0.000 A 
ATOM      3  O   UNL     1       1.003  11.593  18.545  0.00  0.00    +0.000 OA
ATOM      4  C   UNL     1       1.055   9.711  19.898  0.00  0.00    +0.000 A 
ATOM      5  C   UNL     1       0.773   9.112  21.101  0.00  0.00    +0.000 A 
ATOM      6  N   UNL     1       1.106   7.792  21.070  0.00  0.00    +0.000 NA
ATOM      7  C   UNL     1       1.680   7.570  19.895  0.00  0.00    +0.000 A 
ATOM      8  N   UNL     1       1.640   8.734  19.153  0.00  0.00    +0.000 N 
ATOM      9  C   UNL     1       2.211   8.876  17.825  0.00  0.00    +0.000 C 
ATOM     10  C   UNL     1       3.204   7.766  17.528  0.00  0.00    +0.000 C 
ATOM     11  C   UNL     1       2.602   6.439  17.955  0.00  0.00    +0.000 C 
ATOM     12  N   UNL     1       2.285   6.443  19.389  0.00  0.00    +0.000 N 
ATOM     13  N   UNL     1       0.258   9.832  22.158  0.00  0.00    +0.000 N 
ATOM     14  C   UNL     1       0.027   9.265  23.473  0.00  0.00    +0.000 C 
ATOM     15  C   UNL     1      -0.061  11.177  21.976  0.00  0.00    +0.000 A 
ATOM     16  O   UNL     1      -0.500  11.869  22.906  0.00  0.00    +0.000 OA
ENDROOT
BRANCH  12  17
ATOM     17  C   UNL     1       3.012   5.475  20.265  0.00  0.00    +0.000 C 
ATOM     18  C   UNL     1       2.100   4.673  21.195  0.00  0.00    +0.000 C 
ATOM     19  C   UNL     1       1.210   3.694  20.444  0.00  0.00    +0.000 C 
ATOM     20  C   UNL     1       1.998   2.831  19.444  0.00  0.00    +0.000 C 
ATOM     21  C   UNL     1       3.120   3.503  18.637  0.00  0.00    +0.000 C 
ATOM     22  C   UNL     1       3.911   4.487  19.484  0.00  0.00    +0.000 C 
ENDBRANCH  12  17
BRANCH   1  23
ATOM     23  C   UNL     1      -0.422  13.003  20.433  0.00  0.00    +0.000 C 
BRANCH  23  25
ATOM     24  C   UNL     1      -3.202  12.721  20.022  0.00  0.00    +0.000 C 
ATOM     25  C   UNL     1      -1.918  12.851  20.212  0.00  0.00    +0.000 C 
ENDBRANCH  23  25
ENDBRANCH   1  23
TORSDOF 3
ENDMDL
MODEL 2
REMARK VINA RESULT:      -7.2      1.295      1.342
REMARK  Name = 
REMARK  4 active torsions:
REMARK  status: ('A' for Active; 'I' for Inactive)
REMARK    1  A    between atoms: C_2  and  C_3
REMARK    2  A    between atoms: C_3  and  N_4
REMARK    3  A    between atoms: N_15  and  C_16
REMARK    4  A    between atoms: N_22  and  C_23
REMARK                            x       y       z     vdW  Elec       q    Type
REMARK                         _______ _______ _______ _____ _____    ______ ____
ROOT
ATOM      1  N   UNL     1       1.065  11.063  19.712  0.00  0.00    +0.000 N 
ATOM      2  C   UNL     1       1.713  10.232  18.812  0.00  0.00    +0.000 A 
ATOM      3  O   UNL     1       2.146  10.610  17.713  0.00  0.00    +0.000 OA
ATOM      4  C   UNL     1       1.829   8.904  19.250  0.00  0.00    +0.000 A 
ATOM      5  C   UNL     1       1.348   8.482  20.464  0.00  0.00    +0.000 A 
ATOM      6  N   UNL     1       1.527   7.140  20.612  0.00  0.00    +0.000 NA
ATOM      7  C   UNL     1       2.199   6.724  19.546  0.00  0.00    +0.000 A 
ATOM      8  N   UNL     1       2.377   7.792  18.688  0.00  0.00    +0.000 N 
ATOM      9  C   UNL     1       3.104   7.718  17.434  0.00  0.00    +0.000 C 
ATOM     10  C   UNL     1       3.989   6.486  17.378  0.00  0.00    +0.000 C 
ATOM     11  C   UNL     1       3.194   5.286  17.863  0.00  0.00    +0.000 C 
ATOM     12  N   UNL     1       2.722   5.490  19.239  0.00  0.00    +0.000 N 
ATOM     13  N   UNL     1       0.805   9.369  21.370  0.00  0.00    +0.000 N 
ATOM     14  C   UNL     1       0.366   8.986  22.698  0.00  0.00    +0.000 C 
ATOM     15  C   UNL     1       0.666  10.709  21.011  0.00  0.00    +0.000 A 
ATOM     16  O   UNL     1       0.209  11.546  21.802  0.00  0.00    +0.000 OA
ENDROOT
BRANCH  12  17
ATOM     17  C   UNL     1       3.231   4.561  20.293  0.00  0.00    +0.000 C 
ATOM     18  C   UNL     1       2.160   4.103  21.285  0.00  0.00    +0.000 C 
ATOM     19  C   UNL     1       1.121   3.192  20.647  0.00  0.00    +0.000 C 
ATOM     20  C   UNL     1       1.755   2.049  19.839  0.00  0.00    +0.000 C 
ATOM     21  C   UNL     1       3.004   2.365  19.000  0.00  0.00    +0.000 C 
ATOM     22  C   UNL     1       3.946   3.312  19.727  0.00  0.00    +0.000 C 
ENDBRANCH  12  17
BRANCH   1  23
ATOM     23  C   UNL     1       0.692  12.369  19.254  0.00  0.00    +0.000 C 
BRANCH  23  25
ATOM     24  C   UNL     1      -1.875  12.217  18.087  0.00  0.00    +0.000 C 
ATOM     25  C   UNL     1      -0.689  12.288  18.626  0.00  0.00    +0.000 C 
ENDBRANCH  23  25
ENDBRANCH   1  23
TORSDOF 3
ENDMDL
MODEL 3
REMARK VINA RESULT:      -7.1      1.470      1.875
REMARK  Name = 
REMARK  4 active torsions:
REMARK  status: ('A' for Active; 'I' for Inactive)
REMARK    1  A    between atoms: C_2  and  C_3
REMARK    2  A    between atoms: C_3  and  N_4
REMARK    3  A    between atoms: N_15  and  C_16
REMARK    4  A    between atoms: N_22  and  C_23
REMARK                            x       y       z     vdW  Elec       q    Type
REMARK                         _______ _______ _______ _____ _____    ______ ____
ROOT
ATOM      1  N   UNL     1       1.062  11.150  19.676  0.00  0.00    +0.000 N 
ATOM      2  C   UNL     1       1.708  10.314  18.780  0.00  0.00    +0.000 A 
ATOM      3  O   UNL     1       2.144  10.686  17.680  0.00  0.00    +0.000 OA
ATOM      4  C   UNL     1       1.818   8.987  19.223  0.00  0.00    +0.000 A 
ATOM      5  C   UNL     1       1.334   8.570  20.437  0.00  0.00    +0.000 A 
ATOM      6  N   UNL     1       1.508   7.228  20.590  0.00  0.00    +0.000 NA
ATOM      7  C   UNL     1       2.179   6.807  19.526  0.00  0.00    +0.000 A 
ATOM      8  N   UNL     1       2.363   7.871  18.665  0.00  0.00    +0.000 N 
ATOM      9  C   UNL     1       3.092   7.790  17.412  0.00  0.00    +0.000 C 
ATOM     10  C   UNL     1       3.972   6.554  17.362  0.00  0.00    +0.000 C 
ATOM     11  C   UNL     1       3.172   5.359  17.850  0.00  0.00    +0.000 C 
ATOM     12  N   UNL     1       2.698   5.569  19.224  0.00  0.00    +0.000 N 
ATOM     13  N   UNL     1       0.793   9.463  21.339  0.00  0.00    +0.000 N 
ATOM     14  C   UNL     1       0.350   9.086  22.667  0.00  0.00    +0.000 C 
ATOM     15  C   UNL     1       0.659  10.802  20.975  0.00  0.00    +0.000 A 
ATOM     16  O   UNL     1       0.204  11.643  21.763  0.00  0.00    +0.000 OA
ENDROOT
BRANCH  12  17
ATOM     17  C   UNL     1       3.201   4.642  20.282  0.00  0.00    +0.000 C 
ATOM     18  C   UNL     1       2.127   4.187  21.271  0.00  0.00    +0.000 C 
ATOM     19  C   UNL     1       1.088   3.278  20.631  0.00  0.00    +0.000 C 
ATOM     20  C   UNL     1       1.724   2.131  19.829  0.00  0.00    +0.000 C 
ATOM     21  C   UNL     1       2.977   2.443  18.994  0.00  0.00    +0.000 C 
ATOM     22  C   UNL     1       3.917   3.391  19.721  0.00  0.00    +0.000 C 
ENDBRANCH  12  17
BRANCH   1  23
ATOM     23  C   UNL     1       0.695  12.456  19.213  0.00  0.00    +0.000 C 
BRANCH  23  25
ATOM     24  C   UNL     1       2.916  14.176  19.507  0.00  0.00    +0.000 C 
ATOM     25  C   UNL     1       1.890  13.382  19.371  0.00  0.00    +0.000 C 
ENDBRANCH  23  25
ENDBRANCH   1  23
TORSDOF 3
ENDMDL
MODEL 4
REMARK VINA RESULT:      -6.9      2.742      7.039
REMARK  Name = 
REMARK  4 active torsions:
REMARK  status: ('A' for Active; 'I' for Inactive)
REMARK    1  A    between atoms: C_2  and  C_3
REMARK    2  A    between atoms: C_3  and  N_4
REMARK    3  A    between atoms: N_15  and  C_16
REMARK    4  A    between atoms: N_22  and  C_23
REMARK                            x       y       z     vdW  Elec       q    Type
REMARK                         _______ _______ _______ _____ _____    ______ ____
ROOT
ATOM      1  N   UNL     1       4.236   4.810  18.353  0.00  0.00    +0.000 N 
ATOM      2  C   UNL     1       3.908   6.100  17.968  0.00  0.00    +0.000 A 
ATOM      3  O   UNL     1       4.393   6.669  16.978  0.00  0.00    +0.000 OA
ATOM      4  C   UNL     1       2.975   6.723  18.811  0.00  0.00    +0.000 A 
ATOM      5  C   UNL     1       2.438   6.098  19.908  0.00  0.00    +0.000 A 
ATOM      6  N   UNL     1       1.617   6.944  20.590  0.00  0.00    +0.000 NA
ATOM      7  C   UNL     1       1.555   8.067  19.885  0.00  0.00    +0.000 A 
ATOM      8  N   UNL     1       2.399   7.956  18.797  0.00  0.00    +0.000 N 
ATOM      9  C   UNL     1       2.560   8.981  17.782  0.00  0.00    +0.000 C 
ATOM     10  C   UNL     1       1.413   9.976  17.813  0.00  0.00    +0.000 C 
ATOM     11  C   UNL     1       1.144  10.374  19.254  0.00  0.00    +0.000 C 
ATOM     12  N   UNL     1       0.798   9.201  20.066  0.00  0.00    +0.000 N 
ATOM     13  N   UNL     1       2.717   4.777  20.190  0.00  0.00    +0.000 N 
ATOM     14  C   UNL     1       2.106   4.049  21.285  0.00  0.00    +0.000 C 
ATOM     15  C   UNL     1       3.628   4.087  19.391  0.00  0.00    +0.000 A 
ATOM     16  O   UNL     1       3.886   2.892  19.591  0.00  0.00    +0.000 OA
ENDROOT
BRANCH  12  17
ATOM     17  C   UNL     1      -0.567   9.152  20.672  0.00  0.00    +0.000 C 
ATOM     18  C   UNL     1      -0.576   8.758  22.150  0.00  0.00    +0.000 C 
ATOM     19  C   UNL     1       0.044   9.822  23.045  0.00  0.00    +0.000 C 
ATOM     20  C   UNL     1      -0.519  11.225  22.769  0.00  0.00    +0.000 C 
ATOM     21  C   UNL     1      -0.784  11.621  21.307  0.00  0.00    +0.000 C 
ATOM     22  C   UNL     1      -1.365  10.467  20.507  0.00  0.00    +0.000 C 
ENDBRANCH  12  17
BRANCH   1  23
ATOM     23  C   UNL     1       5.348   4.188  17.697  0.00  0.00    +0.000 C 
BRANCH  23  25
ATOM     24  C   UNL     1       7.729   5.412  18.597  0.00  0.00    +0.000 C 
ATOM     25  C   UNL     1       6.629   4.847  18.181  0.00  0.00    +0.000 C 
ENDBRANCH  23  25
ENDBRANCH   1  23
TORSDOF 3
ENDMDL
MODEL 5
REMARK VINA RESULT:      -6.8      0.753      1.265
REMARK  Name = 
REMARK  4 active torsions:
REMARK  status: ('A' for Active; 'I' for Inactive)
REMARK    1  A    between atoms: C_2  and  C_3
REMARK    2  A    between atoms: C_3  and  N_4
REMARK    3  A    between atoms: N_15  and  C_16
REMARK    4  A    between atoms: N_22  and  C_23
REMARK                            x       y       z     vdW  Elec       q    Type
REMARK                         _______ _______ _______ _____ _____    ______ ____
ROOT
ATOM      1  N   UNL     1       0.029  11.978  20.778  0.00  0.00    +0.000 N 
ATOM      2  C   UNL     1       0.650  11.349  19.711  0.00  0.00    +0.000 A 
ATOM      3  O   UNL     1       0.920  11.914  18.640  0.00  0.00    +0.000 OA
ATOM      4  C   UNL     1       0.942   9.996  19.943  0.00  0.00    +0.000 A 
ATOM      5  C   UNL     1       0.642   9.368  21.126  0.00  0.00    +0.000 A 
ATOM      6  N   UNL     1       0.966   8.047  21.064  0.00  0.00    +0.000 NA
ATOM      7  C   UNL     1       1.552   7.852  19.890  0.00  0.00    +0.000 A 
ATOM      8  N   UNL     1       1.529   9.036  19.179  0.00  0.00    +0.000 N 
ATOM      9  C   UNL     1       2.117   9.208  17.862  0.00  0.00    +0.000 C 
ATOM     10  C   UNL     1       3.106   8.100  17.547  0.00  0.00    +0.000 C 
ATOM     11  C   UNL     1       2.489   6.766  17.932  0.00  0.00    +0.000 C 
ATOM     12  N   UNL     1       2.155   6.734  19.361  0.00  0.00    +0.000 N 
ATOM     13  N   UNL     1       0.120  10.063  22.196  0.00  0.00    +0.000 N 
ATOM     14  C   UNL     1      -0.131   9.464  23.492  0.00  0.00    +0.000 C 
ATOM     15  C   UNL     1      -0.188  11.415  22.046  0.00  0.00    +0.000 A 
ATOM     16  O   UNL     1      -0.633  12.085  22.988  0.00  0.00    +0.000 OA
ENDROOT
BRANCH  12  17
ATOM     17  C   UNL     1       2.865   5.738  20.219  0.00  0.00    +0.000 C 
ATOM     18  C   UNL     1       1.931   4.863  21.057  0.00  0.00    +0.000 C 
ATOM     19  C   UNL     1       1.109   3.904  20.208  0.00  0.00    +0.000 C 
ATOM     20  C   UNL     1       1.969   3.118  19.206  0.00  0.00    +0.000 C 
ATOM     21  C   UNL     1       3.110   3.863  18.495  0.00  0.00    +0.000 C 
ATOM     22  C   UNL     1       3.830   4.819  19.434  0.00  0.00    +0.000 C 
ENDBRANCH  12  17
BRANCH   1  23
ATOM     23  C   UNL     1      -0.518  13.283  20.548  0.00  0.00    +0.000 C 
BRANCH  23  25
ATOM     24  C   UNL     1       1.404  15.212  21.300  0.00  0.00    +0.000 C 
ATOM     25  C   UNL     1       0.516  14.321  20.953  0.00  0.00    +0.000 C 
ENDBRANCH  23  25
ENDBRANCH   1  23
TORSDOF 3
ENDMDL
MODEL 6
REMARK VINA RESULT:      -6.3      2.813      7.034
REMARK  Name = 
REMARK  4 active torsions:
REMARK  status: ('A' for Active; 'I' for Inactive)
REMARK    1  A    between atoms: C_2  and  C_3
REMARK    2  A    between atoms: C_3  and  N_4
REMARK    3  A    between atoms: N_15  and  C_16
REMARK    4  A    between atoms: N_22  and  C_23
REMARK                            x       y       z     vdW  Elec       q    Type
REMARK                         _______ _______ _______ _____ _____    ______ ____
ROOT
ATOM      1  N   UNL     1       4.494   4.888  18.330  0.00  0.00    +0.000 N 
ATOM      2  C   UNL     1       4.153   6.181  17.966  0.00  0.00    +0.000 A 
ATOM      3  O   UNL     1       4.665   6.786  17.012  0.00  0.00    +0.000 OA
ATOM      4  C   UNL     1       3.173   6.761  18.786  0.00  0.00    +0.000 A 
ATOM      5  C   UNL     1       2.607   6.095  19.844  0.00  0.00    +0.000 A 
ATOM      6  N   UNL     1       1.740   6.905  20.513  0.00  0.00    +0.000 NA
ATOM      7  C   UNL     1       1.682   8.045  19.836  0.00  0.00    +0.000 A 
ATOM      8  N   UNL     1       2.571   7.982  18.781  0.00  0.00    +0.000 N 
ATOM      9  C   UNL     1       2.751   9.037  17.801  0.00  0.00    +0.000 C 
ATOM     10  C   UNL     1       1.582  10.007  17.811  0.00  0.00    +0.000 C 
ATOM     11  C   UNL     1       1.246  10.359  19.249  0.00  0.00    +0.000 C 
ATOM     12  N   UNL     1       0.893   9.157  20.016  0.00  0.00    +0.000 N 
ATOM     13  N   UNL     1       2.902   4.773  20.102  0.00  0.00    +0.000 N 
ATOM     14  C   UNL     1       2.264   4.003  21.152  0.00  0.00    +0.000 C 
ATOM     15  C   UNL     1       3.860   4.124  19.323  0.00  0.00    +0.000 A 
ATOM     16  O   UNL     1       4.136   2.930  19.502  0.00  0.00    +0.000 OA
ENDROOT
BRANCH  12  17
ATOM     17  C   UNL     1      -0.494   9.064  20.564  0.00  0.00    +0.000 C 
ATOM     18  C   UNL     1      -0.553   8.653  22.036  0.00  0.00    +0.000 C 
ATOM     19  C   UNL     1      -0.001   9.724  22.966  0.00  0.00    +0.000 C 
ATOM     20  C   UNL     1      -0.592  11.114  22.681  0.00  0.00    +0.000 C 
ATOM     21  C   UNL     1      -0.807  11.519  21.214  0.00  0.00    +0.000 C 
ATOM     22  C   UNL     1      -1.322  10.357  20.378  0.00  0.00    +0.000 C 
ENDBRANCH  12  17
BRANCH   1  23
ATOM     23  C   UNL     1       5.645   4.307  17.704  0.00  0.00    +0.000 C 
BRANCH  23  25
ATOM     24  C   UNL     1       5.198   4.197  14.918  0.00  0.00    +0.000 C 
ATOM     25  C   UNL     1       5.404   4.248  16.205  0.00  0.00    +0.000 C 
ENDBRANCH  23  25
ENDBRANCH   1  23
TORSDOF 3
ENDMDL
MODEL 7
REMARK VINA RESULT:      -5.9      2.478      7.471
REMARK  Name = 
REMARK  4 active torsions:
REMARK  status: ('A' for Active; 'I' for Inactive)
REMARK    1  A    between atoms: C_2  and  C_3
REMARK    2  A    between atoms: C_3  and  N_4
REMARK    3  A    between atoms: N_15  and  C_16
REMARK    4  A    between atoms: N_22  and  C_23
REMARK                            x       y       z     vdW  Elec       q    Type
REMARK                         _______ _______ _______ _____ _____    ______ ____
ROOT
ATOM      1  N   UNL     1       3.360   4.879  19.289  0.00  0.00    +0.000 N 
ATOM      2  C   UNL     1       2.514   5.550  20.157  0.00  0.00    +0.000 A 
ATOM      3  O   UNL     1       2.053   5.049  21.195  0.00  0.00    +0.000 OA
ATOM      4  C   UNL     1       2.208   6.858  19.753  0.00  0.00    +0.000 A 
ATOM      5  C   UNL     1       2.714   7.414  18.604  0.00  0.00    +0.000 A 
ATOM      6  N   UNL     1       2.207   8.663  18.411  0.00  0.00    +0.000 NA
ATOM      7  C   UNL     1       1.459   8.940  19.471  0.00  0.00    +0.000 A 
ATOM      8  N   UNL     1       1.432   7.834  20.299  0.00  0.00    +0.000 N 
ATOM      9  C   UNL     1       0.741   7.786  21.574  0.00  0.00    +0.000 C 
ATOM     10  C   UNL     1       0.422   9.181  22.085  0.00  0.00    +0.000 C 
ATOM     11  C   UNL     1      -0.151  10.004  20.944  0.00  0.00    +0.000 C 
ATOM     12  N   UNL     1       0.803  10.094  19.831  0.00  0.00    +0.000 N 
ATOM     13  N   UNL     1       3.636   6.743  17.828  0.00  0.00    +0.000 N 
ATOM     14  C   UNL     1       4.264   7.322  16.656  0.00  0.00    +0.000 C 
ATOM     15  C   UNL     1       3.998   5.441  18.172  0.00  0.00    +0.000 A 
ATOM     16  O   UNL     1       4.842   4.812  17.518  0.00  0.00    +0.000 OA
ENDROOT
BRANCH  12  17
ATOM     17  C   UNL     1       1.327  11.447  19.473  0.00  0.00    +0.000 C 
ATOM     18  C   UNL     1       0.688  12.049  18.221  0.00  0.00    +0.000 C 
ATOM     19  C   UNL     1      -0.777  12.407  18.425  0.00  0.00    +0.000 C 
ATOM     20  C   UNL     1      -1.009  13.230  19.703  0.00  0.00    +0.000 C 
ATOM     21  C   UNL     1      -0.209  12.851  20.960  0.00  0.00    +0.000 C 
ATOM     22  C   UNL     1       1.225  12.476  20.623  0.00  0.00    +0.000 C 
ENDBRANCH  12  17
BRANCH   1  23
ATOM     23  C   UNL     1       3.536   3.471  19.493  0.00  0.00    +0.000 C 
BRANCH  23  25
ATOM     24  C   UNL     1       1.226   2.130  18.574  0.00  0.00    +0.000 C 
ATOM     25  C   UNL     1       2.293   2.750  18.999  0.00  0.00    +0.000 C 
ENDBRANCH  23  25
ENDBRANCH   1  23
TORSDOF 3
ENDMDL
MODEL 8
REMARK VINA RESULT:      -5.8      8.927     10.638
REMARK  Name = 
REMARK  4 active torsions:
REMARK  status: ('A' for Active; 'I' for Inactive)
REMARK    1  A    between atoms: C_2  and  C_3
REMARK    2  A    between atoms: C_3  and  N_4
REMARK    3  A    between atoms: N_15  and  C_16
REMARK    4  A    between atoms: N_22  and  C_23
REMARK                            x       y       z     vdW  Elec       q    Type
REMARK                         _______ _______ _______ _____ _____    ______ ____
ROOT
ATOM      1  N   UNL     1       6.524  12.692  23.549  0.00  0.00    +0.000 N 
ATOM      2  C   UNL     1       7.664  12.181  22.951  0.00  0.00    +0.000 A 
ATOM      3  O   UNL     1       8.221  11.132  23.312  0.00  0.00    +0.000 OA
ATOM      4  C   UNL     1       8.152  12.967  21.896  0.00  0.00    +0.000 A 
ATOM      5  C   UNL     1       7.542  14.129  21.497  0.00  0.00    +0.000 A 
ATOM      6  N   UNL     1       8.254  14.730  20.504  0.00  0.00    +0.000 NA
ATOM      7  C   UNL     1       9.258  13.915  20.207  0.00  0.00    +0.000 A 
ATOM      8  N   UNL     1       9.223  12.834  21.066  0.00  0.00    +0.000 N 
ATOM      9  C   UNL     1      10.149  11.718  21.011  0.00  0.00    +0.000 C 
ATOM     10  C   UNL     1      10.868  11.660  19.674  0.00  0.00    +0.000 C 
ATOM     11  C   UNL     1      11.343  13.056  19.309  0.00  0.00    +0.000 C 
ATOM     12  N   UNL     1      10.212  13.989  19.219  0.00  0.00    +0.000 N 
ATOM     13  N   UNL     1       6.349  14.542  22.053  0.00  0.00    +0.000 N 
ATOM     14  C   UNL     1       5.621  15.713  21.605  0.00  0.00    +0.000 C 
ATOM     15  C   UNL     1       5.795  13.806  23.101  0.00  0.00    +0.000 A 
ATOM     16  O   UNL     1       4.712  14.124  23.611  0.00  0.00    +0.000 OA
ENDROOT
BRANCH  12  17
ATOM     17  C   UNL     1       9.930  14.613  17.891  0.00  0.00    +0.000 C 
ATOM     18  C   UNL     1       9.443  16.060  17.976  0.00  0.00    +0.000 C 
ATOM     19  C   UNL     1      10.524  17.015  18.464  0.00  0.00    +0.000 C 
ATOM     20  C   UNL     1      11.848  16.844  17.701  0.00  0.00    +0.000 C 
ATOM     21  C   UNL     1      12.296  15.418  17.344  0.00  0.00    +0.000 C 
ATOM     22  C   UNL     1      11.125  14.551  16.911  0.00  0.00    +0.000 C 
ENDBRANCH  12  17
BRANCH   1  23
ATOM     23  C   UNL     1       6.094  12.090  24.776  0.00  0.00    +0.000 C 
BRANCH  23  25
ATOM     24  C   UNL     1       7.603  13.187  26.897  0.00  0.00    +0.000 C 
ATOM     25  C   UNL     1       6.906  12.680  25.917  0.00  0.00    +0.000 C 
ENDBRANCH  23  25
ENDBRANCH   1  23
TORSDOF 3
ENDMDL
MODEL 9
REMARK VINA RESULT:      -5.6      3.436      5.656
REMARK  Name = 
REMARK  4 active torsions:
REMARK  status: ('A' for Active; 'I' for Inactive)
REMARK    1  A    between atoms: C_2  and  C_3
REMARK    2  A    between atoms: C_3  and  N_4
REMARK    3  A    between atoms: N_15  and  C_16
REMARK    4  A    between atoms: N_22  and  C_23
REMARK                            x       y       z     vdW  Elec       q    Type
REMARK                         _______ _______ _______ _____ _____    ______ ____
ROOT
ATOM      1  N   UNL     1      -5.159  13.925  21.363  0.00  0.00    +0.000 N 
ATOM      2  C   UNL     1      -4.840  13.241  20.202  0.00  0.00    +0.000 A 
ATOM      3  O   UNL     1      -5.598  13.152  19.223  0.00  0.00    +0.000 OA
ATOM      4  C   UNL     1      -3.574  12.637  20.229  0.00  0.00    +0.000 A 
ATOM      5  C   UNL     1      -2.734  12.729  21.310  0.00  0.00    +0.000 A 
ATOM      6  N   UNL     1      -1.603  11.999  21.105  0.00  0.00    +0.000 NA
ATOM      7  C   UNL     1      -1.676  11.520  19.870  0.00  0.00    +0.000 A 
ATOM      8  N   UNL     1      -2.890  11.886  19.322  0.00  0.00    +0.000 N 
ATOM      9  C   UNL     1      -3.302  11.570  17.966  0.00  0.00    +0.000 C 
ATOM     10  C   UNL     1      -2.115  11.179  17.103  0.00  0.00    +0.000 C 
ATOM     11  C   UNL     1      -1.243  10.205  17.876  0.00  0.00    +0.000 C 
ATOM     12  N   UNL     1      -0.764  10.808  19.127  0.00  0.00    +0.000 N 
ATOM     13  N   UNL     1      -3.052  13.510  22.402  0.00  0.00    +0.000 N 
ATOM     14  C   UNL     1      -2.161  13.710  23.528  0.00  0.00    +0.000 C 
ATOM     15  C   UNL     1      -4.291  14.150  22.443  0.00  0.00    +0.000 A 
ATOM     16  O   UNL     1      -4.607  14.883  23.392  0.00  0.00    +0.000 OA
ENDROOT
BRANCH  12  17
ATOM     17  C   UNL     1       0.709  11.000  19.287  0.00  0.00    +0.000 C 
ATOM     18  C   UNL     1       1.269  10.445  20.598  0.00  0.00    +0.000 C 
ATOM     19  C   UNL     1       1.218   8.925  20.661  0.00  0.00    +0.000 C 
ATOM     20  C   UNL     1       1.803   8.264  19.403  0.00  0.00    +0.000 C 
ATOM     21  C   UNL     1       1.498   8.908  18.041  0.00  0.00    +0.000 C 
ATOM     22  C   UNL     1       1.540  10.427  18.114  0.00  0.00    +0.000 C 
ENDBRANCH  12  17
BRANCH   1  23
ATOM     23  C   UNL     1      -6.513  14.368  21.519  0.00  0.00    +0.000 C 
BRANCH  23  25
ATOM     24  C   UNL     1      -7.915  12.462  23.062  0.00  0.00    +0.000 C 
ATOM     25  C   UNL     1      -7.267  13.342  22.350  0.00  0.00    +0.000 C 
ENDBRANCH  23  25
ENDBRANCH   1  23
TORSDOF 3
ENDMDL
