MODEL 1
REMARK VINA RESULT:      -8.2      0.000      0.000
REMARK  Name = 
REMARK  11 active torsions:
REMARK  status: ('A' for Active; 'I' for Inactive)
REMARK    1  A    between atoms: C_2  and  C_4
REMARK    2  A    between atoms: C_4  and  C_5
REMARK    3  A    between atoms: C_5  and  C_6
REMARK    4  A    between atoms: C_6  and  N_7
REMARK    5  A    between atoms: C_6  and  C_8
REMARK    6  A    between atoms: N_10  and  S_11
REMARK    7  A    between atoms: S_11  and  O_14
REMARK    8  A    between atoms: O_14  and  C_15
REMARK    9  A    between atoms: C_17  and  N_18
REMARK   10  A    between atoms: C_28  and  O_29
REMARK   11  A    between atoms: C_30  and  O_31
REMARK                            x       y       z     vdW  Elec       q    Type
REMARK                         _______ _______ _______ _____ _____    ______ ____
ROOT
ATOM      1  C   UNL     1       4.764   5.371  18.924  0.00  0.00    +0.000 C 
ATOM      2  O   UNL     1       3.956   6.258  19.715  0.00  0.00    +0.000 OA
ATOM      3  C   UNL     1       2.595   6.213  19.242  0.00  0.00    +0.000 C 
ATOM      4  C   UNL     1       2.570   5.352  17.979  0.00  0.00    +0.000 C 
ATOM      5  C   UNL     1       3.776   4.451  18.194  0.00  0.00    +0.000 C 
ENDROOT
BRANCH   3   6
ATOM      6  N   UNL     1       2.104   7.561  19.039  0.00  0.00    +0.000 N 
ATOM      7  C   UNL     1       2.103   8.287  17.877  0.00  0.00    +0.000 A 
ATOM      8  N   UNL     1       1.549   9.472  18.034  0.00  0.00    +0.000 NA
ATOM      9  C   UNL     1       1.189   9.519  19.366  0.00  0.00    +0.000 A 
ATOM     10  C   UNL     1       0.565  10.506  20.149  0.00  0.00    +0.000 A 
ATOM     11  N   UNL     1       0.137  11.722  19.639  0.00  0.00    +0.000 N 
ATOM     12  N   UNL     1       0.358  10.251  21.462  0.00  0.00    +0.000 NA
ATOM     13  C   UNL     1       0.731   9.047  21.948  0.00  0.00    +0.000 A 
ATOM     14  N   UNL     1       1.329   8.029  21.298  0.00  0.00    +0.000 NA
ATOM     15  C   UNL     1       1.528   8.338  20.007  0.00  0.00    +0.000 A 
ATOM     16  H   UNL     1       0.548  11.985  18.752  0.00  0.00    +0.000 HD
ATOM     17  H   UNL     1      -0.026  12.432  20.339  0.00  0.00    +0.000 HD
ENDBRANCH   3   6
BRANCH   4  18
ATOM     18  O   UNL     1       1.369   4.591  17.848  0.00  0.00    +0.000 OA
ATOM     19  H   UNL     1       1.230   4.133  18.704  0.00  0.00    +0.000 HD
ENDBRANCH   4  18
BRANCH   5  20
ATOM     20  O   UNL     1       3.350   3.338  19.010  0.00  0.00    +0.000 OA
ATOM     21  H   UNL     1       3.163   2.569  18.440  0.00  0.00    +0.000 HD
ENDBRANCH   5  20
BRANCH   1  22
ATOM     22  O   UNL     1       5.570   6.098  18.018  0.00  0.00    +0.000 OA
BRANCH  22  23
ATOM     23  S   UNL     1       7.130   5.651  17.936  0.00  0.00    +0.000 S 
ATOM     24  O   UNL     1       7.300   4.386  18.614  0.00  0.00    +0.000 OA
ATOM     25  O   UNL     1       7.933   6.798  18.306  0.00  0.00    +0.000 OA
BRANCH  23  28
ATOM     26  C   UNL     1       6.794   4.478  15.531  0.00  0.00    +0.000 C 
ATOM     27  O   UNL     1       5.870   3.794  15.937  0.00  0.00    +0.000 OA
ATOM     28  N   UNL     1       7.428   5.432  16.332  0.00  0.00    +0.000 N 
ATOM     29  H   UNL     1       8.220   5.942  15.946  0.00  0.00    +0.000 HD
BRANCH  26  30
ATOM     30  C   UNL     1       7.378   4.366  14.094  0.00  0.00    +0.000 C 
BRANCH  30  31
ATOM     31  N   UNL     1       8.047   5.636  13.710  0.00  0.00    +0.000 NA
ATOM     32  H   UNL     1       7.332   6.333  13.482  0.00  0.00    +0.000 HD
ATOM     33  H   UNL     1       8.565   5.495  12.840  0.00  0.00    +0.000 HD
ENDBRANCH  30  31
BRANCH  30  34
ATOM     34  C   UNL     1       6.242   3.981  13.140  0.00  0.00    +0.000 C 
BRANCH  34  35
ATOM     35  C   UNL     1       6.664   3.212  11.890  0.00  0.00    +0.000 C 
BRANCH  35  37
ATOM     36  N   UNL     1       5.989   0.950  11.341  0.00  0.00    +0.000 N 
ATOM     37  C   UNL     1       5.576   2.239  11.472  0.00  0.00    +0.000 C 
ATOM     38  O   UNL     1       4.413   2.551  11.249  0.00  0.00    +0.000 OA
ATOM     39  H   UNL     1       5.295   0.262  11.070  0.00  0.00    +0.000 HD
ATOM     40  H   UNL     1       6.931   0.638  11.531  0.00  0.00    +0.000 HD
ENDBRANCH  35  37
ENDBRANCH  34  35
ENDBRANCH  30  34
ENDBRANCH  26  30
ENDBRANCH  23  28
ENDBRANCH  22  23
ENDBRANCH   1  22
TORSDOF 11
ENDMDL
MODEL 2
REMARK VINA RESULT:      -7.9      1.442      1.586
REMARK  Name = 
REMARK  11 active torsions:
REMARK  status: ('A' for Active; 'I' for Inactive)
REMARK    1  A    between atoms: C_2  and  C_4
REMARK    2  A    between atoms: C_4  and  C_5
REMARK    3  A    between atoms: C_5  and  C_6
REMARK    4  A    between atoms: C_6  and  N_7
REMARK    5  A    between atoms: C_6  and  C_8
REMARK    6  A    between atoms: N_10  and  S_11
REMARK    7  A    between atoms: S_11  and  O_14
REMARK    8  A    between atoms: O_14  and  C_15
REMARK    9  A    between atoms: C_17  and  N_18
REMARK   10  A    between atoms: C_28  and  O_29
REMARK   11  A    between atoms: C_30  and  O_31
REMARK                            x       y       z     vdW  Elec       q    Type
REMARK                         _______ _______ _______ _____ _____    ______ ____
ROOT
ATOM      1  C   UNL     1       4.159   3.915  19.480  0.00  0.00    +0.000 C 
ATOM      2  O   UNL     1       3.989   5.262  19.950  0.00  0.00    +0.000 OA
ATOM      3  C   UNL     1       2.581   5.550  20.074  0.00  0.00    +0.000 C 
ATOM      4  C   UNL     1       1.811   4.358  19.508  0.00  0.00    +0.000 C 
ATOM      5  C   UNL     1       2.806   3.224  19.704  0.00  0.00    +0.000 C 
ENDROOT
BRANCH   3   6
ATOM      6  N   UNL     1       2.280   6.805  19.415  0.00  0.00    +0.000 N 
ATOM      7  C   UNL     1       2.479   7.130  18.099  0.00  0.00    +0.000 A 
ATOM      8  N   UNL     1       2.062   8.348  17.821  0.00  0.00    +0.000 NA
ATOM      9  C   UNL     1       1.584   8.839  19.019  0.00  0.00    +0.000 A 
ATOM     10  C   UNL     1       1.013  10.071  19.384  0.00  0.00    +0.000 A 
ATOM     11  N   UNL     1       0.788  11.100  18.482  0.00  0.00    +0.000 N 
ATOM     12  N   UNL     1       0.651  10.257  20.674  0.00  0.00    +0.000 NA
ATOM     13  C   UNL     1       0.826   9.237  21.543  0.00  0.00    +0.000 A 
ATOM     14  N   UNL     1       1.354   8.019  21.310  0.00  0.00    +0.000 NA
ATOM     15  C   UNL     1       1.713   7.892  20.023  0.00  0.00    +0.000 A 
ATOM     16  H   UNL     1       1.310  11.037  17.618  0.00  0.00    +0.000 HD
ATOM     17  H   UNL     1       0.645  12.004  18.910  0.00  0.00    +0.000 HD
ENDBRANCH   3   6
BRANCH   4  18
ATOM     18  O   UNL     1       0.590   4.103  20.204  0.00  0.00    +0.000 OA
ATOM     19  H   UNL     1       0.308   4.954  20.600  0.00  0.00    +0.000 HD
ENDBRANCH   4  18
BRANCH   5  20
ATOM     20  O   UNL     1       2.652   2.735  21.054  0.00  0.00    +0.000 OA
ATOM     21  H   UNL     1       3.529   2.655  21.474  0.00  0.00    +0.000 HD
ENDBRANCH   5  20
BRANCH   1  22
ATOM     22  O   UNL     1       4.534   3.900  18.117  0.00  0.00    +0.000 OA
BRANCH  22  23
ATOM     23  S   UNL     1       5.849   4.773  17.731  0.00  0.00    +0.000 S 
ATOM     24  O   UNL     1       6.916   4.460  18.654  0.00  0.00    +0.000 OA
ATOM     25  O   UNL     1       5.421   6.144  17.536  0.00  0.00    +0.000 OA
BRANCH  23  28
ATOM     26  C   UNL     1       7.103   4.964  15.351  0.00  0.00    +0.000 C 
ATOM     27  O   UNL     1       7.670   5.993  15.676  0.00  0.00    +0.000 OA
ATOM     28  N   UNL     1       6.280   4.253  16.231  0.00  0.00    +0.000 N 
ATOM     29  H   UNL     1       5.803   3.423  15.885  0.00  0.00    +0.000 HD
BRANCH  26  30
ATOM     30  C   UNL     1       7.217   4.331  13.936  0.00  0.00    +0.000 C 
BRANCH  30  31
ATOM     31  N   UNL     1       7.621   5.361  12.943  0.00  0.00    +0.000 NA
ATOM     32  H   UNL     1       7.382   6.286  13.308  0.00  0.00    +0.000 HD
ATOM     33  H   UNL     1       7.055   5.255  12.098  0.00  0.00    +0.000 HD
ENDBRANCH  30  31
BRANCH  30  34
ATOM     34  C   UNL     1       5.877   3.670  13.593  0.00  0.00    +0.000 C 
BRANCH  34  35
ATOM     35  C   UNL     1       5.252   4.098  12.267  0.00  0.00    +0.000 C 
BRANCH  35  37
ATOM     36  N   UNL     1       3.634   3.037  10.807  0.00  0.00    +0.000 N 
ATOM     37  C   UNL     1       4.813   2.884  11.469  0.00  0.00    +0.000 C 
ATOM     38  O   UNL     1       5.435   1.830  11.409  0.00  0.00    +0.000 OA
ATOM     39  H   UNL     1       3.304   2.254  10.254  0.00  0.00    +0.000 HD
ATOM     40  H   UNL     1       3.094   3.890  10.809  0.00  0.00    +0.000 HD
ENDBRANCH  35  37
ENDBRANCH  34  35
ENDBRANCH  30  34
ENDBRANCH  26  30
ENDBRANCH  23  28
ENDBRANCH  22  23
ENDBRANCH   1  22
TORSDOF 11
ENDMDL
MODEL 3
REMARK VINA RESULT:      -7.8      1.152      1.178
REMARK  Name = 
REMARK  11 active torsions:
REMARK  status: ('A' for Active; 'I' for Inactive)
REMARK    1  A    between atoms: C_2  and  C_4
REMARK    2  A    between atoms: C_4  and  C_5
REMARK    3  A    between atoms: C_5  and  C_6
REMARK    4  A    between atoms: C_6  and  N_7
REMARK    5  A    between atoms: C_6  and  C_8
REMARK    6  A    between atoms: N_10  and  S_11
REMARK    7  A    between atoms: S_11  and  O_14
REMARK    8  A    between atoms: O_14  and  C_15
REMARK    9  A    between atoms: C_17  and  N_18
REMARK   10  A    between atoms: C_28  and  O_29
REMARK   11  A    between atoms: C_30  and  O_31
REMARK                            x       y       z     vdW  Elec       q    Type
REMARK                         _______ _______ _______ _____ _____    ______ ____
ROOT
ATOM      1  C   UNL     1       5.046   4.695  18.493  0.00  0.00    +0.000 C 
ATOM      2  O   UNL     1       4.649   5.909  19.150  0.00  0.00    +0.000 OA
ATOM      3  C   UNL     1       3.215   5.924  19.301  0.00  0.00    +0.000 C 
ATOM      4  C   UNL     1       2.658   4.707  18.564  0.00  0.00    +0.000 C 
ATOM      5  C   UNL     1       3.840   3.751  18.603  0.00  0.00    +0.000 C 
ENDROOT
BRANCH   3   6
ATOM      6  N   UNL     1       2.687   7.187  18.826  0.00  0.00    +0.000 N 
ATOM      7  C   UNL     1       2.859   7.757  17.593  0.00  0.00    +0.000 A 
ATOM      8  N   UNL     1       2.211   8.899  17.480  0.00  0.00    +0.000 NA
ATOM      9  C   UNL     1       1.605   9.083  18.707  0.00  0.00    +0.000 A 
ATOM     10  C   UNL     1       0.784  10.102  19.220  0.00  0.00    +0.000 A 
ATOM     11  N   UNL     1       0.383  11.201  18.476  0.00  0.00    +0.000 N 
ATOM     12  N   UNL     1       0.350   9.998  20.497  0.00  0.00    +0.000 NA
ATOM     13  C   UNL     1       0.700   8.903  21.207  0.00  0.00    +0.000 A 
ATOM     14  N   UNL     1       1.473   7.867  20.823  0.00  0.00    +0.000 NA
ATOM     15  C   UNL     1       1.892   8.027  19.557  0.00  0.00    +0.000 A 
ATOM     16  H   UNL     1       0.936  11.385  17.648  0.00  0.00    +0.000 HD
ATOM     17  H   UNL     1       0.046  11.976  19.029  0.00  0.00    +0.000 HD
ENDBRANCH   3   6
BRANCH   4  18
ATOM     18  O   UNL     1       1.513   4.144  19.204  0.00  0.00    +0.000 OA
ATOM     19  H   UNL     1       0.738   4.374  18.650  0.00  0.00    +0.000 HD
ENDBRANCH   4  18
BRANCH   5  20
ATOM     20  O   UNL     1       3.797   3.055  19.868  0.00  0.00    +0.000 OA
ATOM     21  H   UNL     1       4.682   2.701  20.075  0.00  0.00    +0.000 HD
ENDBRANCH   5  20
BRANCH   1  22
ATOM     22  O   UNL     1       5.395   4.942  17.145  0.00  0.00    +0.000 OA
BRANCH  22  23
ATOM     23  S   UNL     1       6.833   5.658  16.901  0.00  0.00    +0.000 S 
ATOM     24  O   UNL     1       7.845   4.968  17.669  0.00  0.00    +0.000 OA
ATOM     25  O   UNL     1       6.640   7.086  17.051  0.00  0.00    +0.000 OA
BRANCH  23  28
ATOM     26  C   UNL     1       6.744   4.336  14.553  0.00  0.00    +0.000 C 
ATOM     27  O   UNL     1       6.011   3.475  15.007  0.00  0.00    +0.000 OA
ATOM     28  N   UNL     1       7.150   5.446  15.301  0.00  0.00    +0.000 N 
ATOM     29  H   UNL     1       7.796   6.108  14.875  0.00  0.00    +0.000 HD
BRANCH  26  30
ATOM     30  C   UNL     1       7.317   4.301  13.108  0.00  0.00    +0.000 C 
BRANCH  30  31
ATOM     31  N   UNL     1       8.048   5.560  12.813  0.00  0.00    +0.000 NA
ATOM     32  H   UNL     1       7.403   6.227  12.382  0.00  0.00    +0.000 HD
ATOM     33  H   UNL     1       8.757   5.380  12.099  0.00  0.00    +0.000 HD
ENDBRANCH  30  31
BRANCH  30  34
ATOM     34  C   UNL     1       6.160   4.046  12.135  0.00  0.00    +0.000 C 
BRANCH  34  35
ATOM     35  C   UNL     1       5.628   2.615  12.104  0.00  0.00    +0.000 C 
BRANCH  35  37
ATOM     36  N   UNL     1       6.213   0.399  11.315  0.00  0.00    +0.000 N 
ATOM     37  C   UNL     1       6.593   1.705  11.367  0.00  0.00    +0.000 C 
ATOM     38  O   UNL     1       7.643   2.074  10.856  0.00  0.00    +0.000 OA
ATOM     39  H   UNL     1       6.824  -0.246  10.826  0.00  0.00    +0.000 HD
ATOM     40  H   UNL     1       5.350   0.048  11.703  0.00  0.00    +0.000 HD
ENDBRANCH  35  37
ENDBRANCH  34  35
ENDBRANCH  30  34
ENDBRANCH  26  30
ENDBRANCH  23  28
ENDBRANCH  22  23
ENDBRANCH   1  22
TORSDOF 11
ENDMDL
MODEL 4
REMARK VINA RESULT:      -7.8      0.944      1.763
REMARK  Name = 
REMARK  11 active torsions:
REMARK  status: ('A' for Active; 'I' for Inactive)
REMARK    1  A    between atoms: C_2  and  C_4
REMARK    2  A    between atoms: C_4  and  C_5
REMARK    3  A    between atoms: C_5  and  C_6
REMARK    4  A    between atoms: C_6  and  N_7
REMARK    5  A    between atoms: C_6  and  C_8
REMARK    6  A    between atoms: N_10  and  S_11
REMARK    7  A    between atoms: S_11  and  O_14
REMARK    8  A    between atoms: O_14  and  C_15
REMARK    9  A    between atoms: C_17  and  N_18
REMARK   10  A    between atoms: C_28  and  O_29
REMARK   11  A    between atoms: C_30  and  O_31
REMARK                            x       y       z     vdW  Elec       q    Type
REMARK                         _______ _______ _______ _____ _____    ______ ____
ROOT
ATOM      1  C   UNL     1       4.881   4.858  18.869  0.00  0.00    +0.000 C 
ATOM      2  O   UNL     1       4.135   5.295  20.016  0.00  0.00    +0.000 OA
ATOM      3  C   UNL     1       2.726   5.248  19.715  0.00  0.00    +0.000 C 
ATOM      4  C   UNL     1       2.578   4.895  18.236  0.00  0.00    +0.000 C 
ATOM      5  C   UNL     1       3.869   4.138  17.966  0.00  0.00    +0.000 C 
ENDROOT
BRANCH   3   6
ATOM      6  N   UNL     1       2.106   6.506  20.080  0.00  0.00    +0.000 N 
ATOM      7  C   UNL     1       1.475   6.821  21.255  0.00  0.00    +0.000 A 
ATOM      8  N   UNL     1       1.052   8.068  21.271  0.00  0.00    +0.000 NA
ATOM      9  C   UNL     1       1.413   8.579  20.041  0.00  0.00    +0.000 A 
ATOM     10  C   UNL     1       1.244   9.842  19.448  0.00  0.00    +0.000 A 
ATOM     11  N   UNL     1       0.639  10.910  20.094  0.00  0.00    +0.000 N 
ATOM     12  N   UNL     1       1.707  10.031  18.190  0.00  0.00    +0.000 NA
ATOM     13  C   UNL     1       2.338   9.005  17.578  0.00  0.00    +0.000 A 
ATOM     14  N   UNL     1       2.562   7.760  18.045  0.00  0.00    +0.000 NA
ATOM     15  C   UNL     1       2.069   7.620  19.286  0.00  0.00    +0.000 A 
ATOM     16  H   UNL     1       0.072  10.663  20.895  0.00  0.00    +0.000 HD
ATOM     17  H   UNL     1       0.331  11.648  19.477  0.00  0.00    +0.000 HD
ENDBRANCH   3   6
BRANCH   4  18
ATOM     18  O   UNL     1       1.434   4.083  17.968  0.00  0.00    +0.000 OA
ATOM     19  H   UNL     1       1.068   3.816  18.838  0.00  0.00    +0.000 HD
ENDBRANCH   4  18
BRANCH   5  20
ATOM     20  O   UNL     1       3.659   2.764  18.357  0.00  0.00    +0.000 OA
ATOM     21  H   UNL     1       4.296   2.191  17.889  0.00  0.00    +0.000 HD
ENDBRANCH   5  20
BRANCH   1  22
ATOM     22  O   UNL     1       5.482   5.955  18.210  0.00  0.00    +0.000 OA
BRANCH  22  23
ATOM     23  S   UNL     1       7.106   5.994  18.229  0.00  0.00    +0.000 S 
ATOM     24  O   UNL     1       7.593   5.096  19.251  0.00  0.00    +0.000 OA
ATOM     25  O   UNL     1       7.509   7.386  18.218  0.00  0.00    +0.000 OA
BRANCH  23  28
ATOM     26  C   UNL     1       6.832   5.577  15.579  0.00  0.00    +0.000 C 
ATOM     27  O   UNL     1       5.832   6.272  15.522  0.00  0.00    +0.000 OA
ATOM     28  N   UNL     1       7.565   5.415  16.758  0.00  0.00    +0.000 N 
ATOM     29  H   UNL     1       8.368   4.789  16.749  0.00  0.00    +0.000 HD
BRANCH  26  30
ATOM     30  C   UNL     1       7.401   4.790  14.364  0.00  0.00    +0.000 C 
BRANCH  30  31
ATOM     31  N   UNL     1       8.050   5.722  13.406  0.00  0.00    +0.000 NA
ATOM     32  H   UNL     1       8.482   6.489  13.927  0.00  0.00    +0.000 HD
ATOM     33  H   UNL     1       7.333   6.166  12.828  0.00  0.00    +0.000 HD
ENDBRANCH  30  31
BRANCH  30  34
ATOM     34  C   UNL     1       6.258   3.989  13.730  0.00  0.00    +0.000 C 
BRANCH  34  35
ATOM     35  C   UNL     1       6.332   3.823  12.214  0.00  0.00    +0.000 C 
BRANCH  35  37
ATOM     36  N   UNL     1       5.954   1.516  11.574  0.00  0.00    +0.000 N 
ATOM     37  C   UNL     1       5.379   2.736  11.751  0.00  0.00    +0.000 C 
ATOM     38  O   UNL     1       4.186   2.906  11.531  0.00  0.00    +0.000 OA
ATOM     39  H   UNL     1       5.354   0.756  11.272  0.00  0.00    +0.000 HD
ATOM     40  H   UNL     1       6.927   1.320  11.759  0.00  0.00    +0.000 HD
ENDBRANCH  35  37
ENDBRANCH  34  35
ENDBRANCH  30  34
ENDBRANCH  26  30
ENDBRANCH  23  28
ENDBRANCH  22  23
ENDBRANCH   1  22
TORSDOF 11
ENDMDL
MODEL 5
REMARK VINA RESULT:      -7.7      1.676      1.839
REMARK  Name = 
REMARK  11 active torsions:
REMARK  status: ('A' for Active; 'I' for Inactive)
REMARK    1  A    between atoms: C_2  and  C_4
REMARK    2  A    between atoms: C_4  and  C_5
REMARK    3  A    between atoms: C_5  and  C_6
REMARK    4  A    between atoms: C_6  and  N_7
REMARK    5  A    between atoms: C_6  and  C_8
REMARK    6  A    between atoms: N_10  and  S_11
REMARK    7  A    between atoms: S_11  and  O_14
REMARK    8  A    between atoms: O_14  and  C_15
REMARK    9  A    between atoms: C_17  and  N_18
REMARK   10  A    between atoms: C_28  and  O_29
REMARK   11  A    between atoms: C_30  and  O_31
REMARK                            x       y       z     vdW  Elec       q    Type
REMARK                         _______ _______ _______ _____ _____    ______ ____
ROOT
ATOM      1  C   UNL     1       4.397   4.136  18.765  0.00  0.00    +0.000 C 
ATOM      2  O   UNL     1       4.357   5.490  19.243  0.00  0.00    +0.000 OA
ATOM      3  C   UNL     1       3.017   5.805  19.673  0.00  0.00    +0.000 C 
ATOM      4  C   UNL     1       2.122   4.622  19.309  0.00  0.00    +0.000 C 
ATOM      5  C   UNL     1       3.117   3.472  19.293  0.00  0.00    +0.000 C 
ENDROOT
BRANCH   3   6
ATOM      6  N   UNL     1       2.596   7.060  19.081  0.00  0.00    +0.000 N 
ATOM      7  C   UNL     1       2.842   7.512  17.811  0.00  0.00    +0.000 A 
ATOM      8  N   UNL     1       2.284   8.684  17.587  0.00  0.00    +0.000 NA
ATOM      9  C   UNL     1       1.661   9.011  18.774  0.00  0.00    +0.000 A 
ATOM     10  C   UNL     1       0.904  10.125  19.176  0.00  0.00    +0.000 A 
ATOM     11  N   UNL     1       0.606  11.185  18.333  0.00  0.00    +0.000 N 
ATOM     12  N   UNL     1       0.429  10.159  20.443  0.00  0.00    +0.000 NA
ATOM     13  C   UNL     1       0.679   9.104  21.250  0.00  0.00    +0.000 A 
ATOM     14  N   UNL     1       1.383   7.987  20.976  0.00  0.00    +0.000 NA
ATOM     15  C   UNL     1       1.846   8.012  19.716  0.00  0.00    +0.000 A 
ATOM     16  H   UNL     1       1.192  11.260  17.512  0.00  0.00    +0.000 HD
ATOM     17  H   UNL     1       0.312  12.026  18.810  0.00  0.00    +0.000 HD
ENDBRANCH   3   6
BRANCH   4  18
ATOM     18  O   UNL     1       1.082   4.396  20.261  0.00  0.00    +0.000 OA
ATOM     19  H   UNL     1       0.263   4.227  19.751  0.00  0.00    +0.000 HD
ENDBRANCH   4  18
BRANCH   5  20
ATOM     20  O   UNL     1       3.260   2.999  20.650  0.00  0.00    +0.000 OA
ATOM     21  H   UNL     1       2.377   2.873  21.046  0.00  0.00    +0.000 HD
ENDBRANCH   5  20
BRANCH   1  22
ATOM     22  O   UNL     1       4.459   4.103  17.353  0.00  0.00    +0.000 OA
BRANCH  22  23
ATOM     23  S   UNL     1       5.780   4.768  16.681  0.00  0.00    +0.000 S 
ATOM     24  O   UNL     1       6.942   4.411  17.462  0.00  0.00    +0.000 OA
ATOM     25  O   UNL     1       5.476   6.158  16.405  0.00  0.00    +0.000 OA
BRANCH  23  28
ATOM     26  C   UNL     1       6.770   4.497  14.188  0.00  0.00    +0.000 C 
ATOM     27  O   UNL     1       7.597   5.374  14.366  0.00  0.00    +0.000 OA
ATOM     28  N   UNL     1       5.906   4.066  15.199  0.00  0.00    +0.000 N 
ATOM     29  H   UNL     1       5.210   3.357  14.973  0.00  0.00    +0.000 HD
BRANCH  26  30
ATOM     30  C   UNL     1       6.571   3.768  12.829  0.00  0.00    +0.000 C 
BRANCH  30  31
ATOM     31  N   UNL     1       7.367   4.436  11.766  0.00  0.00    +0.000 NA
ATOM     32  H   UNL     1       6.754   5.059  11.233  0.00  0.00    +0.000 HD
ATOM     33  H   UNL     1       7.684   3.736  11.091  0.00  0.00    +0.000 HD
ENDBRANCH  30  31
BRANCH  30  34
ATOM     34  C   UNL     1       5.072   3.733  12.513  0.00  0.00    +0.000 C 
BRANCH  34  35
ATOM     35  C   UNL     1       4.653   2.763  11.410  0.00  0.00    +0.000 C 
BRANCH  35  37
ATOM     36  N   UNL     1       2.525   2.445  10.294  0.00  0.00    +0.000 N 
ATOM     37  C   UNL     1       3.503   3.339  10.604  0.00  0.00    +0.000 C 
ATOM     38  O   UNL     1       3.430   4.504  10.233  0.00  0.00    +0.000 OA
ATOM     39  H   UNL     1       1.732   2.786   9.762  0.00  0.00    +0.000 HD
ATOM     40  H   UNL     1       2.530   1.480  10.592  0.00  0.00    +0.000 HD
ENDBRANCH  35  37
ENDBRANCH  34  35
ENDBRANCH  30  34
ENDBRANCH  26  30
ENDBRANCH  23  28
ENDBRANCH  22  23
ENDBRANCH   1  22
TORSDOF 11
ENDMDL
MODEL 6
REMARK VINA RESULT:      -7.6      1.222      2.060
REMARK  Name = 
REMARK  11 active torsions:
REMARK  status: ('A' for Active; 'I' for Inactive)
REMARK    1  A    between atoms: C_2  and  C_4
REMARK    2  A    between atoms: C_4  and  C_5
REMARK    3  A    between atoms: C_5  and  C_6
REMARK    4  A    between atoms: C_6  and  N_7
REMARK    5  A    between atoms: C_6  and  C_8
REMARK    6  A    between atoms: N_10  and  S_11
REMARK    7  A    between atoms: S_11  and  O_14
REMARK    8  A    between atoms: O_14  and  C_15
REMARK    9  A    between atoms: C_17  and  N_18
REMARK   10  A    between atoms: C_28  and  O_29
REMARK   11  A    between atoms: C_30  and  O_31
REMARK                            x       y       z     vdW  Elec       q    Type
REMARK                         _______ _______ _______ _____ _____    ______ ____
ROOT
ATOM      1  C   UNL     1       5.064   4.237  17.968  0.00  0.00    +0.000 C 
ATOM      2  O   UNL     1       4.530   4.660  19.233  0.00  0.00    +0.000 OA
ATOM      3  C   UNL     1       3.100   4.473  19.234  0.00  0.00    +0.000 C 
ATOM      4  C   UNL     1       2.687   4.041  17.827  0.00  0.00    +0.000 C 
ATOM      5  C   UNL     1       3.963   3.389  17.316  0.00  0.00    +0.000 C 
ENDROOT
BRANCH   3   6
ATOM      6  N   UNL     1       2.449   5.687  19.685  0.00  0.00    +0.000 N 
ATOM      7  C   UNL     1       1.757   5.883  20.851  0.00  0.00    +0.000 A 
ATOM      8  N   UNL     1       1.320   7.121  20.965  0.00  0.00    +0.000 NA
ATOM      9  C   UNL     1       1.738   7.750  19.810  0.00  0.00    +0.000 A 
ATOM     10  C   UNL     1       1.586   9.064  19.333  0.00  0.00    +0.000 A 
ATOM     11  N   UNL     1       0.939  10.061  20.047  0.00  0.00    +0.000 N 
ATOM     12  N   UNL     1       2.111   9.376  18.125  0.00  0.00    +0.000 NA
ATOM     13  C   UNL     1       2.784   8.417  17.451  0.00  0.00    +0.000 A 
ATOM     14  N   UNL     1       2.996   7.134  17.807  0.00  0.00    +0.000 NA
ATOM     15  C   UNL     1       2.441   6.872  19.001  0.00  0.00    +0.000 A 
ATOM     16  H   UNL     1       0.334   9.735  20.790  0.00  0.00    +0.000 HD
ATOM     17  H   UNL     1       0.655  10.854  19.489  0.00  0.00    +0.000 HD
ENDBRANCH   3   6
BRANCH   4  18
ATOM     18  O   UNL     1       1.597   3.119  17.826  0.00  0.00    +0.000 OA
ATOM     19  H   UNL     1       1.637   2.632  18.677  0.00  0.00    +0.000 HD
ENDBRANCH   4  18
BRANCH   5  20
ATOM     20  O   UNL     1       3.971   2.021  17.779  0.00  0.00    +0.000 OA
ATOM     21  H   UNL     1       4.527   1.480  17.187  0.00  0.00    +0.000 HD
ENDBRANCH   5  20
BRANCH   1  22
ATOM     22  O   UNL     1       5.409   5.351  17.169  0.00  0.00    +0.000 OA
BRANCH  22  23
ATOM     23  S   UNL     1       6.985   5.744  17.137  0.00  0.00    +0.000 S 
ATOM     24  O   UNL     1       7.733   4.776  17.906  0.00  0.00    +0.000 OA
ATOM     25  O   UNL     1       7.088   7.158  17.433  0.00  0.00    +0.000 OA
BRANCH  23  28
ATOM     26  C   UNL     1       7.100   4.537  14.729  0.00  0.00    +0.000 C 
ATOM     27  O   UNL     1       6.354   3.642  15.085  0.00  0.00    +0.000 OA
ATOM     28  N   UNL     1       7.425   5.616  15.557  0.00  0.00    +0.000 N 
ATOM     29  H   UNL     1       8.087   6.310  15.213  0.00  0.00    +0.000 HD
BRANCH  26  30
ATOM     30  C   UNL     1       7.780   4.582  13.331  0.00  0.00    +0.000 C 
BRANCH  30  31
ATOM     31  N   UNL     1       8.360   5.928  13.084  0.00  0.00    +0.000 NA
ATOM     32  H   UNL     1       9.249   6.004  13.584  0.00  0.00    +0.000 HD
ATOM     33  H   UNL     1       7.758   6.638  13.506  0.00  0.00    +0.000 HD
ENDBRANCH  30  31
BRANCH  30  34
ATOM     34  C   UNL     1       6.743   4.181  12.276  0.00  0.00    +0.000 C 
BRANCH  34  35
ATOM     35  C   UNL     1       7.039   2.889  11.518  0.00  0.00    +0.000 C 
BRANCH  35  37
ATOM     36  N   UNL     1       6.021   0.693  11.397  0.00  0.00    +0.000 N 
ATOM     37  C   UNL     1       5.790   2.033  11.416  0.00  0.00    +0.000 C 
ATOM     38  O   UNL     1       4.650   2.475  11.343  0.00  0.00    +0.000 OA
ATOM     39  H   UNL     1       5.215   0.080  11.337  0.00  0.00    +0.000 HD
ATOM     40  H   UNL     1       6.939   0.279  11.473  0.00  0.00    +0.000 HD
ENDBRANCH  35  37
ENDBRANCH  34  35
ENDBRANCH  30  34
ENDBRANCH  26  30
ENDBRANCH  23  28
ENDBRANCH  22  23
ENDBRANCH   1  22
TORSDOF 11
ENDMDL
MODEL 7
REMARK VINA RESULT:      -7.5      3.019      4.778
REMARK  Name = 
REMARK  11 active torsions:
REMARK  status: ('A' for Active; 'I' for Inactive)
REMARK    1  A    between atoms: C_2  and  C_4
REMARK    2  A    between atoms: C_4  and  C_5
REMARK    3  A    between atoms: C_5  and  C_6
REMARK    4  A    between atoms: C_6  and  N_7
REMARK    5  A    between atoms: C_6  and  C_8
REMARK    6  A    between atoms: N_10  and  S_11
REMARK    7  A    between atoms: S_11  and  O_14
REMARK    8  A    between atoms: O_14  and  C_15
REMARK    9  A    between atoms: C_17  and  N_18
REMARK   10  A    between atoms: C_28  and  O_29
REMARK   11  A    between atoms: C_30  and  O_31
REMARK                            x       y       z     vdW  Elec       q    Type
REMARK                         _______ _______ _______ _____ _____    ______ ____
ROOT
ATOM      1  C   UNL     1       4.153   3.840  18.654  0.00  0.00    +0.000 C 
ATOM      2  O   UNL     1       4.302   5.208  19.064  0.00  0.00    +0.000 OA
ATOM      3  C   UNL     1       3.066   5.670  19.645  0.00  0.00    +0.000 C 
ATOM      4  C   UNL     1       2.024   4.568  19.458  0.00  0.00    +0.000 C 
ATOM      5  C   UNL     1       2.898   3.326  19.374  0.00  0.00    +0.000 C 
ENDROOT
BRANCH   3   6
ATOM      6  N   UNL     1       2.689   6.937  19.048  0.00  0.00    +0.000 N 
ATOM      7  C   UNL     1       3.046   7.423  17.818  0.00  0.00    +0.000 A 
ATOM      8  N   UNL     1       2.500   8.597  17.573  0.00  0.00    +0.000 NA
ATOM      9  C   UNL     1       1.769   8.889  18.706  0.00  0.00    +0.000 A 
ATOM     10  C   UNL     1       0.968   9.988  19.065  0.00  0.00    +0.000 A 
ATOM     11  N   UNL     1       0.738  11.067  18.225  0.00  0.00    +0.000 N 
ATOM     12  N   UNL     1       0.380   9.985  20.284  0.00  0.00    +0.000 NA
ATOM     13  C   UNL     1       0.565   8.912  21.083  0.00  0.00    +0.000 A 
ATOM     14  N   UNL     1       1.300   7.807  20.847  0.00  0.00    +0.000 NA
ATOM     15  C   UNL     1       1.876   7.867  19.635  0.00  0.00    +0.000 A 
ATOM     16  H   UNL     1       1.396  11.167  17.463  0.00  0.00    +0.000 HD
ATOM     17  H   UNL     1       0.395  11.893  18.695  0.00  0.00    +0.000 HD
ENDBRANCH   3   6
BRANCH   4  18
ATOM     18  O   UNL     1       1.103   4.483  20.546  0.00  0.00    +0.000 OA
ATOM     19  H   UNL     1       0.514   3.722  20.358  0.00  0.00    +0.000 HD
ENDBRANCH   4  18
BRANCH   5  20
ATOM     20  O   UNL     1       3.173   2.893  20.724  0.00  0.00    +0.000 OA
ATOM     21  H   UNL     1       3.712   3.568  21.179  0.00  0.00    +0.000 HD
ENDBRANCH   5  20
BRANCH   1  22
ATOM     22  O   UNL     1       4.024   3.746  17.249  0.00  0.00    +0.000 OA
BRANCH  22  23
ATOM     23  S   UNL     1       5.238   4.387  16.379  0.00  0.00    +0.000 S 
ATOM     24  O   UNL     1       4.696   5.338  15.435  0.00  0.00    +0.000 OA
ATOM     25  O   UNL     1       6.075   3.295  15.926  0.00  0.00    +0.000 OA
BRANCH  23  28
ATOM     26  C   UNL     1       7.265   5.994  17.140  0.00  0.00    +0.000 C 
ATOM     27  O   UNL     1       7.563   6.248  15.986  0.00  0.00    +0.000 OA
ATOM     28  N   UNL     1       6.164   5.198  17.470  0.00  0.00    +0.000 N 
ATOM     29  H   UNL     1       5.993   4.990  18.452  0.00  0.00    +0.000 HD
BRANCH  26  30
ATOM     30  C   UNL     1       8.067   6.510  18.367  0.00  0.00    +0.000 C 
BRANCH  30  31
ATOM     31  N   UNL     1       7.764   5.684  19.565  0.00  0.00    +0.000 NA
ATOM     32  H   UNL     1       7.415   6.292  20.310  0.00  0.00    +0.000 HD
ATOM     33  H   UNL     1       8.633   5.289  19.931  0.00  0.00    +0.000 HD
ENDBRANCH  30  31
BRANCH  30  34
ATOM     34  C   UNL     1       7.736   7.993  18.572  0.00  0.00    +0.000 C 
BRANCH  34  35
ATOM     35  C   UNL     1       8.455   8.964  17.638  0.00  0.00    +0.000 C 
BRANCH  35  37
ATOM     36  N   UNL     1       9.419   9.973  19.619  0.00  0.00    +0.000 N 
ATOM     37  C   UNL     1       8.883  10.210  18.391  0.00  0.00    +0.000 C 
ATOM     38  O   UNL     1       8.761  11.353  17.969  0.00  0.00    +0.000 OA
ATOM     39  H   UNL     1       9.726  10.776  20.157  0.00  0.00    +0.000 HD
ATOM     40  H   UNL     1       9.558   9.051  20.005  0.00  0.00    +0.000 HD
ENDBRANCH  35  37
ENDBRANCH  34  35
ENDBRANCH  30  34
ENDBRANCH  26  30
ENDBRANCH  23  28
ENDBRANCH  22  23
ENDBRANCH   1  22
TORSDOF 11
ENDMDL
MODEL 8
REMARK VINA RESULT:      -7.4      1.068      1.273
REMARK  Name = 
REMARK  11 active torsions:
REMARK  status: ('A' for Active; 'I' for Inactive)
REMARK    1  A    between atoms: C_2  and  C_4
REMARK    2  A    between atoms: C_4  and  C_5
REMARK    3  A    between atoms: C_5  and  C_6
REMARK    4  A    between atoms: C_6  and  N_7
REMARK    5  A    between atoms: C_6  and  C_8
REMARK    6  A    between atoms: N_10  and  S_11
REMARK    7  A    between atoms: S_11  and  O_14
REMARK    8  A    between atoms: O_14  and  C_15
REMARK    9  A    between atoms: C_17  and  N_18
REMARK   10  A    between atoms: C_28  and  O_29
REMARK   11  A    between atoms: C_30  and  O_31
REMARK                            x       y       z     vdW  Elec       q    Type
REMARK                         _______ _______ _______ _____ _____    ______ ____
ROOT
ATOM      1  C   UNL     1       4.233   4.861  18.782  0.00  0.00    +0.000 C 
ATOM      2  O   UNL     1       4.043   6.111  19.464  0.00  0.00    +0.000 OA
ATOM      3  C   UNL     1       2.679   6.201  19.924  0.00  0.00    +0.000 C 
ATOM      4  C   UNL     1       1.921   4.994  19.371  0.00  0.00    +0.000 C 
ATOM      5  C   UNL     1       3.041   3.982  19.187  0.00  0.00    +0.000 C 
ENDROOT
BRANCH   3   6
ATOM      6  N   UNL     1       2.113   7.476  19.530  0.00  0.00    +0.000 N 
ATOM      7  C   UNL     1       2.109   8.041  18.282  0.00  0.00    +0.000 A 
ATOM      8  N   UNL     1       1.479   9.198  18.265  0.00  0.00    +0.000 NA
ATOM      9  C   UNL     1       1.070   9.396  19.568  0.00  0.00    +0.000 A 
ATOM     10  C   UNL     1       0.359  10.434  20.195  0.00  0.00    +0.000 A 
ATOM     11  N   UNL     1      -0.124  11.543  19.516  0.00  0.00    +0.000 N 
ATOM     12  N   UNL     1       0.122  10.341  21.524  0.00  0.00    +0.000 NA
ATOM     13  C   UNL     1       0.550   9.238  22.177  0.00  0.00    +0.000 A 
ATOM     14  N   UNL     1       1.232   8.184  21.684  0.00  0.00    +0.000 NA
ATOM     15  C   UNL     1       1.458   8.334  20.369  0.00  0.00    +0.000 A 
ATOM     16  H   UNL     1       0.301  11.713  18.614  0.00  0.00    +0.000 HD
ATOM     17  H   UNL     1      -0.355  12.325  20.111  0.00  0.00    +0.000 HD
ENDBRANCH   3   6
BRANCH   4  18
ATOM     18  O   UNL     1       0.922   4.506  20.266  0.00  0.00    +0.000 OA
ATOM     19  H   UNL     1       0.570   5.284  20.747  0.00  0.00    +0.000 HD
ENDBRANCH   4  18
BRANCH   5  20
ATOM     20  O   UNL     1       3.247   3.323  20.455  0.00  0.00    +0.000 OA
ATOM     21  H   UNL     1       2.575   3.627  21.093  0.00  0.00    +0.000 HD
ENDBRANCH   5  20
BRANCH   1  22
ATOM     22  O   UNL     1       4.288   5.055  17.382  0.00  0.00    +0.000 OA
BRANCH  22  23
ATOM     23  S   UNL     1       5.338   6.179  16.859  0.00  0.00    +0.000 S 
ATOM     24  O   UNL     1       6.416   6.304  17.813  0.00  0.00    +0.000 OA
ATOM     25  O   UNL     1       4.570   7.340  16.458  0.00  0.00    +0.000 OA
BRANCH  23  28
ATOM     26  C   UNL     1       7.105   4.800  15.360  0.00  0.00    +0.000 C 
ATOM     27  O   UNL     1       7.708   4.405  16.344  0.00  0.00    +0.000 OA
ATOM     28  N   UNL     1       5.945   5.575  15.454  0.00  0.00    +0.000 N 
ATOM     29  H   UNL     1       5.512   5.907  14.594  0.00  0.00    +0.000 HD
BRANCH  26  30
ATOM     30  C   UNL     1       7.552   4.500  13.902  0.00  0.00    +0.000 C 
BRANCH  30  31
ATOM     31  N   UNL     1       8.166   5.708  13.293  0.00  0.00    +0.000 NA
ATOM     32  H   UNL     1       9.184   5.624  13.340  0.00  0.00    +0.000 HD
ATOM     33  H   UNL     1       7.941   6.526  13.865  0.00  0.00    +0.000 HD
ENDBRANCH  30  31
BRANCH  30  34
ATOM     34  C   UNL     1       6.336   3.993  13.118  0.00  0.00    +0.000 C 
BRANCH  34  35
ATOM     35  C   UNL     1       6.649   3.293  11.797  0.00  0.00    +0.000 C 
BRANCH  35  37
ATOM     36  N   UNL     1       6.022   0.984  11.415  0.00  0.00    +0.000 N 
ATOM     37  C   UNL     1       5.578   2.269  11.471  0.00  0.00    +0.000 C 
ATOM     38  O   UNL     1       4.402   2.537  11.258  0.00  0.00    +0.000 OA
ATOM     39  H   UNL     1       5.340   0.262  11.207  0.00  0.00    +0.000 HD
ATOM     40  H   UNL     1       6.975   0.709  11.601  0.00  0.00    +0.000 HD
ENDBRANCH  35  37
ENDBRANCH  34  35
ENDBRANCH  30  34
ENDBRANCH  26  30
ENDBRANCH  23  28
ENDBRANCH  22  23
ENDBRANCH   1  22
TORSDOF 11
ENDMDL
MODEL 9
REMARK VINA RESULT:      -7.4      3.681      5.483
REMARK  Name = 
REMARK  11 active torsions:
REMARK  status: ('A' for Active; 'I' for Inactive)
REMARK    1  A    between atoms: C_2  and  C_4
REMARK    2  A    between atoms: C_4  and  C_5
REMARK    3  A    between atoms: C_5  and  C_6
REMARK    4  A    between atoms: C_6  and  N_7
REMARK    5  A    between atoms: C_6  and  C_8
REMARK    6  A    between atoms: N_10  and  S_11
REMARK    7  A    between atoms: S_11  and  O_14
REMARK    8  A    between atoms: O_14  and  C_15
REMARK    9  A    between atoms: C_17  and  N_18
REMARK   10  A    between atoms: C_28  and  O_29
REMARK   11  A    between atoms: C_30  and  O_31
REMARK                            x       y       z     vdW  Elec       q    Type
REMARK                         _______ _______ _______ _____ _____    ______ ____
ROOT
ATOM      1  C   UNL     1       4.971   5.420  18.998  0.00  0.00    +0.000 C 
ATOM      2  O   UNL     1       4.047   6.247  19.724  0.00  0.00    +0.000 OA
ATOM      3  C   UNL     1       2.751   6.180  19.095  0.00  0.00    +0.000 C 
ATOM      4  C   UNL     1       2.901   5.373  17.806  0.00  0.00    +0.000 C 
ATOM      5  C   UNL     1       4.106   4.501  18.124  0.00  0.00    +0.000 C 
ENDROOT
BRANCH   3   6
ATOM      6  N   UNL     1       2.238   7.520  18.888  0.00  0.00    +0.000 N 
ATOM      7  C   UNL     1       2.289   8.269  17.743  0.00  0.00    +0.000 A 
ATOM      8  N   UNL     1       1.697   9.436  17.889  0.00  0.00    +0.000 NA
ATOM      9  C   UNL     1       1.256   9.447  19.196  0.00  0.00    +0.000 A 
ATOM     10  C   UNL     1       0.560  10.402  19.959  0.00  0.00    +0.000 A 
ATOM     11  N   UNL     1       0.133  11.618  19.447  0.00  0.00    +0.000 N 
ATOM     12  N   UNL     1       0.280  10.115  21.251  0.00  0.00    +0.000 NA
ATOM     13  C   UNL     1       0.655   8.910  21.737  0.00  0.00    +0.000 A 
ATOM     14  N   UNL     1       1.317   7.921  21.104  0.00  0.00    +0.000 NA
ATOM     15  C   UNL     1       1.586   8.262  19.834  0.00  0.00    +0.000 A 
ATOM     16  H   UNL     1       0.589  11.909  18.592  0.00  0.00    +0.000 HD
ATOM     17  H   UNL     1      -0.091  12.308  20.149  0.00  0.00    +0.000 HD
ENDBRANCH   3   6
BRANCH   4  18
ATOM     18  O   UNL     1       1.751   4.580  17.509  0.00  0.00    +0.000 OA
ATOM     19  H   UNL     1       1.016   5.205  17.331  0.00  0.00    +0.000 HD
ENDBRANCH   4  18
BRANCH   5  20
ATOM     20  O   UNL     1       3.630   3.342  18.842  0.00  0.00    +0.000 OA
ATOM     21  H   UNL     1       4.251   2.601  18.713  0.00  0.00    +0.000 HD
ENDBRANCH   5  20
BRANCH   1  22
ATOM     22  O   UNL     1       5.849   6.208  18.219  0.00  0.00    +0.000 OA
BRANCH  22  23
ATOM     23  S   UNL     1       7.423   5.813  18.299  0.00  0.00    +0.000 S 
ATOM     24  O   UNL     1       7.869   5.372  16.997  0.00  0.00    +0.000 OA
ATOM     25  O   UNL     1       7.603   4.971  19.464  0.00  0.00    +0.000 OA
BRANCH  23  28
ATOM     26  C   UNL     1       8.049   8.415  17.972  0.00  0.00    +0.000 C 
ATOM     27  O   UNL     1       7.232   8.552  17.078  0.00  0.00    +0.000 OA
ATOM     28  N   UNL     1       8.197   7.215  18.674  0.00  0.00    +0.000 N 
ATOM     29  H   UNL     1       8.926   7.154  19.382  0.00  0.00    +0.000 HD
BRANCH  26  30
ATOM     30  C   UNL     1       9.019   9.542  18.427  0.00  0.00    +0.000 C 
BRANCH  30  31
ATOM     31  N   UNL     1       9.028   9.645  19.909  0.00  0.00    +0.000 NA
ATOM     32  H   UNL     1       8.068   9.565  20.255  0.00  0.00    +0.000 HD
ATOM     33  H   UNL     1       9.329  10.583  20.181  0.00  0.00    +0.000 HD
ENDBRANCH  30  31
BRANCH  30  34
ATOM     34  C   UNL     1       8.597  10.848  17.745  0.00  0.00    +0.000 C 
BRANCH  34  35
ATOM     35  C   UNL     1       9.167  12.125  18.357  0.00  0.00    +0.000 C 
BRANCH  35  37
ATOM     36  N   UNL     1      10.315  13.654  16.866  0.00  0.00    +0.000 N 
ATOM     37  C   UNL     1      10.437  12.539  17.637  0.00  0.00    +0.000 C 
ATOM     38  O   UNL     1      11.503  11.940  17.710  0.00  0.00    +0.000 OA
ATOM     39  H   UNL     1      11.140  13.973  16.371  0.00  0.00    +0.000 HD
ATOM     40  H   UNL     1       9.465  14.193  16.788  0.00  0.00    +0.000 HD
ENDBRANCH  35  37
ENDBRANCH  34  35
ENDBRANCH  30  34
ENDBRANCH  26  30
ENDBRANCH  23  28
ENDBRANCH  22  23
ENDBRANCH   1  22
TORSDOF 11
ENDMDL
