MODEL 1
REMARK VINA RESULT:      -5.3      0.000      0.000
REMARK  Name = 
REMARK  5 active torsions:
REMARK  status: ('A' for Active; 'I' for Inactive)
REMARK    1  A    between atoms: C_2  and  C_3
REMARK    2  A    between atoms: C_4  and  C_5
REMARK    3  A    between atoms: C_12  and  C_13
REMARK    4  A    between atoms: N_17  and  N_18
REMARK    5  A    between atoms: C_19  and  N_20
REMARK                            x       y       z     vdW  Elec       q    Type
REMARK                         _______ _______ _______ _____ _____    ______ ____
ROOT
ATOM      1  C   UNL     1      10.140  15.258  18.377  0.00  0.00    +0.000 A 
ATOM      2  C   UNL     1       9.814  14.236  19.377  0.00  0.00    +0.000 A 
ATOM      3  C   UNL     1      10.098  12.938  19.124  0.00  0.00    +0.000 A 
ATOM      4  C   UNL     1      10.795  12.572  17.855  0.00  0.00    +0.000 A 
ATOM      5  O   UNL     1      11.090  11.405  17.597  0.00  0.00    +0.000 OA
ATOM      6  N   UNL     1      11.084  13.629  16.985  0.00  0.00    +0.000 N 
ATOM      7  C   UNL     1      10.734  14.954  17.202  0.00  0.00    +0.000 A 
ENDROOT
BRANCH   2   8
ATOM      8  C   UNL     1       9.161  14.597  20.660  0.00  0.00    +0.000 A 
ATOM      9  C   UNL     1       7.762  14.632  20.750  0.00  0.00    +0.000 A 
ATOM     10  C   UNL     1       7.143  14.951  21.963  0.00  0.00    +0.000 A 
ATOM     11  C   UNL     1       7.917  15.231  23.084  0.00  0.00    +0.000 A 
ATOM     12 CL   UNL     1       7.153  15.622  24.576  0.00  0.00    +0.000 Cl
ATOM     13  C   UNL     1       9.309  15.196  23.008  0.00  0.00    +0.000 A 
ATOM     14  C   UNL     1       9.932  14.878  21.796  0.00  0.00    +0.000 A 
ENDBRANCH   2   8
BRANCH   6  15
ATOM     15  N   UNL     1      11.826  13.342  15.800  0.00  0.00    +0.000 N 
ATOM     16  H   UNL     1      12.087  14.251  15.395  0.00  0.00    +0.000 HD
ATOM     17  H   UNL     1      12.710  12.924  16.099  0.00  0.00    +0.000 HD
ENDBRANCH   6  15
BRANCH   7  18
ATOM     18  N   UNL     1      11.010  15.876  16.201  0.00  0.00    +0.000 N 
ATOM     19  H   UNL     1      11.933  15.689  15.806  0.00  0.00    +0.000 HD
ATOM     20  H   UNL     1      10.875  16.856  16.435  0.00  0.00    +0.000 HD
ENDBRANCH   7  18
BRANCH   1  22
ATOM     21  N   UNL     1       9.493  17.911  18.899  0.00  0.00    +0.000 NA
ATOM     22  C   UNL     1       9.786  16.708  18.662  0.00  0.00    +0.000 C 
ENDBRANCH   1  22
BRANCH   3  23
ATOM     23  C   UNL     1       9.771  11.875  20.010  0.00  0.00    +0.000 C 
ATOM     24  N   UNL     1       9.460  11.018  20.734  0.00  0.00    +0.000 NA
ENDBRANCH   3  23
TORSDOF 5
ENDMDL
MODEL 2
REMARK VINA RESULT:      -5.2      0.253      1.111
REMARK  Name = 
REMARK  5 active torsions:
REMARK  status: ('A' for Active; 'I' for Inactive)
REMARK    1  A    between atoms: C_2  and  C_3
REMARK    2  A    between atoms: C_4  and  C_5
REMARK    3  A    between atoms: C_12  and  C_13
REMARK    4  A    between atoms: N_17  and  N_18
REMARK    5  A    between atoms: C_19  and  N_20
REMARK                            x       y       z     vdW  Elec       q    Type
REMARK                         _______ _______ _______ _____ _____    ______ ____
ROOT
ATOM      1  C   UNL     1       9.964  15.183  18.461  0.00  0.00    +0.000 A 
ATOM      2  C   UNL     1       9.627  14.125  19.419  0.00  0.00    +0.000 A 
ATOM      3  C   UNL     1       9.951  12.842  19.140  0.00  0.00    +0.000 A 
ATOM      4  C   UNL     1      10.701  12.529  17.888  0.00  0.00    +0.000 A 
ATOM      5  O   UNL     1      11.034  11.377  17.609  0.00  0.00    +0.000 OA
ATOM      6  N   UNL     1      10.995  13.617  17.058  0.00  0.00    +0.000 N 
ATOM      7  C   UNL     1      10.606  14.926  17.299  0.00  0.00    +0.000 A 
ENDROOT
BRANCH   2   8
ATOM      8  C   UNL     1       8.921  14.435  20.687  0.00  0.00    +0.000 A 
ATOM      9  C   UNL     1       9.654  14.692  21.855  0.00  0.00    +0.000 A 
ATOM     10  C   UNL     1       8.993  15.006  23.046  0.00  0.00    +0.000 A 
ATOM     11  C   UNL     1       7.603  15.067  23.073  0.00  0.00    +0.000 A 
ATOM     12 CL   UNL     1       6.792  15.455  24.540  0.00  0.00    +0.000 Cl
ATOM     13  C   UNL     1       6.863  14.817  21.917  0.00  0.00    +0.000 A 
ATOM     14  C   UNL     1       7.521  14.502  20.724  0.00  0.00    +0.000 A 
ENDBRANCH   2   8
BRANCH   6  15
ATOM     15  N   UNL     1      11.785  13.381  15.894  0.00  0.00    +0.000 N 
ATOM     16  H   UNL     1      12.398  12.585  16.115  0.00  0.00    +0.000 HD
ATOM     17  H   UNL     1      11.151  13.030  15.172  0.00  0.00    +0.000 HD
ENDBRANCH   6  15
BRANCH   7  18
ATOM     18  N   UNL     1      10.893  15.883  16.334  0.00  0.00    +0.000 N 
ATOM     19  H   UNL     1      10.579  16.800  16.656  0.00  0.00    +0.000 HD
ATOM     20  H   UNL     1      10.594  15.676  15.384  0.00  0.00    +0.000 HD
ENDBRANCH   7  18
BRANCH   1  22
ATOM     21  N   UNL     1       9.233  17.804  19.031  0.00  0.00    +0.000 NA
ATOM     22  C   UNL     1       9.564  16.616  18.773  0.00  0.00    +0.000 C 
ENDBRANCH   1  22
BRANCH   3  23
ATOM     23  C   UNL     1       9.619  11.747  19.985  0.00  0.00    +0.000 C 
ATOM     24  N   UNL     1       9.347  10.824  20.640  0.00  0.00    +0.000 NA
ENDBRANCH   3  23
TORSDOF 5
ENDMDL
MODEL 3
REMARK VINA RESULT:      -5.1      1.206      3.323
REMARK  Name = 
REMARK  5 active torsions:
REMARK  status: ('A' for Active; 'I' for Inactive)
REMARK    1  A    between atoms: C_2  and  C_3
REMARK    2  A    between atoms: C_4  and  C_5
REMARK    3  A    between atoms: C_12  and  C_13
REMARK    4  A    between atoms: N_17  and  N_18
REMARK    5  A    between atoms: C_19  and  N_20
REMARK                            x       y       z     vdW  Elec       q    Type
REMARK                         _______ _______ _______ _____ _____    ______ ____
ROOT
ATOM      1  C   UNL     1      10.113  12.919  18.994  0.00  0.00    +0.000 A 
ATOM      2  C   UNL     1       9.776  14.277  19.432  0.00  0.00    +0.000 A 
ATOM      3  C   UNL     1      10.136  15.335  18.671  0.00  0.00    +0.000 A 
ATOM      4  C   UNL     1      10.818  15.101  17.363  0.00  0.00    +0.000 A 
ATOM      5  O   UNL     1      11.143  16.036  16.631  0.00  0.00    +0.000 OA
ATOM      6  N   UNL     1      11.067  13.765  17.030  0.00  0.00    +0.000 N 
ATOM      7  C   UNL     1      10.767  12.677  17.835  0.00  0.00    +0.000 A 
ENDROOT
BRANCH   2   8
ATOM      8  C   UNL     1       9.058  14.515  20.710  0.00  0.00    +0.000 A 
ATOM      9  C   UNL     1       7.657  14.556  20.731  0.00  0.00    +0.000 A 
ATOM     10  C   UNL     1       6.977  14.758  21.935  0.00  0.00    +0.000 A 
ATOM     11  C   UNL     1       7.692  14.915  23.118  0.00  0.00    +0.000 A 
ATOM     12 CL   UNL     1       6.853  15.162  24.600  0.00  0.00    +0.000 Cl
ATOM     13  C   UNL     1       9.086  14.872  23.111  0.00  0.00    +0.000 A 
ATOM     14  C   UNL     1       9.770  14.671  21.908  0.00  0.00    +0.000 A 
ENDBRANCH   2   8
BRANCH   6  15
ATOM     15  N   UNL     1      11.638  13.486  15.753  0.00  0.00    +0.000 N 
ATOM     16  H   UNL     1      12.139  12.592  15.848  0.00  0.00    +0.000 HD
ATOM     17  H   UNL     1      10.862  13.285  15.118  0.00  0.00    +0.000 HD
ENDBRANCH   6  15
BRANCH   7  18
ATOM     18  N   UNL     1      11.159  11.416  17.406  0.00  0.00    +0.000 N 
ATOM     19  H   UNL     1      11.375  11.445  16.408  0.00  0.00    +0.000 HD
ATOM     20  H   UNL     1      10.549  10.640  17.653  0.00  0.00    +0.000 HD
ENDBRANCH   7  18
BRANCH   1  22
ATOM     21  N   UNL     1       9.413  10.766  20.607  0.00  0.00    +0.000 NA
ATOM     22  C   UNL     1       9.730  11.742  19.876  0.00  0.00    +0.000 C 
ENDBRANCH   1  22
BRANCH   3  23
ATOM     23  C   UNL     1       9.898  16.688  19.042  0.00  0.00    +0.000 C 
ATOM     24  N   UNL     1       9.671  17.796  19.314  0.00  0.00    +0.000 NA
ENDBRANCH   3  23
TORSDOF 5
ENDMDL
MODEL 4
REMARK VINA RESULT:      -5.0      1.219      3.494
REMARK  Name = 
REMARK  5 active torsions:
REMARK  status: ('A' for Active; 'I' for Inactive)
REMARK    1  A    between atoms: C_2  and  C_3
REMARK    2  A    between atoms: C_4  and  C_5
REMARK    3  A    between atoms: C_12  and  C_13
REMARK    4  A    between atoms: N_17  and  N_18
REMARK    5  A    between atoms: C_19  and  N_20
REMARK                            x       y       z     vdW  Elec       q    Type
REMARK                         _______ _______ _______ _____ _____    ______ ____
ROOT
ATOM      1  C   UNL     1      10.270  12.838  18.953  0.00  0.00    +0.000 A 
ATOM      2  C   UNL     1       9.978  14.207  19.391  0.00  0.00    +0.000 A 
ATOM      3  C   UNL     1      10.431  15.253  18.663  0.00  0.00    +0.000 A 
ATOM      4  C   UNL     1      11.170  14.997  17.391  0.00  0.00    +0.000 A 
ATOM      5  O   UNL     1      11.580  15.922  16.689  0.00  0.00    +0.000 OA
ATOM      6  N   UNL     1      11.369  13.654  17.054  0.00  0.00    +0.000 N 
ATOM      7  C   UNL     1      10.972  12.574  17.829  0.00  0.00    +0.000 A 
ENDROOT
BRANCH   2   8
ATOM      8  C   UNL     1       9.205  14.468  20.631  0.00  0.00    +0.000 A 
ATOM      9  C   UNL     1       9.873  14.624  21.855  0.00  0.00    +0.000 A 
ATOM     10  C   UNL     1       9.150  14.892  23.021  0.00  0.00    +0.000 A 
ATOM     11  C   UNL     1       7.765  15.008  22.968  0.00  0.00    +0.000 A 
ATOM     12 CL   UNL     1       6.878  15.340  24.405  0.00  0.00    +0.000 Cl
ATOM     13  C   UNL     1       7.090  14.859  21.756  0.00  0.00    +0.000 A 
ATOM     14  C   UNL     1       7.810  14.590  20.588  0.00  0.00    +0.000 A 
ENDBRANCH   2   8
BRANCH   6  15
ATOM     15  N   UNL     1      11.994  13.359  15.806  0.00  0.00    +0.000 N 
ATOM     16  H   UNL     1      11.239  13.095  15.159  0.00  0.00    +0.000 HD
ATOM     17  H   UNL     1      12.356  14.243  15.440  0.00  0.00    +0.000 HD
ENDBRANCH   6  15
BRANCH   7  18
ATOM     18  N   UNL     1      11.323  11.300  17.405  0.00  0.00    +0.000 N 
ATOM     19  H   UNL     1      12.326  11.158  17.537  0.00  0.00    +0.000 HD
ATOM     20  H   UNL     1      11.007  11.024  16.478  0.00  0.00    +0.000 HD
ENDBRANCH   7  18
BRANCH   1  22
ATOM     21  N   UNL     1       9.377  10.708  20.500  0.00  0.00    +0.000 NA
ATOM     22  C   UNL     1       9.782  11.673  19.799  0.00  0.00    +0.000 C 
ENDBRANCH   1  22
BRANCH   3  23
ATOM     23  C   UNL     1      10.241  16.612  19.038  0.00  0.00    +0.000 C 
ATOM     24  N   UNL     1      10.130  17.726  19.354  0.00  0.00    +0.000 NA
ENDBRANCH   3  23
TORSDOF 5
ENDMDL
MODEL 5
REMARK VINA RESULT:      -4.9      9.989     11.711
REMARK  Name = 
REMARK  5 active torsions:
REMARK  status: ('A' for Active; 'I' for Inactive)
REMARK    1  A    between atoms: C_2  and  C_3
REMARK    2  A    between atoms: C_4  and  C_5
REMARK    3  A    between atoms: C_12  and  C_13
REMARK    4  A    between atoms: N_17  and  N_18
REMARK    5  A    between atoms: C_19  and  N_20
REMARK                            x       y       z     vdW  Elec       q    Type
REMARK                         _______ _______ _______ _____ _____    ______ ____
ROOT
ATOM      1  C   UNL     1       4.120   4.859  17.422  0.00  0.00    +0.000 A 
ATOM      2  C   UNL     1       2.982   5.099  18.315  0.00  0.00    +0.000 A 
ATOM      3  C   UNL     1       2.337   4.050  18.874  0.00  0.00    +0.000 A 
ATOM      4  C   UNL     1       2.832   2.664  18.622  0.00  0.00    +0.000 A 
ATOM      5  O   UNL     1       2.286   1.684  19.129  0.00  0.00    +0.000 OA
ATOM      6  N   UNL     1       3.941   2.551  17.776  0.00  0.00    +0.000 N 
ATOM      7  C   UNL     1       4.566   3.614  17.141  0.00  0.00    +0.000 A 
ENDROOT
BRANCH   2   8
ATOM      8  C   UNL     1       2.512   6.477  18.606  0.00  0.00    +0.000 A 
ATOM      9  C   UNL     1       2.173   7.340  17.554  0.00  0.00    +0.000 A 
ATOM     10  C   UNL     1       1.710   8.631  17.825  0.00  0.00    +0.000 A 
ATOM     11  C   UNL     1       1.580   9.059  19.142  0.00  0.00    +0.000 A 
ATOM     12 CL   UNL     1       1.007  10.648  19.473  0.00  0.00    +0.000 Cl
ATOM     13  C   UNL     1       1.910   8.209  20.197  0.00  0.00    +0.000 A 
ATOM     14  C   UNL     1       2.375   6.917  19.930  0.00  0.00    +0.000 A 
ENDBRANCH   2   8
BRANCH   6  15
ATOM     15  N   UNL     1       4.503   1.256  17.573  0.00  0.00    +0.000 N 
ATOM     16  H   UNL     1       3.784   0.579  17.863  0.00  0.00    +0.000 HD
ATOM     17  H   UNL     1       4.592   1.126  16.563  0.00  0.00    +0.000 HD
ENDBRANCH   6  15
BRANCH   7  18
ATOM     18  N   UNL     1       5.599   3.333  16.257  0.00  0.00    +0.000 N 
ATOM     19  H   UNL     1       5.881   2.356  16.357  0.00  0.00    +0.000 HD
ATOM     20  H   UNL     1       6.391   3.971  16.264  0.00  0.00    +0.000 HD
ENDBRANCH   7  18
BRANCH   1  22
ATOM     21  N   UNL     1       5.390   7.031  16.239  0.00  0.00    +0.000 NA
ATOM     22  C   UNL     1       4.814   6.046  16.775  0.00  0.00    +0.000 C 
ENDBRANCH   1  22
BRANCH   3  23
ATOM     23  C   UNL     1       1.194   4.185  19.710  0.00  0.00    +0.000 C 
ATOM     24  N   UNL     1       0.285   4.289  20.429  0.00  0.00    +0.000 NA
ENDBRANCH   3  23
TORSDOF 5
ENDMDL
MODEL 6
REMARK VINA RESULT:      -4.9      9.472     11.309
REMARK  Name = 
REMARK  5 active torsions:
REMARK  status: ('A' for Active; 'I' for Inactive)
REMARK    1  A    between atoms: C_2  and  C_3
REMARK    2  A    between atoms: C_4  and  C_5
REMARK    3  A    between atoms: C_12  and  C_13
REMARK    4  A    between atoms: N_17  and  N_18
REMARK    5  A    between atoms: C_19  and  N_20
REMARK                            x       y       z     vdW  Elec       q    Type
REMARK                         _______ _______ _______ _____ _____    ______ ____
ROOT
ATOM      1  C   UNL     1       4.585   5.366  18.704  0.00  0.00    +0.000 A 
ATOM      2  C   UNL     1       3.224   5.603  19.195  0.00  0.00    +0.000 A 
ATOM      3  C   UNL     1       2.540   4.595  19.783  0.00  0.00    +0.000 A 
ATOM      4  C   UNL     1       3.205   3.273  19.978  0.00  0.00    +0.000 A 
ATOM      5  O   UNL     1       2.624   2.336  20.528  0.00  0.00    +0.000 OA
ATOM      6  N   UNL     1       4.514   3.165  19.496  0.00  0.00    +0.000 N 
ATOM      7  C   UNL     1       5.200   4.168  18.828  0.00  0.00    +0.000 A 
ENDROOT
BRANCH   2   8
ATOM      8  C   UNL     1       2.573   6.929  19.044  0.00  0.00    +0.000 A 
ATOM      9  C   UNL     1       2.405   7.487  17.768  0.00  0.00    +0.000 A 
ATOM     10  C   UNL     1       1.773   8.726  17.620  0.00  0.00    +0.000 A 
ATOM     11  C   UNL     1       1.305   9.404  18.741  0.00  0.00    +0.000 A 
ATOM     12 CL   UNL     1       0.526  10.927  18.557  0.00  0.00    +0.000 Cl
ATOM     13  C   UNL     1       1.462   8.857  20.014  0.00  0.00    +0.000 A 
ATOM     14  C   UNL     1       2.095   7.619  20.166  0.00  0.00    +0.000 A 
ENDBRANCH   2   8
BRANCH   6  15
ATOM     15  N   UNL     1       5.221   1.949  19.736  0.00  0.00    +0.000 N 
ATOM     16  H   UNL     1       4.995   1.667  20.699  0.00  0.00    +0.000 HD
ATOM     17  H   UNL     1       4.790   1.234  19.146  0.00  0.00    +0.000 HD
ENDBRANCH   6  15
BRANCH   7  18
ATOM     18  N   UNL     1       6.462   3.879  18.329  0.00  0.00    +0.000 N 
ATOM     19  H   UNL     1       7.174   4.225  18.974  0.00  0.00    +0.000 HD
ATOM     20  H   UNL     1       6.643   4.147  17.364  0.00  0.00    +0.000 HD
ENDBRANCH   7  18
BRANCH   1  22
ATOM     21  N   UNL     1       5.946   7.439  17.446  0.00  0.00    +0.000 NA
ATOM     22  C   UNL     1       5.329   6.500  18.016  0.00  0.00    +0.000 C 
ENDBRANCH   1  22
BRANCH   3  23
ATOM     23  C   UNL     1       1.199   4.718  20.241  0.00  0.00    +0.000 C 
ATOM     24  N   UNL     1       0.097   4.774  20.610  0.00  0.00    +0.000 NA
ENDBRANCH   3  23
TORSDOF 5
ENDMDL
MODEL 7
REMARK VINA RESULT:      -4.9      9.485     11.334
REMARK  Name = 
REMARK  5 active torsions:
REMARK  status: ('A' for Active; 'I' for Inactive)
REMARK    1  A    between atoms: C_2  and  C_3
REMARK    2  A    between atoms: C_4  and  C_5
REMARK    3  A    between atoms: C_12  and  C_13
REMARK    4  A    between atoms: N_17  and  N_18
REMARK    5  A    between atoms: C_19  and  N_20
REMARK                            x       y       z     vdW  Elec       q    Type
REMARK                         _______ _______ _______ _____ _____    ______ ____
ROOT
ATOM      1  C   UNL     1       4.559   5.355  18.706  0.00  0.00    +0.000 A 
ATOM      2  C   UNL     1       3.199   5.590  19.200  0.00  0.00    +0.000 A 
ATOM      3  C   UNL     1       2.523   4.584  19.802  0.00  0.00    +0.000 A 
ATOM      4  C   UNL     1       3.196   3.267  20.008  0.00  0.00    +0.000 A 
ATOM      5  O   UNL     1       2.622   2.334  20.570  0.00  0.00    +0.000 OA
ATOM      6  N   UNL     1       4.503   3.161  19.522  0.00  0.00    +0.000 N 
ATOM      7  C   UNL     1       5.180   4.162  18.841  0.00  0.00    +0.000 A 
ENDROOT
BRANCH   2   8
ATOM      8  C   UNL     1       2.540   6.910  19.039  0.00  0.00    +0.000 A 
ATOM      9  C   UNL     1       2.084   7.610  20.165  0.00  0.00    +0.000 A 
ATOM     10  C   UNL     1       1.483   8.864  20.019  0.00  0.00    +0.000 A 
ATOM     11  C   UNL     1       1.341   9.421  18.752  0.00  0.00    +0.000 A 
ATOM     12 CL   UNL     1       0.602  10.965  18.574  0.00  0.00    +0.000 Cl
ATOM     13  C   UNL     1       1.793   8.736  17.624  0.00  0.00    +0.000 A 
ATOM     14  C   UNL     1       2.394   7.481  17.767  0.00  0.00    +0.000 A 
ENDBRANCH   2   8
BRANCH   6  15
ATOM     15  N   UNL     1       5.218   1.952  19.771  0.00  0.00    +0.000 N 
ATOM     16  H   UNL     1       4.982   1.312  19.001  0.00  0.00    +0.000 HD
ATOM     17  H   UNL     1       6.210   2.162  19.643  0.00  0.00    +0.000 HD
ENDBRANCH   6  15
BRANCH   7  18
ATOM     18  N   UNL     1       6.442   3.874  18.338  0.00  0.00    +0.000 N 
ATOM     19  H   UNL     1       6.371   3.143  17.629  0.00  0.00    +0.000 HD
ATOM     20  H   UNL     1       7.173   3.687  19.021  0.00  0.00    +0.000 HD
ENDBRANCH   7  18
BRANCH   1  22
ATOM     21  N   UNL     1       5.903   7.422  17.421  0.00  0.00    +0.000 NA
ATOM     22  C   UNL     1       5.294   6.485  18.003  0.00  0.00    +0.000 C 
ENDBRANCH   1  22
BRANCH   3  23
ATOM     23  C   UNL     1       1.183   4.705  20.265  0.00  0.00    +0.000 C 
ATOM     24  N   UNL     1       0.074   4.777  20.610  0.00  0.00    +0.000 NA
ENDBRANCH   3  23
TORSDOF 5
ENDMDL
MODEL 8
REMARK VINA RESULT:      -4.8      9.998     11.739
REMARK  Name = 
REMARK  5 active torsions:
REMARK  status: ('A' for Active; 'I' for Inactive)
REMARK    1  A    between atoms: C_2  and  C_3
REMARK    2  A    between atoms: C_4  and  C_5
REMARK    3  A    between atoms: C_12  and  C_13
REMARK    4  A    between atoms: N_17  and  N_18
REMARK    5  A    between atoms: C_19  and  N_20
REMARK                            x       y       z     vdW  Elec       q    Type
REMARK                         _______ _______ _______ _____ _____    ______ ____
ROOT
ATOM      1  C   UNL     1       4.105   4.862  17.402  0.00  0.00    +0.000 A 
ATOM      2  C   UNL     1       2.962   5.085  18.294  0.00  0.00    +0.000 A 
ATOM      3  C   UNL     1       2.332   4.026  18.851  0.00  0.00    +0.000 A 
ATOM      4  C   UNL     1       2.847   2.648  18.596  0.00  0.00    +0.000 A 
ATOM      5  O   UNL     1       2.315   1.659  19.102  0.00  0.00    +0.000 OA
ATOM      6  N   UNL     1       3.959   2.552  17.752  0.00  0.00    +0.000 N 
ATOM      7  C   UNL     1       4.569   3.624  17.119  0.00  0.00    +0.000 A 
ENDROOT
BRANCH   2   8
ATOM      8  C   UNL     1       2.473   6.455  18.587  0.00  0.00    +0.000 A 
ATOM      9  C   UNL     1       2.357   6.891  19.915  0.00  0.00    +0.000 A 
ATOM     10  C   UNL     1       1.917   8.188  20.194  0.00  0.00    +0.000 A 
ATOM     11  C   UNL     1       1.597   9.052  19.151  0.00  0.00    +0.000 A 
ATOM     12 CL   UNL     1       1.057  10.649  19.497  0.00  0.00    +0.000 Cl
ATOM     13  C   UNL     1       1.712   8.631  17.826  0.00  0.00    +0.000 A 
ATOM     14  C   UNL     1       2.150   7.334  17.543  0.00  0.00    +0.000 A 
ENDBRANCH   2   8
BRANCH   6  15
ATOM     15  N   UNL     1       4.540   1.265  17.548  0.00  0.00    +0.000 N 
ATOM     16  H   UNL     1       4.805   1.221  16.555  0.00  0.00    +0.000 HD
ATOM     17  H   UNL     1       5.427   1.256  18.056  0.00  0.00    +0.000 HD
ENDBRANCH   6  15
BRANCH   7  18
ATOM     18  N   UNL     1       5.607   3.359  16.237  0.00  0.00    +0.000 N 
ATOM     19  H   UNL     1       5.230   2.992  15.362  0.00  0.00    +0.000 HD
ATOM     20  H   UNL     1       6.379   2.802  16.595  0.00  0.00    +0.000 HD
ENDBRANCH   7  18
BRANCH   1  22
ATOM     21  N   UNL     1       5.345   7.054  16.224  0.00  0.00    +0.000 NA
ATOM     22  C   UNL     1       4.783   6.061  16.758  0.00  0.00    +0.000 C 
ENDBRANCH   1  22
BRANCH   3  23
ATOM     23  C   UNL     1       1.186   4.143  19.685  0.00  0.00    +0.000 C 
ATOM     24  N   UNL     1       0.271   4.219  20.401  0.00  0.00    +0.000 NA
ENDBRANCH   3  23
TORSDOF 5
ENDMDL
MODEL 9
REMARK VINA RESULT:      -4.8     10.922     12.575
REMARK  Name = 
REMARK  5 active torsions:
REMARK  status: ('A' for Active; 'I' for Inactive)
REMARK    1  A    between atoms: C_2  and  C_3
REMARK    2  A    between atoms: C_4  and  C_5
REMARK    3  A    between atoms: C_12  and  C_13
REMARK    4  A    between atoms: N_17  and  N_18
REMARK    5  A    between atoms: C_19  and  N_20
REMARK                            x       y       z     vdW  Elec       q    Type
REMARK                         _______ _______ _______ _____ _____    ______ ____
ROOT
ATOM      1  C   UNL     1      -1.105  11.728  19.708  0.00  0.00    +0.000 A 
ATOM      2  C   UNL     1      -2.380  12.291  20.162  0.00  0.00    +0.000 A 
ATOM      3  C   UNL     1      -3.467  12.217  19.361  0.00  0.00    +0.000 A 
ATOM      4  C   UNL     1      -3.367  11.509  18.050  0.00  0.00    +0.000 A 
ATOM      5  O   UNL     1      -4.339  11.401  17.302  0.00  0.00    +0.000 OA
ATOM      6  N   UNL     1      -2.110  10.985  17.728  0.00  0.00    +0.000 N 
ATOM      7  C   UNL     1      -0.972  11.117  18.509  0.00  0.00    +0.000 A 
ENDROOT
BRANCH   2   8
ATOM      8  C   UNL     1      -2.498  12.958  21.483  0.00  0.00    +0.000 A 
ATOM      9  C   UNL     1      -2.241  14.332  21.601  0.00  0.00    +0.000 A 
ATOM     10  C   UNL     1      -2.372  14.968  22.840  0.00  0.00    +0.000 A 
ATOM     11  C   UNL     1      -2.762  14.236  23.957  0.00  0.00    +0.000 A 
ATOM     12 CL   UNL     1      -2.924  15.022  25.480  0.00  0.00    +0.000 Cl
ATOM     13  C   UNL     1      -3.024  12.871  23.851  0.00  0.00    +0.000 A 
ATOM     14  C   UNL     1      -2.893  12.231  22.614  0.00  0.00    +0.000 A 
ENDBRANCH   2   8
BRANCH   6  15
ATOM     15  N   UNL     1      -1.986  10.225  16.527  0.00  0.00    +0.000 N 
ATOM     16  H   UNL     1      -1.130   9.663  16.627  0.00  0.00    +0.000 HD
ATOM     17  H   UNL     1      -2.748   9.543  16.528  0.00  0.00    +0.000 HD
ENDBRANCH   6  15
BRANCH   7  18
ATOM     18  N   UNL     1       0.225  10.621  18.010  0.00  0.00    +0.000 N 
ATOM     19  H   UNL     1       0.269  10.779  17.002  0.00  0.00    +0.000 HD
ATOM     20  H   UNL     1       0.467   9.667  18.269  0.00  0.00    +0.000 HD
ENDBRANCH   7  18
BRANCH   1  22
ATOM     21  N   UNL     1       1.128  11.946  21.349  0.00  0.00    +0.000 NA
ATOM     22  C   UNL     1       0.116  11.847  20.605  0.00  0.00    +0.000 C 
ENDBRANCH   1  22
BRANCH   3  23
ATOM     23  C   UNL     1      -4.730  12.781  19.696  0.00  0.00    +0.000 C 
ATOM     24  N   UNL     1      -5.744  13.282  19.966  0.00  0.00    +0.000 NA
ENDBRANCH   3  23
TORSDOF 5
ENDMDL
