MODEL 1
REMARK VINA RESULT:      -8.3      0.000      0.000
REMARK  Name = 
REMARK  4 active torsions:
REMARK  status: ('A' for Active; 'I' for Inactive)
REMARK    1  A    between atoms: C_3  and  C_4
REMARK    2  A    between atoms: N_6  and  C_7
REMARK    3  A    between atoms: N_25  and  C_26
REMARK    4  A    between atoms: C_26  and  C_27
REMARK                            x       y       z     vdW  Elec       q    Type
REMARK                         _______ _______ _______ _____ _____    ______ ____
ROOT
ATOM      1  N   UNL     1       2.347  10.573  17.514  0.00  0.00    +0.000 NA
ATOM      2  C   UNL     1       1.561  10.517  18.555  0.00  0.00    +0.000 A 
ATOM      3  C   UNL     1       1.490   9.241  19.382  0.00  0.00    +0.000 A 
ATOM      4  C   UNL     1       0.650   9.310  20.429  0.00  0.00    +0.000 A 
ATOM      5  C   UNL     1      -0.068  10.509  20.821  0.00  0.00    +0.000 A 
ATOM      6  C   UNL     1      -0.875  10.481  22.072  0.00  0.00    +0.000 A 
ATOM      7  O   UNL     1      -0.881   9.463  22.772  0.00  0.00    +0.000 OA
ATOM      8  N   UNL     1      -1.576  11.628  22.373  0.00  0.00    +0.000 N 
ATOM      9  C   UNL     1      -2.352  11.673  23.526  0.00  0.00    +0.000 A 
ATOM     10  C   UNL     1      -3.060  12.754  23.860  0.00  0.00    +0.000 A 
ATOM     11  C   UNL     1      -3.028  13.913  23.009  0.00  0.00    +0.000 A 
ATOM     12  C   UNL     1      -2.289  13.919  21.892  0.00  0.00    +0.000 A 
ATOM     13  C   UNL     1      -1.493  12.713  21.518  0.00  0.00    +0.000 A 
ATOM     14  N   UNL     1      -0.785  12.738  20.434  0.00  0.00    +0.000 NA
ATOM     15  C   UNL     1      -0.039  11.634  20.074  0.00  0.00    +0.000 A 
ATOM     16  N   UNL     1       0.771  11.635  18.907  0.00  0.00    +0.000 N 
ATOM     17  H   UNL     1       2.821   9.664  17.374  0.00  0.00    +0.000 HD
ENDROOT
BRANCH   3  18
ATOM     18  C   UNL     1       2.203   7.956  19.020  0.00  0.00    +0.000 C 
ATOM     19  O   UNL     1       2.941   7.909  18.042  0.00  0.00    +0.000 OA
ATOM     20  N   UNL     1       1.994   6.895  19.873  0.00  0.00    +0.000 N 
ATOM     21  H   UNL     1       1.544   7.096  20.755  0.00  0.00    +0.000 HD
BRANCH  20  22
ATOM     22  C   UNL     1       2.559   5.541  19.821  0.00  0.00    +0.000 C 
ATOM     23  C   UNL     1       2.140   4.584  20.949  0.00  0.00    +0.000 C 
ATOM     24  C   UNL     1       1.042   3.581  20.606  0.00  0.00    +0.000 C 
ATOM     25  C   UNL     1       1.241   2.940  19.238  0.00  0.00    +0.000 C 
ATOM     26  C   UNL     1       1.350   4.005  18.156  0.00  0.00    +0.000 C 
ATOM     27  C   UNL     1       2.532   4.928  18.417  0.00  0.00    +0.000 C 
ENDBRANCH  20  22
ENDBRANCH   3  18
BRANCH  16  28
ATOM     28  C   UNL     1       0.713  12.796  17.989  0.00  0.00    +0.000 C 
BRANCH  28  29
ATOM     29  C   UNL     1       1.606  13.939  18.439  0.00  0.00    +0.000 A 
ATOM     30  C   UNL     1       1.046  15.156  18.859  0.00  0.00    +0.000 A 
ATOM     31  C   UNL     1       1.863  16.251  19.144  0.00  0.00    +0.000 A 
ATOM     32  C   UNL     1       3.242  16.124  19.037  0.00  0.00    +0.000 A 
ATOM     33  F   UNL     1       4.024  17.193  19.245  0.00  0.00    +0.000 F 
ATOM     34  C   UNL     1       3.824  14.908  18.703  0.00  0.00    +0.000 A 
ATOM     35  C   UNL     1       3.007  13.813  18.411  0.00  0.00    +0.000 A 
ENDBRANCH  28  29
ENDBRANCH  16  28
TORSDOF 4
ENDMDL
MODEL 2
REMARK VINA RESULT:      -8.2      1.979      7.550
REMARK  Name = 
REMARK  4 active torsions:
REMARK  status: ('A' for Active; 'I' for Inactive)
REMARK    1  A    between atoms: C_3  and  C_4
REMARK    2  A    between atoms: N_6  and  C_7
REMARK    3  A    between atoms: N_25  and  C_26
REMARK    4  A    between atoms: C_26  and  C_27
REMARK                            x       y       z     vdW  Elec       q    Type
REMARK                         _______ _______ _______ _____ _____    ______ ____
ROOT
ATOM      1  N   UNL     1      -2.387  14.037  20.499  0.00  0.00    +0.000 NA
ATOM      2  C   UNL     1      -1.702  12.942  20.687  0.00  0.00    +0.000 A 
ATOM      3  C   UNL     1      -1.799  12.207  22.018  0.00  0.00    +0.000 A 
ATOM      4  C   UNL     1      -1.052  11.093  22.087  0.00  0.00    +0.000 A 
ATOM      5  C   UNL     1      -0.282  10.557  20.979  0.00  0.00    +0.000 A 
ATOM      6  C   UNL     1       0.407   9.249  21.156  0.00  0.00    +0.000 A 
ATOM      7  O   UNL     1       0.276   8.627  22.215  0.00  0.00    +0.000 OA
ATOM      8  N   UNL     1       1.163   8.808  20.091  0.00  0.00    +0.000 N 
ATOM      9  C   UNL     1       1.837   7.595  20.186  0.00  0.00    +0.000 A 
ATOM     10  C   UNL     1       2.592   7.126  19.191  0.00  0.00    +0.000 A 
ATOM     11  C   UNL     1       2.723   7.890  17.979  0.00  0.00    +0.000 A 
ATOM     12  C   UNL     1       2.087   9.060  17.839  0.00  0.00    +0.000 A 
ATOM     13  C   UNL     1       1.238   9.585  18.949  0.00  0.00    +0.000 A 
ATOM     14  N   UNL     1       0.631  10.719  18.794  0.00  0.00    +0.000 NA
ATOM     15  C   UNL     1      -0.161  11.219  19.808  0.00  0.00    +0.000 A 
ATOM     16  N   UNL     1      -0.863  12.446  19.664  0.00  0.00    +0.000 N 
ATOM     17  H   UNL     1      -2.914  14.282  21.355  0.00  0.00    +0.000 HD
ENDROOT
BRANCH   3  18
ATOM     18  C   UNL     1      -2.573  12.720  23.213  0.00  0.00    +0.000 C 
ATOM     19  O   UNL     1      -3.467  12.045  23.711  0.00  0.00    +0.000 OA
ATOM     20  N   UNL     1      -2.176  13.945  23.702  0.00  0.00    +0.000 N 
ATOM     21  H   UNL     1      -1.303  14.317  23.357  0.00  0.00    +0.000 HD
BRANCH  20  22
ATOM     22  C   UNL     1      -2.694  14.692  24.855  0.00  0.00    +0.000 C 
ATOM     23  C   UNL     1      -1.648  15.399  25.733  0.00  0.00    +0.000 C 
ATOM     24  C   UNL     1      -1.475  16.897  25.495  0.00  0.00    +0.000 C 
ATOM     25  C   UNL     1      -2.805  17.624  25.340  0.00  0.00    +0.000 C 
ATOM     26  C   UNL     1      -3.632  16.998  24.226  0.00  0.00    +0.000 C 
ATOM     27  C   UNL     1      -3.930  15.535  24.524  0.00  0.00    +0.000 C 
ENDBRANCH  20  22
ENDBRANCH   3  18
BRANCH  16  28
ATOM     28  C   UNL     1      -0.638  13.268  18.452  0.00  0.00    +0.000 C 
BRANCH  28  29
ATOM     29  C   UNL     1       0.524  14.233  18.611  0.00  0.00    +0.000 A 
ATOM     30  C   UNL     1       0.294  15.567  18.985  0.00  0.00    +0.000 A 
ATOM     31  C   UNL     1       1.343  16.488  19.000  0.00  0.00    +0.000 A 
ATOM     32  C   UNL     1       2.626  16.073  18.669  0.00  0.00    +0.000 A 
ATOM     33  F   UNL     1       3.621  16.970  18.618  0.00  0.00    +0.000 F 
ATOM     34  C   UNL     1       2.893  14.741  18.375  0.00  0.00    +0.000 A 
ATOM     35  C   UNL     1       1.843  13.819  18.353  0.00  0.00    +0.000 A 
ENDBRANCH  28  29
ENDBRANCH  16  28
TORSDOF 4
ENDMDL
MODEL 3
REMARK VINA RESULT:      -8.2      1.960      7.259
REMARK  Name = 
REMARK  4 active torsions:
REMARK  status: ('A' for Active; 'I' for Inactive)
REMARK    1  A    between atoms: C_3  and  C_4
REMARK    2  A    between atoms: N_6  and  C_7
REMARK    3  A    between atoms: N_25  and  C_26
REMARK    4  A    between atoms: C_26  and  C_27
REMARK                            x       y       z     vdW  Elec       q    Type
REMARK                         _______ _______ _______ _____ _____    ______ ____
ROOT
ATOM      1  N   UNL     1      -2.122  14.264  20.351  0.00  0.00    +0.000 NA
ATOM      2  C   UNL     1      -1.499  13.145  20.607  0.00  0.00    +0.000 A 
ATOM      3  C   UNL     1      -1.625  12.506  21.983  0.00  0.00    +0.000 A 
ATOM      4  C   UNL     1      -0.942  11.357  22.121  0.00  0.00    +0.000 A 
ATOM      5  C   UNL     1      -0.217  10.706  21.046  0.00  0.00    +0.000 A 
ATOM      6  C   UNL     1       0.399   9.374  21.305  0.00  0.00    +0.000 A 
ATOM      7  O   UNL     1       0.242   8.832  22.404  0.00  0.00    +0.000 OA
ATOM      8  N   UNL     1       1.117   8.822  20.267  0.00  0.00    +0.000 N 
ATOM      9  C   UNL     1       1.721   7.581  20.438  0.00  0.00    +0.000 A 
ATOM     10  C   UNL     1       2.438   7.004  19.471  0.00  0.00    +0.000 A 
ATOM     11  C   UNL     1       2.600   7.678  18.210  0.00  0.00    +0.000 A 
ATOM     12  C   UNL     1       2.031   8.872  17.997  0.00  0.00    +0.000 A 
ATOM     13  C   UNL     1       1.225   9.517  19.075  0.00  0.00    +0.000 A 
ATOM     14  N   UNL     1       0.683  10.672  18.850  0.00  0.00    +0.000 NA
ATOM     15  C   UNL     1      -0.069  11.282  19.834  0.00  0.00    +0.000 A 
ATOM     16  N   UNL     1      -0.701  12.535  19.613  0.00  0.00    +0.000 N 
ATOM     17  H   UNL     1      -2.625  14.594  21.193  0.00  0.00    +0.000 HD
ENDROOT
BRANCH   3  18
ATOM     18  C   UNL     1      -2.356  13.140  23.148  0.00  0.00    +0.000 C 
ATOM     19  O   UNL     1      -1.740  13.771  23.999  0.00  0.00    +0.000 OA
ATOM     20  N   UNL     1      -3.725  12.987  23.149  0.00  0.00    +0.000 N 
ATOM     21  H   UNL     1      -4.149  12.637  22.302  0.00  0.00    +0.000 HD
BRANCH  20  22
ATOM     22  C   UNL     1      -4.712  13.504  24.106  0.00  0.00    +0.000 C 
ATOM     23  C   UNL     1      -5.284  14.899  23.806  0.00  0.00    +0.000 C 
ATOM     24  C   UNL     1      -6.665  14.932  23.154  0.00  0.00    +0.000 C 
ATOM     25  C   UNL     1      -7.635  13.943  23.787  0.00  0.00    +0.000 C 
ATOM     26  C   UNL     1      -7.063  12.533  23.755  0.00  0.00    +0.000 C 
ATOM     27  C   UNL     1      -5.752  12.459  24.525  0.00  0.00    +0.000 C 
ENDBRANCH  20  22
ENDBRANCH   3  18
BRANCH  16  28
ATOM     28  C   UNL     1      -0.441  13.262  18.349  0.00  0.00    +0.000 C 
BRANCH  28  29
ATOM     29  C   UNL     1       0.782  14.158  18.432  0.00  0.00    +0.000 A 
ATOM     30  C   UNL     1       0.645  15.522  18.737  0.00  0.00    +0.000 A 
ATOM     31  C   UNL     1       1.750  16.374  18.681  0.00  0.00    +0.000 A 
ATOM     32  C   UNL     1       2.997  15.860  18.350  0.00  0.00    +0.000 A 
ATOM     33  F   UNL     1       4.044  16.688  18.232  0.00  0.00    +0.000 F 
ATOM     34  C   UNL     1       3.173  14.500  18.126  0.00  0.00    +0.000 A 
ATOM     35  C   UNL     1       2.067  13.647  18.174  0.00  0.00    +0.000 A 
ENDBRANCH  28  29
ENDBRANCH  16  28
TORSDOF 4
ENDMDL
MODEL 4
REMARK VINA RESULT:      -7.9      2.599      4.945
REMARK  Name = 
REMARK  4 active torsions:
REMARK  status: ('A' for Active; 'I' for Inactive)
REMARK    1  A    between atoms: C_3  and  C_4
REMARK    2  A    between atoms: N_6  and  C_7
REMARK    3  A    between atoms: N_25  and  C_26
REMARK    4  A    between atoms: C_26  and  C_27
REMARK                            x       y       z     vdW  Elec       q    Type
REMARK                         _______ _______ _______ _____ _____    ______ ____
ROOT
ATOM      1  N   UNL     1      -0.845   9.304  18.285  0.00  0.00    +0.000 NA
ATOM      2  C   UNL     1      -0.073  10.353  18.371  0.00  0.00    +0.000 A 
ATOM      3  C   UNL     1       1.436  10.195  18.246  0.00  0.00    +0.000 A 
ATOM      4  C   UNL     1       2.121  11.347  18.346  0.00  0.00    +0.000 A 
ATOM      5  C   UNL     1       1.503  12.654  18.469  0.00  0.00    +0.000 A 
ATOM      6  C   UNL     1       2.376  13.861  18.452  0.00  0.00    +0.000 A 
ATOM      7  O   UNL     1       3.594  13.731  18.290  0.00  0.00    +0.000 OA
ATOM      8  N   UNL     1       1.745  15.074  18.621  0.00  0.00    +0.000 N 
ATOM      9  C   UNL     1       2.498  16.243  18.618  0.00  0.00    +0.000 A 
ATOM     10  C   UNL     1       1.941  17.444  18.789  0.00  0.00    +0.000 A 
ATOM     11  C   UNL     1       0.519  17.544  18.984  0.00  0.00    +0.000 A 
ATOM     12  C   UNL     1      -0.248  16.446  18.988  0.00  0.00    +0.000 A 
ATOM     13  C   UNL     1       0.372  15.102  18.793  0.00  0.00    +0.000 A 
ATOM     14  N   UNL     1      -0.386  14.052  18.800  0.00  0.00    +0.000 NA
ATOM     15  C   UNL     1       0.169  12.802  18.618  0.00  0.00    +0.000 A 
ATOM     16  N   UNL     1      -0.635  11.631  18.592  0.00  0.00    +0.000 N 
ATOM     17  H   UNL     1      -0.275   8.449  18.164  0.00  0.00    +0.000 HD
ENDROOT
BRANCH   3  18
ATOM     18  C   UNL     1       2.141   8.861  18.128  0.00  0.00    +0.000 C 
ATOM     19  O   UNL     1       2.804   8.593  17.132  0.00  0.00    +0.000 OA
ATOM     20  N   UNL     1       2.012   8.019  19.211  0.00  0.00    +0.000 N 
ATOM     21  H   UNL     1       1.627   8.413  20.056  0.00  0.00    +0.000 HD
BRANCH  20  22
ATOM     22  C   UNL     1       2.594   6.687  19.421  0.00  0.00    +0.000 C 
ATOM     23  C   UNL     1       2.055   5.891  20.621  0.00  0.00    +0.000 C 
ATOM     24  C   UNL     1       1.015   4.819  20.303  0.00  0.00    +0.000 C 
ATOM     25  C   UNL     1       1.379   3.995  19.075  0.00  0.00    +0.000 C 
ATOM     26  C   UNL     1       1.603   4.897  17.869  0.00  0.00    +0.000 C 
ATOM     27  C   UNL     1       2.737   5.879  18.127  0.00  0.00    +0.000 C 
ENDBRANCH  20  22
ENDBRANCH   3  18
BRANCH  16  28
ATOM     28  C   UNL     1      -2.081  11.740  18.896  0.00  0.00    +0.000 C 
BRANCH  28  29
ATOM     29  C   UNL     1      -2.347  12.066  20.355  0.00  0.00    +0.000 A 
ATOM     30  C   UNL     1      -1.472  11.611  21.356  0.00  0.00    +0.000 A 
ATOM     31  C   UNL     1      -1.784  11.792  22.704  0.00  0.00    +0.000 A 
ATOM     32  C   UNL     1      -2.955  12.452  23.055  0.00  0.00    +0.000 A 
ATOM     33  F   UNL     1      -3.288  12.567  24.348  0.00  0.00    +0.000 F 
ATOM     34  C   UNL     1      -3.795  12.982  22.084  0.00  0.00    +0.000 A 
ATOM     35  C   UNL     1      -3.488  12.796  20.734  0.00  0.00    +0.000 A 
ENDBRANCH  28  29
ENDBRANCH  16  28
TORSDOF 4
ENDMDL
MODEL 5
REMARK VINA RESULT:      -7.9      3.480      6.936
REMARK  Name = 
REMARK  4 active torsions:
REMARK  status: ('A' for Active; 'I' for Inactive)
REMARK    1  A    between atoms: C_3  and  C_4
REMARK    2  A    between atoms: N_6  and  C_7
REMARK    3  A    between atoms: N_25  and  C_26
REMARK    4  A    between atoms: C_26  and  C_27
REMARK                            x       y       z     vdW  Elec       q    Type
REMARK                         _______ _______ _______ _____ _____    ______ ____
ROOT
ATOM      1  N   UNL     1       2.437  12.536  17.299  0.00  0.00    +0.000 NA
ATOM      2  C   UNL     1       2.007  12.984  18.447  0.00  0.00    +0.000 A 
ATOM      3  C   UNL     1       2.733  14.135  19.130  0.00  0.00    +0.000 A 
ATOM      4  C   UNL     1       2.192  14.509  20.302  0.00  0.00    +0.000 A 
ATOM      5  C   UNL     1       0.971  13.950  20.852  0.00  0.00    +0.000 A 
ATOM      6  C   UNL     1       0.416  14.538  22.103  0.00  0.00    +0.000 A 
ATOM      7  O   UNL     1       0.975  15.511  22.620  0.00  0.00    +0.000 OA
ATOM      8  N   UNL     1      -0.717  13.940  22.608  0.00  0.00    +0.000 N 
ATOM      9  C   UNL     1      -1.289  14.436  23.775  0.00  0.00    +0.000 A 
ATOM     10  C   UNL     1      -2.380  13.889  24.316  0.00  0.00    +0.000 A 
ATOM     11  C   UNL     1      -2.991  12.751  23.682  0.00  0.00    +0.000 A 
ATOM     12  C   UNL     1      -2.480  12.244  22.553  0.00  0.00    +0.000 A 
ATOM     13  C   UNL     1      -1.263  12.856  21.944  0.00  0.00    +0.000 A 
ATOM     14  N   UNL     1      -0.783  12.351  20.852  0.00  0.00    +0.000 NA
ATOM     15  C   UNL     1       0.340  12.906  20.272  0.00  0.00    +0.000 A 
ATOM     16  N   UNL     1       0.877  12.396  19.060  0.00  0.00    +0.000 N 
ATOM     17  H   UNL     1       3.290  13.046  17.012  0.00  0.00    +0.000 HD
ENDROOT
BRANCH   3  18
ATOM     18  C   UNL     1       4.016  14.751  18.616  0.00  0.00    +0.000 C 
ATOM     19  O   UNL     1       4.053  15.279  17.510  0.00  0.00    +0.000 OA
ATOM     20  N   UNL     1       5.089  14.706  19.479  0.00  0.00    +0.000 N 
ATOM     21  H   UNL     1       4.900  14.443  20.434  0.00  0.00    +0.000 HD
BRANCH  20  22
ATOM     22  C   UNL     1       6.446  15.238  19.296  0.00  0.00    +0.000 C 
ATOM     23  C   UNL     1       7.399  15.098  20.494  0.00  0.00    +0.000 C 
ATOM     24  C   UNL     1       8.399  13.946  20.425  0.00  0.00    +0.000 C 
ATOM     25  C   UNL     1       9.042  13.810  19.051  0.00  0.00    +0.000 C 
ATOM     26  C   UNL     1       7.979  13.661  17.972  0.00  0.00    +0.000 C 
ATOM     27  C   UNL     1       7.060  14.874  17.940  0.00  0.00    +0.000 C 
ENDBRANCH  20  22
ENDBRANCH   3  18
BRANCH  16  28
ATOM     28  C   UNL     1       0.299  11.163  18.476  0.00  0.00    +0.000 C 
BRANCH  28  29
ATOM     29  C   UNL     1       1.039   9.910  18.908  0.00  0.00    +0.000 A 
ATOM     30  C   UNL     1       1.825   9.195  17.989  0.00  0.00    +0.000 A 
ATOM     31  C   UNL     1       2.395   7.972  18.347  0.00  0.00    +0.000 A 
ATOM     32  C   UNL     1       2.207   7.476  19.630  0.00  0.00    +0.000 A 
ATOM     33  F   UNL     1       2.699   6.272  19.954  0.00  0.00    +0.000 F 
ATOM     34  C   UNL     1       1.504   8.204  20.582  0.00  0.00    +0.000 A 
ATOM     35  C   UNL     1       0.926   9.425  20.224  0.00  0.00    +0.000 A 
ENDBRANCH  28  29
ENDBRANCH  16  28
TORSDOF 4
ENDMDL
MODEL 6
REMARK VINA RESULT:      -7.9      4.003      7.230
REMARK  Name = 
REMARK  4 active torsions:
REMARK  status: ('A' for Active; 'I' for Inactive)
REMARK    1  A    between atoms: C_3  and  C_4
REMARK    2  A    between atoms: N_6  and  C_7
REMARK    3  A    between atoms: N_25  and  C_26
REMARK    4  A    between atoms: C_26  and  C_27
REMARK                            x       y       z     vdW  Elec       q    Type
REMARK                         _______ _______ _______ _____ _____    ______ ____
ROOT
ATOM      1  N   UNL     1      -1.067   9.739  17.484  0.00  0.00    +0.000 NA
ATOM      2  C   UNL     1      -0.860  10.798  18.217  0.00  0.00    +0.000 A 
ATOM      3  C   UNL     1      -2.038  11.658  18.656  0.00  0.00    +0.000 A 
ATOM      4  C   UNL     1      -1.696  12.716  19.410  0.00  0.00    +0.000 A 
ATOM      5  C   UNL     1      -0.345  12.993  19.863  0.00  0.00    +0.000 A 
ATOM      6  C   UNL     1      -0.124  14.135  20.793  0.00  0.00    +0.000 A 
ATOM      7  O   UNL     1      -1.090  14.792  21.194  0.00  0.00    +0.000 OA
ATOM      8  N   UNL     1       1.183  14.384  21.154  0.00  0.00    +0.000 N 
ATOM      9  C   UNL     1       1.465  15.436  22.018  0.00  0.00    +0.000 A 
ATOM     10  C   UNL     1       2.712  15.730  22.392  0.00  0.00    +0.000 A 
ATOM     11  C   UNL     1       3.806  14.942  21.891  0.00  0.00    +0.000 A 
ATOM     12  C   UNL     1       3.582  13.914  21.062  0.00  0.00    +0.000 A 
ATOM     13  C   UNL     1       2.188  13.581  20.646  0.00  0.00    +0.000 A 
ATOM     14  N   UNL     1       1.993  12.583  19.843  0.00  0.00    +0.000 NA
ATOM     15  C   UNL     1       0.710  12.258  19.450  0.00  0.00    +0.000 A 
ATOM     16  N   UNL     1       0.455  11.154  18.593  0.00  0.00    +0.000 N 
ATOM     17  H   UNL     1      -2.074   9.645  17.266  0.00  0.00    +0.000 HD
ENDROOT
BRANCH   3  18
ATOM     18  C   UNL     1      -3.465  11.430  18.209  0.00  0.00    +0.000 C 
ATOM     19  O   UNL     1      -3.702  10.821  17.171  0.00  0.00    +0.000 OA
ATOM     20  N   UNL     1      -4.441  11.912  19.053  0.00  0.00    +0.000 N 
ATOM     21  H   UNL     1      -4.148  12.207  19.973  0.00  0.00    +0.000 HD
BRANCH  20  22
ATOM     22  C   UNL     1      -5.901  11.824  18.924  0.00  0.00    +0.000 C 
ATOM     23  C   UNL     1      -6.478  10.423  18.666  0.00  0.00    +0.000 C 
ATOM     24  C   UNL     1      -7.059   9.702  19.880  0.00  0.00    +0.000 C 
ATOM     25  C   UNL     1      -7.912  10.616  20.751  0.00  0.00    +0.000 C 
ATOM     26  C   UNL     1      -7.117  11.839  21.186  0.00  0.00    +0.000 C 
ATOM     27  C   UNL     1      -6.652  12.643  19.980  0.00  0.00    +0.000 C 
ENDBRANCH  20  22
ENDBRANCH   3  18
BRANCH  16  28
ATOM     28  C   UNL     1       1.598  10.416  18.006  0.00  0.00    +0.000 C 
BRANCH  28  29
ATOM     29  C   UNL     1       1.777   9.037  18.616  0.00  0.00    +0.000 A 
ATOM     30  C   UNL     1       1.433   8.803  19.957  0.00  0.00    +0.000 A 
ATOM     31  C   UNL     1       1.721   7.577  20.558  0.00  0.00    +0.000 A 
ATOM     32  C   UNL     1       2.327   6.573  19.813  0.00  0.00    +0.000 A 
ATOM     33  F   UNL     1       2.664   5.419  20.406  0.00  0.00    +0.000 F 
ATOM     34  C   UNL     1       2.601   6.752  18.463  0.00  0.00    +0.000 A 
ATOM     35  C   UNL     1       2.320   7.981  17.862  0.00  0.00    +0.000 A 
ENDBRANCH  28  29
ENDBRANCH  16  28
TORSDOF 4
ENDMDL
MODEL 7
REMARK VINA RESULT:      -7.9      0.661      1.128
REMARK  Name = 
REMARK  4 active torsions:
REMARK  status: ('A' for Active; 'I' for Inactive)
REMARK    1  A    between atoms: C_3  and  C_4
REMARK    2  A    between atoms: N_6  and  C_7
REMARK    3  A    between atoms: N_25  and  C_26
REMARK    4  A    between atoms: C_26  and  C_27
REMARK                            x       y       z     vdW  Elec       q    Type
REMARK                         _______ _______ _______ _____ _____    ______ ____
ROOT
ATOM      1  N   UNL     1       2.326  10.643  17.489  0.00  0.00    +0.000 NA
ATOM      2  C   UNL     1       1.545  10.616  18.535  0.00  0.00    +0.000 A 
ATOM      3  C   UNL     1       1.382   9.324  19.325  0.00  0.00    +0.000 A 
ATOM      4  C   UNL     1       0.558   9.425  20.381  0.00  0.00    +0.000 A 
ATOM      5  C   UNL     1      -0.063  10.663  20.815  0.00  0.00    +0.000 A 
ATOM      6  C   UNL     1      -0.861  10.658  22.073  0.00  0.00    +0.000 A 
ATOM      7  O   UNL     1      -0.940   9.623  22.742  0.00  0.00    +0.000 OA
ATOM      8  N   UNL     1      -1.470  11.846  22.414  0.00  0.00    +0.000 N 
ATOM      9  C   UNL     1      -2.232  11.915  23.575  0.00  0.00    +0.000 A 
ATOM     10  C   UNL     1      -2.853  13.036  23.949  0.00  0.00    +0.000 A 
ATOM     11  C   UNL     1      -2.739  14.215  23.132  0.00  0.00    +0.000 A 
ATOM     12  C   UNL     1      -2.010  14.198  22.009  0.00  0.00    +0.000 A 
ATOM     13  C   UNL     1      -1.310  12.947  21.592  0.00  0.00    +0.000 A 
ATOM     14  N   UNL     1      -0.610  12.951  20.502  0.00  0.00    +0.000 NA
ATOM     15  C   UNL     1       0.046  11.805  20.102  0.00  0.00    +0.000 A 
ATOM     16  N   UNL     1       0.845  11.779  18.928  0.00  0.00    +0.000 N 
ATOM     17  H   UNL     1       2.728   9.706  17.317  0.00  0.00    +0.000 HD
ENDROOT
BRANCH   3  18
ATOM     18  C   UNL     1       1.993   8.000  18.918  0.00  0.00    +0.000 C 
ATOM     19  O   UNL     1       2.339   7.805  17.758  0.00  0.00    +0.000 OA
ATOM     20  N   UNL     1       2.158   7.081  19.931  0.00  0.00    +0.000 N 
ATOM     21  H   UNL     1       2.038   7.413  20.876  0.00  0.00    +0.000 HD
BRANCH  20  22
ATOM     22  C   UNL     1       2.743   5.736  19.872  0.00  0.00    +0.000 C 
ATOM     23  C   UNL     1       1.873   4.643  19.229  0.00  0.00    +0.000 C 
ATOM     24  C   UNL     1       2.203   4.288  17.781  0.00  0.00    +0.000 C 
ATOM     25  C   UNL     1       3.702   4.169  17.534  0.00  0.00    +0.000 C 
ATOM     26  C   UNL     1       4.418   5.446  17.948  0.00  0.00    +0.000 C 
ATOM     27  C   UNL     1       4.209   5.733  19.428  0.00  0.00    +0.000 C 
ENDBRANCH  20  22
ENDBRANCH   3  18
BRANCH  16  28
ATOM     28  C   UNL     1       0.870  12.969  18.045  0.00  0.00    +0.000 C 
BRANCH  28  29
ATOM     29  C   UNL     1       1.824  14.042  18.540  0.00  0.00    +0.000 A 
ATOM     30  C   UNL     1       1.337  15.297  18.941  0.00  0.00    +0.000 A 
ATOM     31  C   UNL     1       2.220  16.327  19.267  0.00  0.00    +0.000 A 
ATOM     32  C   UNL     1       3.589  16.098  19.222  0.00  0.00    +0.000 A 
ATOM     33  F   UNL     1       4.438  17.105  19.471  0.00  0.00    +0.000 F 
ATOM     34  C   UNL     1       4.093  14.842  18.910  0.00  0.00    +0.000 A 
ATOM     35  C   UNL     1       3.212  13.811  18.576  0.00  0.00    +0.000 A 
ENDBRANCH  28  29
ENDBRANCH  16  28
TORSDOF 4
ENDMDL
MODEL 8
REMARK VINA RESULT:      -7.8      3.339      7.253
REMARK  Name = 
REMARK  4 active torsions:
REMARK  status: ('A' for Active; 'I' for Inactive)
REMARK    1  A    between atoms: C_3  and  C_4
REMARK    2  A    between atoms: N_6  and  C_7
REMARK    3  A    between atoms: N_25  and  C_26
REMARK    4  A    between atoms: C_26  and  C_27
REMARK                            x       y       z     vdW  Elec       q    Type
REMARK                         _______ _______ _______ _____ _____    ______ ____
ROOT
ATOM      1  N   UNL     1       2.599  12.372  17.803  0.00  0.00    +0.000 NA
ATOM      2  C   UNL     1       2.045  12.827  18.894  0.00  0.00    +0.000 A 
ATOM      3  C   UNL     1       2.729  13.935  19.684  0.00  0.00    +0.000 A 
ATOM      4  C   UNL     1       2.059  14.321  20.783  0.00  0.00    +0.000 A 
ATOM      5  C   UNL     1       0.752  13.815  21.161  0.00  0.00    +0.000 A 
ATOM      6  C   UNL     1       0.068  14.415  22.340  0.00  0.00    +0.000 A 
ATOM      7  O   UNL     1       0.599  15.354  22.942  0.00  0.00    +0.000 OA
ATOM      8  N   UNL     1      -1.147  13.866  22.686  0.00  0.00    +0.000 N 
ATOM      9  C   UNL     1      -1.842  14.375  23.778  0.00  0.00    +0.000 A 
ATOM     10  C   UNL     1      -3.017  13.875  24.165  0.00  0.00    +0.000 A 
ATOM     11  C   UNL     1      -3.592  12.774  23.439  0.00  0.00    +0.000 A 
ATOM     12  C   UNL     1      -2.963  12.256  22.376  0.00  0.00    +0.000 A 
ATOM     13  C   UNL     1      -1.651  12.817  21.939  0.00  0.00    +0.000 A 
ATOM     14  N   UNL     1      -1.058  12.301  20.909  0.00  0.00    +0.000 NA
ATOM     15  C   UNL     1       0.155  12.808  20.488  0.00  0.00    +0.000 A 
ATOM     16  N   UNL     1       0.820  12.286  19.347  0.00  0.00    +0.000 N 
ATOM     17  H   UNL     1       3.504  12.844  17.636  0.00  0.00    +0.000 HD
ENDROOT
BRANCH   3  18
ATOM     18  C   UNL     1       4.094  14.496  19.349  0.00  0.00    +0.000 C 
ATOM     19  O   UNL     1       4.422  14.680  18.182  0.00  0.00    +0.000 OA
ATOM     20  N   UNL     1       4.894  14.807  20.427  0.00  0.00    +0.000 N 
ATOM     21  H   UNL     1       4.456  14.816  21.336  0.00  0.00    +0.000 HD
BRANCH  20  22
ATOM     22  C   UNL     1       6.241  15.391  20.440  0.00  0.00    +0.000 C 
ATOM     23  C   UNL     1       7.357  14.541  19.810  0.00  0.00    +0.000 C 
ATOM     24  C   UNL     1       7.767  14.921  18.389  0.00  0.00    +0.000 C 
ATOM     25  C   UNL     1       7.898  16.427  18.199  0.00  0.00    +0.000 C 
ATOM     26  C   UNL     1       6.606  17.131  18.588  0.00  0.00    +0.000 C 
ATOM     27  C   UNL     1       6.262  16.872  20.048  0.00  0.00    +0.000 C 
ENDBRANCH  20  22
ENDBRANCH   3  18
BRANCH  16  28
ATOM     28  C   UNL     1       0.267  11.090  18.672  0.00  0.00    +0.000 C 
BRANCH  28  29
ATOM     29  C   UNL     1       0.993   9.814  19.060  0.00  0.00    +0.000 A 
ATOM     30  C   UNL     1       1.751   9.109  18.110  0.00  0.00    +0.000 A 
ATOM     31  C   UNL     1       2.307   7.869  18.427  0.00  0.00    +0.000 A 
ATOM     32  C   UNL     1       2.131   7.343  19.701  0.00  0.00    +0.000 A 
ATOM     33  F   UNL     1       2.607   6.123  19.985  0.00  0.00    +0.000 F 
ATOM     34  C   UNL     1       1.456   8.058  20.682  0.00  0.00    +0.000 A 
ATOM     35  C   UNL     1       0.893   9.297  20.365  0.00  0.00    +0.000 A 
ENDBRANCH  28  29
ENDBRANCH  16  28
TORSDOF 4
ENDMDL
MODEL 9
REMARK VINA RESULT:      -7.7      4.103      7.661
REMARK  Name = 
REMARK  4 active torsions:
REMARK  status: ('A' for Active; 'I' for Inactive)
REMARK    1  A    between atoms: C_3  and  C_4
REMARK    2  A    between atoms: N_6  and  C_7
REMARK    3  A    between atoms: N_25  and  C_26
REMARK    4  A    between atoms: C_26  and  C_27
REMARK                            x       y       z     vdW  Elec       q    Type
REMARK                         _______ _______ _______ _____ _____    ______ ____
ROOT
ATOM      1  N   UNL     1      -1.161   9.757  17.454  0.00  0.00    +0.000 NA
ATOM      2  C   UNL     1      -0.991  10.813  18.202  0.00  0.00    +0.000 A 
ATOM      3  C   UNL     1      -2.197  11.635  18.637  0.00  0.00    +0.000 A 
ATOM      4  C   UNL     1      -1.893  12.693  19.407  0.00  0.00    +0.000 A 
ATOM      5  C   UNL     1      -0.555  12.999  19.880  0.00  0.00    +0.000 A 
ATOM      6  C   UNL     1      -0.376  14.136  20.826  0.00  0.00    +0.000 A 
ATOM      7  O   UNL     1      -1.364  14.762  21.223  0.00  0.00    +0.000 OA
ATOM      8  N   UNL     1       0.919  14.416  21.206  0.00  0.00    +0.000 N 
ATOM      9  C   UNL     1       1.162  15.465  22.086  0.00  0.00    +0.000 A 
ATOM     10  C   UNL     1       2.396  15.787  22.479  0.00  0.00    +0.000 A 
ATOM     11  C   UNL     1       3.517  15.035  21.983  0.00  0.00    +0.000 A 
ATOM     12  C   UNL     1       3.331  14.011  21.139  0.00  0.00    +0.000 A 
ATOM     13  C   UNL     1       1.952  13.646  20.702  0.00  0.00    +0.000 A 
ATOM     14  N   UNL     1       1.793  12.653  19.885  0.00  0.00    +0.000 NA
ATOM     15  C   UNL     1       0.524  12.298  19.472  0.00  0.00    +0.000 A 
ATOM     16  N   UNL     1       0.310  11.199  18.599  0.00  0.00    +0.000 N 
ATOM     17  H   UNL     1      -2.162   9.639  17.223  0.00  0.00    +0.000 HD
ENDROOT
BRANCH   3  18
ATOM     18  C   UNL     1      -3.612  11.374  18.169  0.00  0.00    +0.000 C 
ATOM     19  O   UNL     1      -3.864  10.409  17.456  0.00  0.00    +0.000 OA
ATOM     20  N   UNL     1      -4.566  12.257  18.627  0.00  0.00    +0.000 N 
ATOM     21  H   UNL     1      -4.293  12.884  19.369  0.00  0.00    +0.000 HD
BRANCH  20  22
ATOM     22  C   UNL     1      -6.014  12.261  18.386  0.00  0.00    +0.000 C 
ATOM     23  C   UNL     1      -6.900  12.660  19.577  0.00  0.00    +0.000 C 
ATOM     24  C   UNL     1      -7.419  14.097  19.575  0.00  0.00    +0.000 C 
ATOM     25  C   UNL     1      -7.917  14.538  18.205  0.00  0.00    +0.000 C 
ATOM     26  C   UNL     1      -6.829  14.361  17.155  0.00  0.00    +0.000 C 
ATOM     27  C   UNL     1      -6.404  12.904  17.051  0.00  0.00    +0.000 C 
ENDBRANCH  20  22
ENDBRANCH   3  18
BRANCH  16  28
ATOM     28  C   UNL     1       1.479  10.499  18.017  0.00  0.00    +0.000 C 
BRANCH  28  29
ATOM     29  C   UNL     1       1.697   9.125  18.625  0.00  0.00    +0.000 A 
ATOM     30  C   UNL     1       1.361   8.878  19.966  0.00  0.00    +0.000 A 
ATOM     31  C   UNL     1       1.684   7.660  20.564  0.00  0.00    +0.000 A 
ATOM     32  C   UNL     1       2.318   6.675  19.817  0.00  0.00    +0.000 A 
ATOM     33  F   UNL     1       2.688   5.531  20.409  0.00  0.00    +0.000 F 
ATOM     34  C   UNL     1       2.586   6.864  18.468  0.00  0.00    +0.000 A 
ATOM     35  C   UNL     1       2.270   8.086  17.869  0.00  0.00    +0.000 A 
ENDBRANCH  28  29
ENDBRANCH  16  28
TORSDOF 4
ENDMDL
