MODEL 1
REMARK VINA RESULT:      -8.6      0.000      0.000
REMARK  Name = 
REMARK  5 active torsions:
REMARK  status: ('A' for Active; 'I' for Inactive)
REMARK    1  A    between atoms: C_2  and  C_3
REMARK    2  A    between atoms: N_9  and  C_10
REMARK    3  A    between atoms: N_9  and  C_20
REMARK    4  A    between atoms: C_10  and  C_11
REMARK    5  A    between atoms: C_20  and  C_21
REMARK                            x       y       z     vdW  Elec       q    Type
REMARK                         _______ _______ _______ _____ _____    ______ ____
ROOT
ATOM      1  O   UNL     1       3.037   8.002  17.688  0.00  0.00    +0.000 OA
ATOM      2  C   UNL     1       2.483   7.456  18.636  0.00  0.00    +0.000 C 
ATOM      3  N   UNL     1       2.598   6.047  18.845  0.00  0.00    +0.000 N 
ENDROOT
BRANCH   2   4
ATOM      4  C   UNL     1       1.709   8.279  19.591  0.00  0.00    +0.000 A 
ATOM      5  C   UNL     1       1.589   8.130  20.970  0.00  0.00    +0.000 A 
ATOM      6  C   UNL     1       0.713   9.148  21.394  0.00  0.00    +0.000 A 
ATOM      7 CL   UNL     1       0.136   9.408  22.965  0.00  0.00    +0.000 Cl
ATOM      8  N   UNL     1       0.340   9.937  20.387  0.00  0.00    +0.000 NA
ATOM      9  N   UNL     1       1.028   9.448  19.344  0.00  0.00    +0.000 N 
ATOM     10  H   UNL     1       0.949   9.959  18.468  0.00  0.00    +0.000 HD
ENDBRANCH   2   4
BRANCH   3  11
ATOM     11  C   UNL     1       3.163   5.159  17.717  0.00  0.00    +0.000 C 
BRANCH  11  12
ATOM     12  C   UNL     1       4.705   5.175  17.615  0.00  0.00    +0.000 A 
ATOM     13  C   UNL     1       5.341   5.084  18.854  0.00  0.00    +0.000 A 
ATOM     14  C   UNL     1       6.626   5.574  19.009  0.00  0.00    +0.000 A 
ATOM     15  C   UNL     1       7.487   4.963  18.160  0.00  0.00    +0.000 A 
ATOM     16  C   UNL     1       7.005   4.880  16.853  0.00  0.00    +0.000 A 
ATOM     17  N   UNL     1       7.722   4.593  15.726  0.00  0.00    +0.000 N 
ATOM     18  C   UNL     1       6.970   4.896  14.629  0.00  0.00    +0.000 A 
ATOM     19  C   UNL     1       5.672   5.164  15.073  0.00  0.00    +0.000 A 
ATOM     20  C   UNL     1       5.648   5.101  16.513  0.00  0.00    +0.000 A 
ATOM     21  H   UNL     1       8.699   4.327  15.726  0.00  0.00    +0.000 HD
ENDBRANCH  11  12
ENDBRANCH   3  11
BRANCH   3  22
ATOM     22  C   UNL     1       2.008   5.482  20.066  0.00  0.00    +0.000 C 
BRANCH  22  23
ATOM     23  C   UNL     1       2.243   4.019  20.349  0.00  0.00    +0.000 C 
ATOM     24  C   UNL     1       2.350   3.574  21.820  0.00  0.00    +0.000 C 
ATOM     25  C   UNL     1       1.293   2.491  21.536  0.00  0.00    +0.000 C 
ATOM     26  C   UNL     1       0.881   3.266  20.282  0.00  0.00    +0.000 C 
ENDBRANCH  22  23
ENDBRANCH   3  22
TORSDOF 5
ENDMDL
MODEL 2
REMARK VINA RESULT:      -8.4      3.881      6.713
REMARK  Name = 
REMARK  5 active torsions:
REMARK  status: ('A' for Active; 'I' for Inactive)
REMARK    1  A    between atoms: C_2  and  C_3
REMARK    2  A    between atoms: N_9  and  C_10
REMARK    3  A    between atoms: N_9  and  C_20
REMARK    4  A    between atoms: C_10  and  C_11
REMARK    5  A    between atoms: C_20  and  C_21
REMARK                            x       y       z     vdW  Elec       q    Type
REMARK                         _______ _______ _______ _____ _____    ______ ____
ROOT
ATOM      1  O   UNL     1       7.328   4.093  18.378  0.00  0.00    +0.000 OA
ATOM      2  C   UNL     1       6.507   4.696  17.695  0.00  0.00    +0.000 C 
ATOM      3  N   UNL     1       5.384   5.345  18.293  0.00  0.00    +0.000 N 
ENDROOT
BRANCH   2   4
ATOM      4  C   UNL     1       6.705   4.773  16.230  0.00  0.00    +0.000 A 
ATOM      5  C   UNL     1       6.122   3.997  15.231  0.00  0.00    +0.000 A 
ATOM      6  C   UNL     1       6.673   4.453  14.018  0.00  0.00    +0.000 A 
ATOM      7 CL   UNL     1       6.392   3.824  12.471  0.00  0.00    +0.000 Cl
ATOM      8  N   UNL     1       7.499   5.482  14.200  0.00  0.00    +0.000 NA
ATOM      9  N   UNL     1       7.421   5.709  15.520  0.00  0.00    +0.000 N 
ATOM     10  H   UNL     1       7.927   6.517  15.873  0.00  0.00    +0.000 HD
ENDBRANCH   2   4
BRANCH   3  11
ATOM     11  C   UNL     1       5.028   5.039  19.762  0.00  0.00    +0.000 C 
BRANCH  11  12
ATOM     12  C   UNL     1       3.770   4.158  19.936  0.00  0.00    +0.000 A 
ATOM     13  C   UNL     1       2.995   4.515  21.040  0.00  0.00    +0.000 A 
ATOM     14  C   UNL     1       2.162   3.580  21.630  0.00  0.00    +0.000 A 
ATOM     15  C   UNL     1       1.257   3.102  20.743  0.00  0.00    +0.000 A 
ATOM     16  C   UNL     1       1.822   2.747  19.518  0.00  0.00    +0.000 A 
ATOM     17  N   UNL     1       1.254   1.984  18.536  0.00  0.00    +0.000 N 
ATOM     18  C   UNL     1       2.216   1.619  17.641  0.00  0.00    +0.000 A 
ATOM     19  C   UNL     1       3.368   2.353  17.941  0.00  0.00    +0.000 A 
ATOM     20  C   UNL     1       3.123   3.144  19.121  0.00  0.00    +0.000 A 
ATOM     21  H   UNL     1       0.301   1.647  18.560  0.00  0.00    +0.000 HD
ENDBRANCH  11  12
ENDBRANCH   3  11
BRANCH   3  22
ATOM     22  C   UNL     1       4.509   6.147  17.426  0.00  0.00    +0.000 C 
BRANCH  22  23
ATOM     23  C   UNL     1       3.673   7.223  18.071  0.00  0.00    +0.000 C 
ATOM     24  C   UNL     1       3.222   8.411  17.201  0.00  0.00    +0.000 C 
ATOM     25  C   UNL     1       1.777   8.169  17.674  0.00  0.00    +0.000 C 
ATOM     26  C   UNL     1       2.187   6.757  18.102  0.00  0.00    +0.000 C 
ENDBRANCH  22  23
ENDBRANCH   3  22
TORSDOF 5
ENDMDL
MODEL 3
REMARK VINA RESULT:      -8.4      3.665      6.313
REMARK  Name = 
REMARK  5 active torsions:
REMARK  status: ('A' for Active; 'I' for Inactive)
REMARK    1  A    between atoms: C_2  and  C_3
REMARK    2  A    between atoms: N_9  and  C_10
REMARK    3  A    between atoms: N_9  and  C_20
REMARK    4  A    between atoms: C_10  and  C_11
REMARK    5  A    between atoms: C_20  and  C_21
REMARK                            x       y       z     vdW  Elec       q    Type
REMARK                         _______ _______ _______ _____ _____    ______ ____
ROOT
ATOM      1  O   UNL     1       7.809   4.198  17.927  0.00  0.00    +0.000 OA
ATOM      2  C   UNL     1       7.023   5.102  18.191  0.00  0.00    +0.000 C 
ATOM      3  N   UNL     1       5.708   4.818  18.673  0.00  0.00    +0.000 N 
ENDROOT
BRANCH   2   4
ATOM      4  C   UNL     1       7.461   6.507  18.035  0.00  0.00    +0.000 A 
ATOM      5  C   UNL     1       8.266   7.266  18.878  0.00  0.00    +0.000 A 
ATOM      6  C   UNL     1       8.346   8.543  18.289  0.00  0.00    +0.000 A 
ATOM      7 CL   UNL     1       9.131   9.908  18.915  0.00  0.00    +0.000 Cl
ATOM      8  N   UNL     1       7.700   8.597  17.126  0.00  0.00    +0.000 NA
ATOM      9  N   UNL     1       7.265   7.339  16.957  0.00  0.00    +0.000 N 
ATOM     10  H   UNL     1       6.799   7.134  16.077  0.00  0.00    +0.000 HD
ENDBRANCH   2   4
BRANCH   3  11
ATOM     11  C   UNL     1       5.162   3.379  18.576  0.00  0.00    +0.000 C 
BRANCH  11  12
ATOM     12  C   UNL     1       3.634   3.270  18.780  0.00  0.00    +0.000 A 
ATOM     13  C   UNL     1       2.933   3.049  17.593  0.00  0.00    +0.000 A 
ATOM     14  C   UNL     1       1.603   3.417  17.498  0.00  0.00    +0.000 A 
ATOM     15  C   UNL     1       0.853   2.790  18.435  0.00  0.00    +0.000 A 
ATOM     16  C   UNL     1       1.420   2.829  19.709  0.00  0.00    +0.000 A 
ATOM     17  N   UNL     1       0.803   2.553  20.897  0.00  0.00    +0.000 N 
ATOM     18  C   UNL     1       1.591   2.986  21.922  0.00  0.00    +0.000 A 
ATOM     19  C   UNL     1       2.831   3.335  21.378  0.00  0.00    +0.000 A 
ATOM     20  C   UNL     1       2.771   3.185  19.945  0.00  0.00    +0.000 A 
ATOM     21  H   UNL     1      -0.144   2.205  20.977  0.00  0.00    +0.000 HD
ENDBRANCH  11  12
ENDBRANCH   3  11
BRANCH   3  22
ATOM     22  C   UNL     1       4.866   5.950  19.081  0.00  0.00    +0.000 C 
BRANCH  22  23
ATOM     23  C   UNL     1       3.677   6.290  18.217  0.00  0.00    +0.000 C 
ATOM     24  C   UNL     1       2.432   6.888  18.899  0.00  0.00    +0.000 C 
ATOM     25  C   UNL     1       2.454   8.031  17.868  0.00  0.00    +0.000 C 
ATOM     26  C   UNL     1       3.913   7.682  17.560  0.00  0.00    +0.000 C 
ENDBRANCH  22  23
ENDBRANCH   3  22
TORSDOF 5
ENDMDL
MODEL 4
REMARK VINA RESULT:      -8.3      3.857      6.939
REMARK  Name = 
REMARK  5 active torsions:
REMARK  status: ('A' for Active; 'I' for Inactive)
REMARK    1  A    between atoms: C_2  and  C_3
REMARK    2  A    between atoms: N_9  and  C_10
REMARK    3  A    between atoms: N_9  and  C_20
REMARK    4  A    between atoms: C_10  and  C_11
REMARK    5  A    between atoms: C_20  and  C_21
REMARK                            x       y       z     vdW  Elec       q    Type
REMARK                         _______ _______ _______ _____ _____    ______ ____
ROOT
ATOM      1  O   UNL     1       7.756   4.837  18.008  0.00  0.00    +0.000 OA
ATOM      2  C   UNL     1       6.735   4.824  17.328  0.00  0.00    +0.000 C 
ATOM      3  N   UNL     1       5.445   4.923  17.933  0.00  0.00    +0.000 N 
ENDROOT
BRANCH   2   4
ATOM      4  C   UNL     1       6.851   4.733  15.856  0.00  0.00    +0.000 A 
ATOM      5  C   UNL     1       6.275   3.804  14.993  0.00  0.00    +0.000 A 
ATOM      6  C   UNL     1       6.727   4.143  13.703  0.00  0.00    +0.000 A 
ATOM      7 CL   UNL     1       6.414   3.310  12.262  0.00  0.00    +0.000 Cl
ATOM      8  N   UNL     1       7.484   5.239  13.711  0.00  0.00    +0.000 NA
ATOM      9  N   UNL     1       7.458   5.620  14.998  0.00  0.00    +0.000 N 
ATOM     10  H   UNL     1       7.920   6.498  15.220  0.00  0.00    +0.000 HD
ENDBRANCH   2   4
BRANCH   3  11
ATOM     11  C   UNL     1       5.310   4.741  19.459  0.00  0.00    +0.000 C 
BRANCH  11  12
ATOM     12  C   UNL     1       3.864   4.880  19.985  0.00  0.00    +0.000 A 
ATOM     13  C   UNL     1       3.251   6.074  19.603  0.00  0.00    +0.000 A 
ATOM     14  C   UNL     1       2.210   6.588  20.357  0.00  0.00    +0.000 A 
ATOM     15  C   UNL     1       1.182   5.709  20.435  0.00  0.00    +0.000 A 
ATOM     16  C   UNL     1       1.590   4.411  20.740  0.00  0.00    +0.000 A 
ATOM     17  N   UNL     1       0.804   3.376  21.165  0.00  0.00    +0.000 N 
ATOM     18  C   UNL     1       1.600   2.374  21.636  0.00  0.00    +0.000 A 
ATOM     19  C   UNL     1       2.919   2.690  21.292  0.00  0.00    +0.000 A 
ATOM     20  C   UNL     1       2.937   3.982  20.652  0.00  0.00    +0.000 A 
ATOM     21  H   UNL     1      -0.204   3.421  21.233  0.00  0.00    +0.000 HD
ENDBRANCH  11  12
ENDBRANCH   3  11
BRANCH   3  22
ATOM     22  C   UNL     1       4.276   5.020  17.049  0.00  0.00    +0.000 C 
BRANCH  22  23
ATOM     23  C   UNL     1       3.577   3.741  16.663  0.00  0.00    +0.000 C 
ATOM     24  C   UNL     1       3.821   2.491  17.528  0.00  0.00    +0.000 C 
ATOM     25  C   UNL     1       2.296   2.310  17.641  0.00  0.00    +0.000 C 
ATOM     26  C   UNL     1       2.123   3.772  17.221  0.00  0.00    +0.000 C 
ENDBRANCH  22  23
ENDBRANCH   3  22
TORSDOF 5
ENDMDL
MODEL 5
REMARK VINA RESULT:      -8.2      3.516      5.928
REMARK  Name = 
REMARK  5 active torsions:
REMARK  status: ('A' for Active; 'I' for Inactive)
REMARK    1  A    between atoms: C_2  and  C_3
REMARK    2  A    between atoms: N_9  and  C_10
REMARK    3  A    between atoms: N_9  and  C_20
REMARK    4  A    between atoms: C_10  and  C_11
REMARK    5  A    between atoms: C_20  and  C_21
REMARK                            x       y       z     vdW  Elec       q    Type
REMARK                         _______ _______ _______ _____ _____    ______ ____
ROOT
ATOM      1  O   UNL     1       7.456   4.431  18.116  0.00  0.00    +0.000 OA
ATOM      2  C   UNL     1       6.766   5.416  17.873  0.00  0.00    +0.000 C 
ATOM      3  N   UNL     1       5.368   5.290  17.609  0.00  0.00    +0.000 N 
ENDROOT
BRANCH   2   4
ATOM      4  C   UNL     1       7.394   6.756  17.885  0.00  0.00    +0.000 A 
ATOM      5  C   UNL     1       8.190   7.335  18.870  0.00  0.00    +0.000 A 
ATOM      6  C   UNL     1       8.498   8.629  18.406  0.00  0.00    +0.000 A 
ATOM      7 CL   UNL     1       9.374   9.824  19.226  0.00  0.00    +0.000 Cl
ATOM      8  N   UNL     1       7.999   8.855  17.192  0.00  0.00    +0.000 NA
ATOM      9  N   UNL     1       7.428   7.684  16.871  0.00  0.00    +0.000 N 
ATOM     10  H   UNL     1       7.042   7.609  15.933  0.00  0.00    +0.000 HD
ENDBRANCH   2   4
BRANCH   3  11
ATOM     11  C   UNL     1       4.775   3.895  17.325  0.00  0.00    +0.000 C 
BRANCH  11  12
ATOM     12  C   UNL     1       3.972   3.300  18.504  0.00  0.00    +0.000 A 
ATOM     13  C   UNL     1       4.753   3.050  19.633  0.00  0.00    +0.000 A 
ATOM     14  C   UNL     1       4.352   2.097  20.552  0.00  0.00    +0.000 A 
ATOM     15  C   UNL     1       3.134   2.393  21.064  0.00  0.00    +0.000 A 
ATOM     16  C   UNL     1       2.200   2.750  20.091  0.00  0.00    +0.000 A 
ATOM     17  N   UNL     1       0.843   2.824  20.235  0.00  0.00    +0.000 N 
ATOM     18  C   UNL     1       0.266   2.914  19.003  0.00  0.00    +0.000 A 
ATOM     19  C   UNL     1       1.291   3.129  18.076  0.00  0.00    +0.000 A 
ATOM     20  C   UNL     1       2.558   3.090  18.763  0.00  0.00    +0.000 A 
ATOM     21  H   UNL     1       0.358   2.697  21.115  0.00  0.00    +0.000 HD
ENDBRANCH  11  12
ENDBRANCH   3  11
BRANCH   3  22
ATOM     22  C   UNL     1       4.585   6.523  17.445  0.00  0.00    +0.000 C 
BRANCH  22  23
ATOM     23  C   UNL     1       3.174   6.537  17.977  0.00  0.00    +0.000 C 
ATOM     24  C   UNL     1       2.975   6.580  19.503  0.00  0.00    +0.000 C 
ATOM     25  C   UNL     1       2.028   7.778  19.315  0.00  0.00    +0.000 C 
ATOM     26  C   UNL     1       2.629   7.995  17.923  0.00  0.00    +0.000 C 
ENDBRANCH  22  23
ENDBRANCH   3  22
TORSDOF 5
ENDMDL
MODEL 6
REMARK VINA RESULT:      -8.1      3.021      6.827
REMARK  Name = 
REMARK  5 active torsions:
REMARK  status: ('A' for Active; 'I' for Inactive)
REMARK    1  A    between atoms: C_2  and  C_3
REMARK    2  A    between atoms: N_9  and  C_10
REMARK    3  A    between atoms: N_9  and  C_20
REMARK    4  A    between atoms: C_10  and  C_11
REMARK    5  A    between atoms: C_20  and  C_21
REMARK                            x       y       z     vdW  Elec       q    Type
REMARK                         _______ _______ _______ _____ _____    ______ ____
ROOT
ATOM      1  O   UNL     1       5.383   6.644  18.226  0.00  0.00    +0.000 OA
ATOM      2  C   UNL     1       4.670   5.765  17.755  0.00  0.00    +0.000 C 
ATOM      3  N   UNL     1       3.349   5.542  18.249  0.00  0.00    +0.000 N 
ENDROOT
BRANCH   2   4
ATOM      4  C   UNL     1       5.183   4.944  16.635  0.00  0.00    +0.000 A 
ATOM      5  C   UNL     1       5.374   5.310  15.305  0.00  0.00    +0.000 A 
ATOM      6  C   UNL     1       5.846   4.155  14.651  0.00  0.00    +0.000 A 
ATOM      7 CL   UNL     1       6.177   3.982  12.999  0.00  0.00    +0.000 Cl
ATOM      8  N   UNL     1       6.009   3.136  15.493  0.00  0.00    +0.000 NA
ATOM      9  N   UNL     1       5.697   3.669  16.685  0.00  0.00    +0.000 N 
ATOM     10  H   UNL     1       5.827   3.073  17.497  0.00  0.00    +0.000 HD
ENDBRANCH   2   4
BRANCH   3  11
ATOM     11  C   UNL     1       2.919   6.197  19.578  0.00  0.00    +0.000 C 
BRANCH  11  12
ATOM     12  C   UNL     1       2.211   7.560  19.409  0.00  0.00    +0.000 A 
ATOM     13  C   UNL     1       2.151   7.990  18.083  0.00  0.00    +0.000 A 
ATOM     14  C   UNL     1       2.029   9.339  17.799  0.00  0.00    +0.000 A 
ATOM     15  C   UNL     1       0.908   9.856  18.355  0.00  0.00    +0.000 A 
ATOM     16  C   UNL     1       0.732   9.482  19.688  0.00  0.00    +0.000 A 
ATOM     17  N   UNL     1      -0.115  10.047  20.599  0.00  0.00    +0.000 N 
ATOM     18  C   UNL     1       0.213   9.608  21.848  0.00  0.00    +0.000 A 
ATOM     19  C   UNL     1       1.139   8.570  21.696  0.00  0.00    +0.000 A 
ATOM     20  C   UNL     1       1.450   8.423  20.296  0.00  0.00    +0.000 A 
ATOM     21  H   UNL     1      -0.784  10.774  20.378  0.00  0.00    +0.000 HD
ENDBRANCH  11  12
ENDBRANCH   3  11
BRANCH   3  22
ATOM     22  C   UNL     1       2.511   4.553  17.557  0.00  0.00    +0.000 C 
BRANCH  22  23
ATOM     23  C   UNL     1       2.338   3.202  18.203  0.00  0.00    +0.000 C 
ATOM     24  C   UNL     1       3.176   2.883  19.455  0.00  0.00    +0.000 C 
ATOM     25  C   UNL     1       1.883   2.467  20.178  0.00  0.00    +0.000 C 
ATOM     26  C   UNL     1       1.084   3.240  19.125  0.00  0.00    +0.000 C 
ENDBRANCH  22  23
ENDBRANCH   3  22
TORSDOF 5
ENDMDL
MODEL 7
REMARK VINA RESULT:      -8.0      1.177      2.048
REMARK  Name = 
REMARK  5 active torsions:
REMARK  status: ('A' for Active; 'I' for Inactive)
REMARK    1  A    between atoms: C_2  and  C_3
REMARK    2  A    between atoms: N_9  and  C_10
REMARK    3  A    between atoms: N_9  and  C_20
REMARK    4  A    between atoms: C_10  and  C_11
REMARK    5  A    between atoms: C_20  and  C_21
REMARK                            x       y       z     vdW  Elec       q    Type
REMARK                         _______ _______ _______ _____ _____    ______ ____
ROOT
ATOM      1  O   UNL     1       2.628   7.874  17.498  0.00  0.00    +0.000 OA
ATOM      2  C   UNL     1       2.396   7.340  18.577  0.00  0.00    +0.000 C 
ATOM      3  N   UNL     1       2.668   5.954  18.787  0.00  0.00    +0.000 N 
ENDROOT
BRANCH   2   4
ATOM      4  C   UNL     1       1.853   8.158  19.684  0.00  0.00    +0.000 A 
ATOM      5  C   UNL     1       1.104   9.329  19.615  0.00  0.00    +0.000 A 
ATOM      6  C   UNL     1       0.873   9.720  20.948  0.00  0.00    +0.000 A 
ATOM      7 CL   UNL     1       0.080  11.119  21.478  0.00  0.00    +0.000 Cl
ATOM      8  N   UNL     1       1.375   8.845  21.818  0.00  0.00    +0.000 NA
ATOM      9  N   UNL     1       1.868   7.877  21.031  0.00  0.00    +0.000 N 
ATOM     10  H   UNL     1       2.241   7.056  21.500  0.00  0.00    +0.000 HD
ENDBRANCH   2   4
BRANCH   3  11
ATOM     11  C   UNL     1       2.968   5.050  17.574  0.00  0.00    +0.000 C 
BRANCH  11  12
ATOM     12  C   UNL     1       4.474   4.874  17.275  0.00  0.00    +0.000 A 
ATOM     13  C   UNL     1       4.738   4.550  15.944  0.00  0.00    +0.000 A 
ATOM     14  C   UNL     1       5.905   3.883  15.614  0.00  0.00    +0.000 A 
ATOM     15  C   UNL     1       6.996   4.589  15.995  0.00  0.00    +0.000 A 
ATOM     16  C   UNL     1       6.906   5.079  17.298  0.00  0.00    +0.000 A 
ATOM     17  N   UNL     1       7.923   5.568  18.069  0.00  0.00    +0.000 N 
ATOM     18  C   UNL     1       7.499   5.666  19.361  0.00  0.00    +0.000 A 
ATOM     19  C   UNL     1       6.117   5.449  19.365  0.00  0.00    +0.000 A 
ATOM     20  C   UNL     1       5.692   5.125  18.026  0.00  0.00    +0.000 A 
ATOM     21  H   UNL     1       8.871   5.703  17.739  0.00  0.00    +0.000 HD
ENDBRANCH  11  12
ENDBRANCH   3  11
BRANCH   3  22
ATOM     22  C   UNL     1       2.477   5.412  20.139  0.00  0.00    +0.000 C 
BRANCH  22  23
ATOM     23  C   UNL     1       2.401   3.914  20.293  0.00  0.00    +0.000 C 
ATOM     24  C   UNL     1       2.524   3.322  21.710  0.00  0.00    +0.000 C 
ATOM     25  C   UNL     1       1.232   2.525  21.456  0.00  0.00    +0.000 C 
ATOM     26  C   UNL     1       0.905   3.482  20.307  0.00  0.00    +0.000 C 
ENDBRANCH  22  23
ENDBRANCH   3  22
TORSDOF 5
ENDMDL
MODEL 8
REMARK VINA RESULT:      -8.0      3.470      6.974
REMARK  Name = 
REMARK  5 active torsions:
REMARK  status: ('A' for Active; 'I' for Inactive)
REMARK    1  A    between atoms: C_2  and  C_3
REMARK    2  A    between atoms: N_9  and  C_10
REMARK    3  A    between atoms: N_9  and  C_20
REMARK    4  A    between atoms: C_10  and  C_11
REMARK    5  A    between atoms: C_20  and  C_21
REMARK                            x       y       z     vdW  Elec       q    Type
REMARK                         _______ _______ _______ _____ _____    ______ ____
ROOT
ATOM      1  O   UNL     1       3.765   3.221  16.643  0.00  0.00    +0.000 OA
ATOM      2  C   UNL     1       4.835   3.814  16.725  0.00  0.00    +0.000 C 
ATOM      3  N   UNL     1       5.452   4.051  17.992  0.00  0.00    +0.000 N 
ENDROOT
BRANCH   2   4
ATOM      4  C   UNL     1       5.508   4.263  15.486  0.00  0.00    +0.000 A 
ATOM      5  C   UNL     1       5.842   3.518  14.359  0.00  0.00    +0.000 A 
ATOM      6  C   UNL     1       6.494   4.410  13.485  0.00  0.00    +0.000 A 
ATOM      7 CL   UNL     1       7.195   4.041  11.988  0.00  0.00    +0.000 Cl
ATOM      8  N   UNL     1       6.528   5.649  13.972  0.00  0.00    +0.000 NA
ATOM      9  N   UNL     1       5.845   5.546  15.123  0.00  0.00    +0.000 N 
ATOM     10  H   UNL     1       5.682   6.410  15.633  0.00  0.00    +0.000 HD
ENDBRANCH   2   4
BRANCH   3  11
ATOM     11  C   UNL     1       4.635   3.835  19.283  0.00  0.00    +0.000 C 
BRANCH  11  12
ATOM     12  C   UNL     1       3.514   4.876  19.501  0.00  0.00    +0.000 A 
ATOM     13  C   UNL     1       2.741   4.624  20.635  0.00  0.00    +0.000 A 
ATOM     14  C   UNL     1       1.448   5.111  20.711  0.00  0.00    +0.000 A 
ATOM     15  C   UNL     1       1.426   6.461  20.600  0.00  0.00    +0.000 A 
ATOM     16  C   UNL     1       2.210   6.939  19.551  0.00  0.00    +0.000 A 
ATOM     17  N   UNL     1       2.179   8.189  18.999  0.00  0.00    +0.000 N 
ATOM     18  C   UNL     1       2.868   8.177  17.823  0.00  0.00    +0.000 A 
ATOM     19  C   UNL     1       3.539   6.952  17.744  0.00  0.00    +0.000 A 
ATOM     20  C   UNL     1       3.179   6.148  18.885  0.00  0.00    +0.000 A 
ATOM     21  H   UNL     1       1.618   8.953  19.355  0.00  0.00    +0.000 HD
ENDBRANCH  11  12
ENDBRANCH   3  11
BRANCH   3  22
ATOM     22  C   UNL     1       6.788   4.661  18.004  0.00  0.00    +0.000 C 
BRANCH  22  23
ATOM     23  C   UNL     1       6.934   6.026  18.629  0.00  0.00    +0.000 C 
ATOM     24  C   UNL     1       8.279   6.381  19.291  0.00  0.00    +0.000 C 
ATOM     25  C   UNL     1       8.310   7.677  18.460  0.00  0.00    +0.000 C 
ATOM     26  C   UNL     1       7.277   7.058  17.514  0.00  0.00    +0.000 C 
ENDBRANCH  22  23
ENDBRANCH   3  22
TORSDOF 5
ENDMDL
MODEL 9
REMARK VINA RESULT:      -7.9      1.047      1.108
REMARK  Name = 
REMARK  5 active torsions:
REMARK  status: ('A' for Active; 'I' for Inactive)
REMARK    1  A    between atoms: C_2  and  C_3
REMARK    2  A    between atoms: N_9  and  C_10
REMARK    3  A    between atoms: N_9  and  C_20
REMARK    4  A    between atoms: C_10  and  C_11
REMARK    5  A    between atoms: C_20  and  C_21
REMARK                            x       y       z     vdW  Elec       q    Type
REMARK                         _______ _______ _______ _____ _____    ______ ____
ROOT
ATOM      1  O   UNL     1       3.650   7.513  17.943  0.00  0.00    +0.000 OA
ATOM      2  C   UNL     1       2.862   6.986  18.721  0.00  0.00    +0.000 C 
ATOM      3  N   UNL     1       2.692   5.568  18.750  0.00  0.00    +0.000 N 
ENDROOT
BRANCH   2   4
ATOM      4  C   UNL     1       2.101   7.836  19.664  0.00  0.00    +0.000 A 
ATOM      5  C   UNL     1       1.209   8.866  19.380  0.00  0.00    +0.000 A 
ATOM      6  C   UNL     1       0.791   9.369  20.627  0.00  0.00    +0.000 A 
ATOM      7 CL   UNL     1      -0.237  10.687  20.903  0.00  0.00    +0.000 Cl
ATOM      8  N   UNL     1       1.315   8.685  21.642  0.00  0.00    +0.000 NA
ATOM      9  N   UNL     1       2.015   7.717  21.031  0.00  0.00    +0.000 N 
ATOM     10  H   UNL     1       2.446   7.020  21.633  0.00  0.00    +0.000 HD
ENDBRANCH   2   4
BRANCH   3  11
ATOM     11  C   UNL     1       3.267   4.714  17.601  0.00  0.00    +0.000 C 
BRANCH  11  12
ATOM     12  C   UNL     1       4.799   4.830  17.435  0.00  0.00    +0.000 A 
ATOM     13  C   UNL     1       5.496   4.688  18.635  0.00  0.00    +0.000 A 
ATOM     14  C   UNL     1       6.757   5.241  18.771  0.00  0.00    +0.000 A 
ATOM     15  C   UNL     1       7.611   4.747  17.843  0.00  0.00    +0.000 A 
ATOM     16  C   UNL     1       7.074   4.730  16.556  0.00  0.00    +0.000 A 
ATOM     17  N   UNL     1       7.752   4.570  15.380  0.00  0.00    +0.000 N 
ATOM     18  C   UNL     1       6.934   4.905  14.342  0.00  0.00    +0.000 A 
ATOM     19  C   UNL     1       5.644   5.062  14.860  0.00  0.00    +0.000 A 
ATOM     20  C   UNL     1       5.692   4.893  16.291  0.00  0.00    +0.000 A 
ATOM     21  H   UNL     1       8.741   4.363  15.319  0.00  0.00    +0.000 HD
ENDBRANCH  11  12
ENDBRANCH   3  11
BRANCH   3  22
ATOM     22  C   UNL     1       1.822   4.999  19.788  0.00  0.00    +0.000 C 
BRANCH  22  23
ATOM     23  C   UNL     1       1.847   3.505  19.987  0.00  0.00    +0.000 C 
ATOM     24  C   UNL     1       3.114   2.875  20.596  0.00  0.00    +0.000 C 
ATOM     25  C   UNL     1       2.225   2.159  21.629  0.00  0.00    +0.000 C 
ATOM     26  C   UNL     1       1.109   3.160  21.315  0.00  0.00    +0.000 C 
ENDBRANCH  22  23
ENDBRANCH   3  22
TORSDOF 5
ENDMDL
