MODEL 1
REMARK VINA RESULT:      -9.8      0.000      0.000
REMARK  Name = 
REMARK  4 active torsions:
REMARK  status: ('A' for Active; 'I' for Inactive)
REMARK    1  A    between atoms: C_6  and  N_7
REMARK    2  A    between atoms: C_15  and  O_16
REMARK    3  A    between atoms: O_16  and  C_17
REMARK    4  A    between atoms: C_23  and  C_24
REMARK                            x       y       z     vdW  Elec       q    Type
REMARK                         _______ _______ _______ _____ _____    ______ ____
ROOT
ATOM      1  N   UNL     1       1.869   7.328  20.037  0.00  0.00    +0.000 N 
ATOM      2  C   UNL     1       2.270   7.147  18.626  0.00  0.00    +0.000 C 
ATOM      3  C   UNL     1       3.552   6.315  18.552  0.00  0.00    +0.000 C 
ATOM      4  C   UNL     1       3.411   5.032  19.308  0.00  0.00    +0.000 A 
ATOM      5  C   UNL     1       2.486   4.911  20.342  0.00  0.00    +0.000 A 
ATOM      6  N   UNL     1       2.317   3.763  21.039  0.00  0.00    +0.000 NA
ATOM      7  C   UNL     1       3.134   2.753  20.735  0.00  0.00    +0.000 A 
ATOM      8  N   UNL     1       4.090   2.780  19.804  0.00  0.00    +0.000 NA
ATOM      9  C   UNL     1       4.191   3.908  19.075  0.00  0.00    +0.000 A 
ATOM     10  C   UNL     1       1.539   6.048  20.703  0.00  0.00    +0.000 C 
ENDROOT
BRANCH   1  16
ATOM     11  O   UNL     1      -0.100  11.806  19.763  0.00  0.00    +0.000 OA
ATOM     12  C   UNL     1       0.335  10.841  20.387  0.00  0.00    +0.000 A 
ATOM     13  N   UNL     1       0.446  10.875  21.751  0.00  0.00    +0.000 N 
ATOM     14  N   UNL     1       0.875   9.857  22.532  0.00  0.00    +0.000 NA
ATOM     15  C   UNL     1       1.262   8.792  21.911  0.00  0.00    +0.000 A 
ATOM     16  C   UNL     1       1.312   8.561  20.432  0.00  0.00    +0.000 A 
ATOM     17  C   UNL     1       0.797   9.583  19.721  0.00  0.00    +0.000 A 
ATOM     18 CL   UNL     1       0.737   9.602  17.991  0.00  0.00    +0.000 Cl
ATOM     19  H   UNL     1       0.140  11.720  22.225  0.00  0.00    +0.000 HD
ENDBRANCH   1  16
BRANCH   9  20
ATOM     20  O   UNL     1       5.116   3.935  18.022  0.00  0.00    +0.000 OA
BRANCH  20  21
ATOM     21  C   UNL     1       6.104   4.906  18.089  0.00  0.00    +0.000 A 
ATOM     22  C   UNL     1       6.884   5.039  19.255  0.00  0.00    +0.000 A 
ATOM     23  C   UNL     1       7.787   6.090  19.393  0.00  0.00    +0.000 A 
ATOM     24  C   UNL     1       7.961   6.974  18.343  0.00  0.00    +0.000 A 
ATOM     25  F   UNL     1       8.805   8.004  18.478  0.00  0.00    +0.000 F 
ATOM     26  C   UNL     1       7.275   6.800  17.145  0.00  0.00    +0.000 A 
ATOM     27  C   UNL     1       6.344   5.748  16.992  0.00  0.00    +0.000 A 
BRANCH  27  28
ATOM     28  C   UNL     1       5.675   5.602  15.654  0.00  0.00    +0.000 C 
ATOM     29  F   UNL     1       6.505   5.369  14.603  0.00  0.00    +0.000 F 
ATOM     30  F   UNL     1       4.757   4.595  15.637  0.00  0.00    +0.000 F 
ATOM     31  F   UNL     1       4.978   6.729  15.322  0.00  0.00    +0.000 F 
ENDBRANCH  27  28
ENDBRANCH  20  21
ENDBRANCH   9  20
TORSDOF 4
ENDMDL
MODEL 2
REMARK VINA RESULT:      -9.5      1.356      1.687
REMARK  Name = 
REMARK  4 active torsions:
REMARK  status: ('A' for Active; 'I' for Inactive)
REMARK    1  A    between atoms: C_6  and  N_7
REMARK    2  A    between atoms: C_15  and  O_16
REMARK    3  A    between atoms: O_16  and  C_17
REMARK    4  A    between atoms: C_23  and  C_24
REMARK                            x       y       z     vdW  Elec       q    Type
REMARK                         _______ _______ _______ _____ _____    ______ ____
ROOT
ATOM      1  N   UNL     1       1.629   8.003  19.740  0.00  0.00    +0.000 N 
ATOM      2  C   UNL     1       2.040   7.672  18.359  0.00  0.00    +0.000 C 
ATOM      3  C   UNL     1       3.256   6.745  18.385  0.00  0.00    +0.000 C 
ATOM      4  C   UNL     1       3.007   5.545  19.243  0.00  0.00    +0.000 A 
ATOM      5  C   UNL     1       2.058   5.582  20.262  0.00  0.00    +0.000 A 
ATOM      6  N   UNL     1       1.792   4.514  21.049  0.00  0.00    +0.000 NA
ATOM      7  C   UNL     1       2.536   3.424  20.850  0.00  0.00    +0.000 A 
ATOM      8  N   UNL     1       3.506   3.300  19.943  0.00  0.00    +0.000 NA
ATOM      9  C   UNL     1       3.704   4.351  19.123  0.00  0.00    +0.000 A 
ATOM     10  C   UNL     1       1.193   6.813  20.504  0.00  0.00    +0.000 C 
ENDROOT
BRANCH   1  16
ATOM     11  O   UNL     1       0.041  11.907  22.237  0.00  0.00    +0.000 OA
ATOM     12  C   UNL     1       0.324  11.317  21.197  0.00  0.00    +0.000 A 
ATOM     13  N   UNL     1       0.095  11.893  19.975  0.00  0.00    +0.000 N 
ATOM     14  N   UNL     1       0.405  11.346  18.777  0.00  0.00    +0.000 NA
ATOM     15  C   UNL     1       0.905  10.155  18.811  0.00  0.00    +0.000 A 
ATOM     16  C   UNL     1       1.160   9.302  20.016  0.00  0.00    +0.000 A 
ATOM     17  C   UNL     1       0.904   9.938  21.176  0.00  0.00    +0.000 A 
ATOM     18 CL   UNL     1       1.093   9.196  22.728  0.00  0.00    +0.000 Cl
ATOM     19  H   UNL     1      -0.300  12.829  19.965  0.00  0.00    +0.000 HD
ENDBRANCH   1  16
BRANCH   9  20
ATOM     20  O   UNL     1       4.646   4.220  18.094  0.00  0.00    +0.000 OA
BRANCH  20  21
ATOM     21  C   UNL     1       5.769   5.029  18.172  0.00  0.00    +0.000 A 
ATOM     22  C   UNL     1       6.487   5.123  19.381  0.00  0.00    +0.000 A 
ATOM     23  C   UNL     1       7.534   6.030  19.520  0.00  0.00    +0.000 A 
ATOM     24  C   UNL     1       7.910   6.801  18.434  0.00  0.00    +0.000 A 
ATOM     25  F   UNL     1       8.897   7.695  18.567  0.00  0.00    +0.000 F 
ATOM     26  C   UNL     1       7.281   6.649  17.203  0.00  0.00    +0.000 A 
ATOM     27  C   UNL     1       6.206   5.745  17.047  0.00  0.00    +0.000 A 
BRANCH  27  28
ATOM     28  C   UNL     1       5.606   5.610  15.675  0.00  0.00    +0.000 C 
ATOM     29  F   UNL     1       4.794   4.534  15.493  0.00  0.00    +0.000 F 
ATOM     30  F   UNL     1       4.869   6.700  15.319  0.00  0.00    +0.000 F 
ATOM     31  F   UNL     1       6.574   5.500  14.718  0.00  0.00    +0.000 F 
ENDBRANCH  27  28
ENDBRANCH  20  21
ENDBRANCH   9  20
TORSDOF 4
ENDMDL
MODEL 3
REMARK VINA RESULT:      -9.4      4.785      8.877
REMARK  Name = 
REMARK  4 active torsions:
REMARK  status: ('A' for Active; 'I' for Inactive)
REMARK    1  A    between atoms: C_6  and  N_7
REMARK    2  A    between atoms: C_15  and  O_16
REMARK    3  A    between atoms: O_16  and  C_17
REMARK    4  A    between atoms: C_23  and  C_24
REMARK                            x       y       z     vdW  Elec       q    Type
REMARK                         _______ _______ _______ _____ _____    ______ ____
ROOT
ATOM      1  N   UNL     1       2.646   6.752  18.580  0.00  0.00    +0.000 N 
ATOM      2  C   UNL     1       2.792   8.011  17.819  0.00  0.00    +0.000 C 
ATOM      3  C   UNL     1       1.516   8.846  17.946  0.00  0.00    +0.000 C 
ATOM      4  C   UNL     1       1.139   9.049  19.379  0.00  0.00    +0.000 A 
ATOM      5  C   UNL     1       1.562   8.156  20.360  0.00  0.00    +0.000 A 
ATOM      6  N   UNL     1       1.255   8.312  21.669  0.00  0.00    +0.000 NA
ATOM      7  C   UNL     1       0.460   9.338  21.979  0.00  0.00    +0.000 A 
ATOM      8  N   UNL     1      -0.046  10.218  21.113  0.00  0.00    +0.000 NA
ATOM      9  C   UNL     1       0.331  10.084  19.827  0.00  0.00    +0.000 A 
ATOM     10  C   UNL     1       2.475   6.981  20.032  0.00  0.00    +0.000 C 
ENDROOT
BRANCH   1  16
ATOM     11  O   UNL     1       3.292   2.008  17.540  0.00  0.00    +0.000 OA
ATOM     12  C   UNL     1       3.626   3.190  17.500  0.00  0.00    +0.000 A 
ATOM     13  N   UNL     1       4.817   3.568  16.941  0.00  0.00    +0.000 N 
ATOM     14  N   UNL     1       5.259   4.840  16.813  0.00  0.00    +0.000 NA
ATOM     15  C   UNL     1       4.502   5.755  17.322  0.00  0.00    +0.000 A 
ATOM     16  C   UNL     1       3.207   5.572  18.054  0.00  0.00    +0.000 A 
ATOM     17  C   UNL     1       2.790   4.291  18.073  0.00  0.00    +0.000 A 
ATOM     18 CL   UNL     1       1.336   3.778  18.860  0.00  0.00    +0.000 Cl
ATOM     19  H   UNL     1       5.402   2.837  16.547  0.00  0.00    +0.000 HD
ENDBRANCH   1  16
BRANCH   9  20
ATOM     20  O   UNL     1      -0.101  11.049  18.906  0.00  0.00    +0.000 OA
BRANCH  20  21
ATOM     21  C   UNL     1      -1.430  10.985  18.516  0.00  0.00    +0.000 A 
ATOM     22  C   UNL     1      -1.857   9.974  17.631  0.00  0.00    +0.000 A 
ATOM     23  C   UNL     1      -3.153   9.973  17.123  0.00  0.00    +0.000 A 
ATOM     24  C   UNL     1      -4.046  10.942  17.545  0.00  0.00    +0.000 A 
ATOM     25  F   UNL     1      -5.285  10.965  17.040  0.00  0.00    +0.000 F 
ATOM     26  C   UNL     1      -3.674  11.887  18.495  0.00  0.00    +0.000 A 
ATOM     27  C   UNL     1      -2.359  11.913  19.011  0.00  0.00    +0.000 A 
BRANCH  27  28
ATOM     28  C   UNL     1      -2.046  12.939  20.064  0.00  0.00    +0.000 C 
ATOM     29  F   UNL     1      -1.749  12.446  21.296  0.00  0.00    +0.000 F 
ATOM     30  F   UNL     1      -0.998  13.739  19.719  0.00  0.00    +0.000 F 
ATOM     31  F   UNL     1      -3.098  13.789  20.258  0.00  0.00    +0.000 F 
ENDBRANCH  27  28
ENDBRANCH  20  21
ENDBRANCH   9  20
TORSDOF 4
ENDMDL
MODEL 4
REMARK VINA RESULT:      -9.4      1.183      2.505
REMARK  Name = 
REMARK  4 active torsions:
REMARK  status: ('A' for Active; 'I' for Inactive)
REMARK    1  A    between atoms: C_6  and  N_7
REMARK    2  A    between atoms: C_15  and  O_16
REMARK    3  A    between atoms: O_16  and  C_17
REMARK    4  A    between atoms: C_23  and  C_24
REMARK                            x       y       z     vdW  Elec       q    Type
REMARK                         _______ _______ _______ _____ _____    ______ ____
ROOT
ATOM      1  N   UNL     1       1.883   7.268  20.142  0.00  0.00    +0.000 N 
ATOM      2  C   UNL     1       2.910   7.213  19.080  0.00  0.00    +0.000 C 
ATOM      3  C   UNL     1       3.987   6.191  19.449  0.00  0.00    +0.000 C 
ATOM      4  C   UNL     1       3.385   4.860  19.774  0.00  0.00    +0.000 A 
ATOM      5  C   UNL     1       2.064   4.762  20.205  0.00  0.00    +0.000 A 
ATOM      6  N   UNL     1       1.478   3.577  20.493  0.00  0.00    +0.000 NA
ATOM      7  C   UNL     1       2.250   2.491  20.411  0.00  0.00    +0.000 A 
ATOM      8  N   UNL     1       3.538   2.479  20.063  0.00  0.00    +0.000 NA
ATOM      9  C   UNL     1       4.080   3.661  19.711  0.00  0.00    +0.000 A 
ATOM     10  C   UNL     1       1.162   5.986  20.301  0.00  0.00    +0.000 C 
ENDROOT
BRANCH   1  16
ATOM     11  O   UNL     1      -0.092  11.721  19.627  0.00  0.00    +0.000 OA
ATOM     12  C   UNL     1       0.328  10.784  20.303  0.00  0.00    +0.000 A 
ATOM     13  N   UNL     1       0.400  10.875  21.667  0.00  0.00    +0.000 N 
ATOM     14  N   UNL     1       0.809   9.892  22.501  0.00  0.00    +0.000 NA
ATOM     15  C   UNL     1       1.217   8.804  21.936  0.00  0.00    +0.000 A 
ATOM     16  C   UNL     1       1.311   8.513  20.469  0.00  0.00    +0.000 A 
ATOM     17  C   UNL     1       0.814   9.503  19.703  0.00  0.00    +0.000 A 
ATOM     18 CL   UNL     1       0.804   9.451  17.972  0.00  0.00    +0.000 Cl
ATOM     19  H   UNL     1       0.077  11.737  22.097  0.00  0.00    +0.000 HD
ENDBRANCH   1  16
BRANCH   9  20
ATOM     20  O   UNL     1       5.402   3.672  19.245  0.00  0.00    +0.000 OA
BRANCH  20  21
ATOM     21  C   UNL     1       5.600   4.124  17.950  0.00  0.00    +0.000 A 
ATOM     22  C   UNL     1       4.706   3.747  16.927  0.00  0.00    +0.000 A 
ATOM     23  C   UNL     1       4.962   4.078  15.599  0.00  0.00    +0.000 A 
ATOM     24  C   UNL     1       6.077   4.840  15.294  0.00  0.00    +0.000 A 
ATOM     25  F   UNL     1       6.345   5.139  14.017  0.00  0.00    +0.000 F 
ATOM     26  C   UNL     1       6.915   5.308  16.300  0.00  0.00    +0.000 A 
ATOM     27  C   UNL     1       6.680   4.970  17.652  0.00  0.00    +0.000 A 
BRANCH  27  28
ATOM     28  C   UNL     1       7.607   5.548  18.684  0.00  0.00    +0.000 C 
ATOM     29  F   UNL     1       7.059   5.771  19.908  0.00  0.00    +0.000 F 
ATOM     30  F   UNL     1       8.700   4.763  18.900  0.00  0.00    +0.000 F 
ATOM     31  F   UNL     1       8.105   6.756  18.285  0.00  0.00    +0.000 F 
ENDBRANCH  27  28
ENDBRANCH  20  21
ENDBRANCH   9  20
TORSDOF 4
ENDMDL
MODEL 5
REMARK VINA RESULT:      -9.4      4.569      8.866
REMARK  Name = 
REMARK  4 active torsions:
REMARK  status: ('A' for Active; 'I' for Inactive)
REMARK    1  A    between atoms: C_6  and  N_7
REMARK    2  A    between atoms: C_15  and  O_16
REMARK    3  A    between atoms: O_16  and  C_17
REMARK    4  A    between atoms: C_23  and  C_24
REMARK                            x       y       z     vdW  Elec       q    Type
REMARK                         _______ _______ _______ _____ _____    ______ ____
ROOT
ATOM      1  N   UNL     1       2.373   7.387  18.584  0.00  0.00    +0.000 N 
ATOM      2  C   UNL     1       2.432   8.680  17.870  0.00  0.00    +0.000 C 
ATOM      3  C   UNL     1       1.095   9.411  18.006  0.00  0.00    +0.000 C 
ATOM      4  C   UNL     1       0.685   9.533  19.439  0.00  0.00    +0.000 A 
ATOM      5  C   UNL     1       1.163   8.639  20.396  0.00  0.00    +0.000 A 
ATOM      6  N   UNL     1       0.829   8.725  21.704  0.00  0.00    +0.000 NA
ATOM      7  C   UNL     1      -0.046   9.676  22.038  0.00  0.00    +0.000 A 
ATOM      8  N   UNL     1      -0.608  10.545  21.195  0.00  0.00    +0.000 NA
ATOM      9  C   UNL     1      -0.205  10.487  19.911  0.00  0.00    +0.000 A 
ATOM     10  C   UNL     1       2.167   7.551  20.040  0.00  0.00    +0.000 C 
ENDROOT
BRANCH   1  16
ATOM     11  O   UNL     1       3.479   2.737  17.509  0.00  0.00    +0.000 OA
ATOM     12  C   UNL     1       3.676   3.948  17.449  0.00  0.00    +0.000 A 
ATOM     13  N   UNL     1       4.783   4.452  16.819  0.00  0.00    +0.000 N 
ATOM     14  N   UNL     1       5.072   5.764  16.664  0.00  0.00    +0.000 NA
ATOM     15  C   UNL     1       4.250   6.594  17.217  0.00  0.00    +0.000 A 
ATOM     16  C   UNL     1       3.030   6.273  18.025  0.00  0.00    +0.000 A 
ATOM     17  C   UNL     1       2.759   4.954  18.070  0.00  0.00    +0.000 A 
ATOM     18 CL   UNL     1       1.421   4.288  18.944  0.00  0.00    +0.000 Cl
ATOM     19  H   UNL     1       5.421   3.787  16.391  0.00  0.00    +0.000 HD
ENDBRANCH   1  16
BRANCH   9  20
ATOM     20  O   UNL     1      -0.698  11.449  19.018  0.00  0.00    +0.000 OA
BRANCH  20  21
ATOM     21  C   UNL     1      -2.007  11.862  19.210  0.00  0.00    +0.000 A 
ATOM     22  C   UNL     1      -2.323  12.734  20.272  0.00  0.00    +0.000 A 
ATOM     23  C   UNL     1      -3.646  13.053  20.563  0.00  0.00    +0.000 A 
ATOM     24  C   UNL     1      -4.655  12.554  19.758  0.00  0.00    +0.000 A 
ATOM     25  F   UNL     1      -5.932  12.833  20.048  0.00  0.00    +0.000 F 
ATOM     26  C   UNL     1      -4.357  11.776  18.645  0.00  0.00    +0.000 A 
ATOM     27  C   UNL     1      -3.021  11.429  18.342  0.00  0.00    +0.000 A 
BRANCH  27  28
ATOM     28  C   UNL     1      -2.778  10.619  17.099  0.00  0.00    +0.000 C 
ATOM     29  F   UNL     1      -2.074   9.469  17.276  0.00  0.00    +0.000 F 
ATOM     30  F   UNL     1      -3.937  10.256  16.479  0.00  0.00    +0.000 F 
ATOM     31  F   UNL     1      -2.079  11.333  16.168  0.00  0.00    +0.000 F 
ENDBRANCH  27  28
ENDBRANCH  20  21
ENDBRANCH   9  20
TORSDOF 4
ENDMDL
MODEL 6
REMARK VINA RESULT:      -9.3      4.895      8.992
REMARK  Name = 
REMARK  4 active torsions:
REMARK  status: ('A' for Active; 'I' for Inactive)
REMARK    1  A    between atoms: C_6  and  N_7
REMARK    2  A    between atoms: C_15  and  O_16
REMARK    3  A    between atoms: O_16  and  C_17
REMARK    4  A    between atoms: C_23  and  C_24
REMARK                            x       y       z     vdW  Elec       q    Type
REMARK                         _______ _______ _______ _____ _____    ______ ____
ROOT
ATOM      1  N   UNL     1       2.428   6.967  18.524  0.00  0.00    +0.000 N 
ATOM      2  C   UNL     1       2.509   8.236  17.772  0.00  0.00    +0.000 C 
ATOM      3  C   UNL     1       1.239   9.058  17.999  0.00  0.00    +0.000 C 
ATOM      4  C   UNL     1       0.961   9.239  19.457  0.00  0.00    +0.000 A 
ATOM      5  C   UNL     1       1.461   8.337  20.395  0.00  0.00    +0.000 A 
ATOM      6  N   UNL     1       1.246   8.474  21.724  0.00  0.00    +0.000 NA
ATOM      7  C   UNL     1       0.466   9.488  22.103  0.00  0.00    +0.000 A 
ATOM      8  N   UNL     1      -0.108  10.374  21.286  0.00  0.00    +0.000 NA
ATOM      9  C   UNL     1       0.179  10.260  19.975  0.00  0.00    +0.000 A 
ATOM     10  C   UNL     1       2.359   7.176  19.987  0.00  0.00    +0.000 C 
ENDROOT
BRANCH   1  16
ATOM     11  O   UNL     1       5.578   3.925  16.326  0.00  0.00    +0.000 OA
ATOM     12  C   UNL     1       4.482   4.200  16.811  0.00  0.00    +0.000 A 
ATOM     13  N   UNL     1       3.444   3.308  16.757  0.00  0.00    +0.000 N 
ATOM     14  N   UNL     1       2.216   3.496  17.292  0.00  0.00    +0.000 NA
ATOM     15  C   UNL     1       2.010   4.646  17.845  0.00  0.00    +0.000 A 
ATOM     16  C   UNL     1       2.962   5.799  17.943  0.00  0.00    +0.000 A 
ATOM     17  C   UNL     1       4.187   5.514  17.462  0.00  0.00    +0.000 A 
ATOM     18 CL   UNL     1       5.486   6.658  17.431  0.00  0.00    +0.000 Cl
ATOM     19  H   UNL     1       3.621   2.409  16.317  0.00  0.00    +0.000 HD
ENDBRANCH   1  16
BRANCH   9  20
ATOM     20  O   UNL     1      -0.326  11.232  19.100  0.00  0.00    +0.000 OA
BRANCH  20  21
ATOM     21  C   UNL     1      -1.663  11.120  18.750  0.00  0.00    +0.000 A 
ATOM     22  C   UNL     1      -2.086  10.072  17.908  0.00  0.00    +0.000 A 
ATOM     23  C   UNL     1      -3.395  10.020  17.437  0.00  0.00    +0.000 A 
ATOM     24  C   UNL     1      -4.303  10.977  17.856  0.00  0.00    +0.000 A 
ATOM     25  F   UNL     1      -5.556  10.950  17.387  0.00  0.00    +0.000 F 
ATOM     26  C   UNL     1      -3.931  11.959  18.768  0.00  0.00    +0.000 A 
ATOM     27  C   UNL     1      -2.603  12.037  19.245  0.00  0.00    +0.000 A 
BRANCH  27  28
ATOM     28  C   UNL     1      -2.291  13.102  20.258  0.00  0.00    +0.000 C 
ATOM     29  F   UNL     1      -1.992  12.656  21.507  0.00  0.00    +0.000 F 
ATOM     30  F   UNL     1      -1.244  13.889  19.881  0.00  0.00    +0.000 F 
ATOM     31  F   UNL     1      -3.344  13.957  20.422  0.00  0.00    +0.000 F 
ENDBRANCH  27  28
ENDBRANCH  20  21
ENDBRANCH   9  20
TORSDOF 4
ENDMDL
MODEL 7
REMARK VINA RESULT:      -9.3      4.467      8.781
REMARK  Name = 
REMARK  4 active torsions:
REMARK  status: ('A' for Active; 'I' for Inactive)
REMARK    1  A    between atoms: C_6  and  N_7
REMARK    2  A    between atoms: C_15  and  O_16
REMARK    3  A    between atoms: O_16  and  C_17
REMARK    4  A    between atoms: C_23  and  C_24
REMARK                            x       y       z     vdW  Elec       q    Type
REMARK                         _______ _______ _______ _____ _____    ______ ____
ROOT
ATOM      1  N   UNL     1       2.255   7.123  18.582  0.00  0.00    +0.000 N 
ATOM      2  C   UNL     1       2.358   8.376  17.804  0.00  0.00    +0.000 C 
ATOM      3  C   UNL     1       1.104   9.225  18.017  0.00  0.00    +0.000 C 
ATOM      4  C   UNL     1       0.833   9.440  19.472  0.00  0.00    +0.000 A 
ATOM      5  C   UNL     1       1.318   8.548  20.427  0.00  0.00    +0.000 A 
ATOM      6  N   UNL     1       1.108   8.715  21.753  0.00  0.00    +0.000 NA
ATOM      7  C   UNL     1       0.347   9.751  22.113  0.00  0.00    +0.000 A 
ATOM      8  N   UNL     1      -0.212  10.631  21.280  0.00  0.00    +0.000 NA
ATOM      9  C   UNL     1       0.071  10.486  19.971  0.00  0.00    +0.000 A 
ATOM     10  C   UNL     1       2.193   7.362  20.040  0.00  0.00    +0.000 C 
ENDROOT
BRANCH   1  16
ATOM     11  O   UNL     1       5.340   3.981  16.434  0.00  0.00    +0.000 OA
ATOM     12  C   UNL     1       4.252   4.285  16.918  0.00  0.00    +0.000 A 
ATOM     13  N   UNL     1       3.199   3.410  16.888  0.00  0.00    +0.000 N 
ATOM     14  N   UNL     1       1.977   3.631  17.424  0.00  0.00    +0.000 NA
ATOM     15  C   UNL     1       1.794   4.796  17.954  0.00  0.00    +0.000 A 
ATOM     16  C   UNL     1       2.765   5.934  18.023  0.00  0.00    +0.000 A 
ATOM     17  C   UNL     1       3.983   5.617  17.543  0.00  0.00    +0.000 A 
ATOM     18 CL   UNL     1       5.302   6.738  17.481  0.00  0.00    +0.000 Cl
ATOM     19  H   UNL     1       3.358   2.500  16.466  0.00  0.00    +0.000 HD
ENDBRANCH   1  16
BRANCH   9  20
ATOM     20  O   UNL     1      -0.417  11.450  19.078  0.00  0.00    +0.000 OA
BRANCH  20  21
ATOM     21  C   UNL     1      -1.674  11.969  19.348  0.00  0.00    +0.000 A 
ATOM     22  C   UNL     1      -1.827  12.974  20.324  0.00  0.00    +0.000 A 
ATOM     23  C   UNL     1      -3.093  13.412  20.705  0.00  0.00    +0.000 A 
ATOM     24  C   UNL     1      -4.207  12.893  20.069  0.00  0.00    +0.000 A 
ATOM     25  F   UNL     1      -5.429  13.287  20.449  0.00  0.00    +0.000 F 
ATOM     26  C   UNL     1      -4.072  11.975  19.034  0.00  0.00    +0.000 A 
ATOM     27  C   UNL     1      -2.797  11.508  18.643  0.00  0.00    +0.000 A 
BRANCH  27  28
ATOM     28  C   UNL     1      -2.732  10.548  17.488  0.00  0.00    +0.000 C 
ATOM     29  F   UNL     1      -1.976  10.949  16.432  0.00  0.00    +0.000 F 
ATOM     30  F   UNL     1      -2.249   9.327  17.853  0.00  0.00    +0.000 F 
ATOM     31  F   UNL     1      -3.974  10.305  16.974  0.00  0.00    +0.000 F 
ENDBRANCH  27  28
ENDBRANCH  20  21
ENDBRANCH   9  20
TORSDOF 4
ENDMDL
MODEL 8
REMARK VINA RESULT:      -9.0      4.783      9.206
REMARK  Name = 
REMARK  4 active torsions:
REMARK  status: ('A' for Active; 'I' for Inactive)
REMARK    1  A    between atoms: C_6  and  N_7
REMARK    2  A    between atoms: C_15  and  O_16
REMARK    3  A    between atoms: O_16  and  C_17
REMARK    4  A    between atoms: C_23  and  C_24
REMARK                            x       y       z     vdW  Elec       q    Type
REMARK                         _______ _______ _______ _____ _____    ______ ____
ROOT
ATOM      1  N   UNL     1       1.868   7.961  19.184  0.00  0.00    +0.000 N 
ATOM      2  C   UNL     1       1.835   9.150  18.306  0.00  0.00    +0.000 C 
ATOM      3  C   UNL     1       0.467   9.829  18.401  0.00  0.00    +0.000 C 
ATOM      4  C   UNL     1       0.100  10.118  19.822  0.00  0.00    +0.000 A 
ATOM      5  C   UNL     1       0.657   9.382  20.866  0.00  0.00    +0.000 A 
ATOM      6  N   UNL     1       0.363   9.623  22.164  0.00  0.00    +0.000 NA
ATOM      7  C   UNL     1      -0.548  10.567  22.407  0.00  0.00    +0.000 A 
ATOM      8  N   UNL     1      -1.183  11.290  21.482  0.00  0.00    +0.000 NA
ATOM      9  C   UNL     1      -0.822  11.083  20.201  0.00  0.00    +0.000 A 
ATOM     10  C   UNL     1       1.704   8.305  20.614  0.00  0.00    +0.000 C 
ENDROOT
BRANCH   1  16
ATOM     11  O   UNL     1       3.380   3.311  18.884  0.00  0.00    +0.000 OA
ATOM     12  C   UNL     1       3.404   4.491  18.543  0.00  0.00    +0.000 A 
ATOM     13  N   UNL     1       4.315   4.941  17.624  0.00  0.00    +0.000 N 
ATOM     14  N   UNL     1       4.400   6.206  17.154  0.00  0.00    +0.000 NA
ATOM     15  C   UNL     1       3.579   7.059  17.674  0.00  0.00    +0.000 A 
ATOM     16  C   UNL     1       2.563   6.816  18.748  0.00  0.00    +0.000 A 
ATOM     17  C   UNL     1       2.479   5.521  19.111  0.00  0.00    +0.000 A 
ATOM     18 CL   UNL     1       1.404   4.947  20.340  0.00  0.00    +0.000 Cl
ATOM     19  H   UNL     1       4.954   4.259  17.226  0.00  0.00    +0.000 HD
ENDBRANCH   1  16
BRANCH   9  20
ATOM     20  O   UNL     1      -1.394  11.894  19.212  0.00  0.00    +0.000 OA
BRANCH  20  21
ATOM     21  C   UNL     1      -2.765  12.092  19.287  0.00  0.00    +0.000 A 
ATOM     22  C   UNL     1      -3.304  12.914  20.296  0.00  0.00    +0.000 A 
ATOM     23  C   UNL     1      -4.682  13.018  20.471  0.00  0.00    +0.000 A 
ATOM     24  C   UNL     1      -5.526  12.351  19.600  0.00  0.00    +0.000 A 
ATOM     25  F   UNL     1      -6.851  12.423  19.778  0.00  0.00    +0.000 F 
ATOM     26  C   UNL     1      -5.014  11.618  18.536  0.00  0.00    +0.000 A 
ATOM     27  C   UNL     1      -3.619  11.489  18.351  0.00  0.00    +0.000 A 
BRANCH  27  28
ATOM     28  C   UNL     1      -3.145  10.713  17.154  0.00  0.00    +0.000 C 
ATOM     29  F   UNL     1      -4.088  10.459  16.207  0.00  0.00    +0.000 F 
ATOM     30  F   UNL     1      -2.119  11.331  16.504  0.00  0.00    +0.000 F 
ATOM     31  F   UNL     1      -2.657   9.489  17.516  0.00  0.00    +0.000 F 
ENDBRANCH  27  28
ENDBRANCH  20  21
ENDBRANCH   9  20
TORSDOF 4
ENDMDL
MODEL 9
REMARK VINA RESULT:      -8.9      4.549      8.140
REMARK  Name = 
REMARK  4 active torsions:
REMARK  status: ('A' for Active; 'I' for Inactive)
REMARK    1  A    between atoms: C_6  and  N_7
REMARK    2  A    between atoms: C_15  and  O_16
REMARK    3  A    between atoms: O_16  and  C_17
REMARK    4  A    between atoms: C_23  and  C_24
REMARK                            x       y       z     vdW  Elec       q    Type
REMARK                         _______ _______ _______ _____ _____    ______ ____
ROOT
ATOM      1  N   UNL     1       2.689   6.614  18.557  0.00  0.00    +0.000 N 
ATOM      2  C   UNL     1       2.978   7.837  17.778  0.00  0.00    +0.000 C 
ATOM      3  C   UNL     1       1.773   8.778  17.820  0.00  0.00    +0.000 C 
ATOM      4  C   UNL     1       1.342   9.048  19.227  0.00  0.00    +0.000 A 
ATOM      5  C   UNL     1       1.640   8.148  20.248  0.00  0.00    +0.000 A 
ATOM      6  N   UNL     1       1.282   8.363  21.536  0.00  0.00    +0.000 NA
ATOM      7  C   UNL     1       0.562   9.459  21.782  0.00  0.00    +0.000 A 
ATOM      8  N   UNL     1       0.175  10.355  20.872  0.00  0.00    +0.000 NA
ATOM      9  C   UNL     1       0.604  10.158  19.610  0.00  0.00    +0.000 A 
ATOM     10  C   UNL     1       2.466   6.894  19.993  0.00  0.00    +0.000 C 
ENDROOT
BRANCH   1  16
ATOM     11  O   UNL     1       3.048   1.795  17.753  0.00  0.00    +0.000 OA
ATOM     12  C   UNL     1       3.449   2.952  17.650  0.00  0.00    +0.000 A 
ATOM     13  N   UNL     1       4.653   3.231  17.060  0.00  0.00    +0.000 N 
ATOM     14  N   UNL     1       5.166   4.467  16.864  0.00  0.00    +0.000 NA
ATOM     15  C   UNL     1       4.469   5.450  17.333  0.00  0.00    +0.000 A 
ATOM     16  C   UNL     1       3.175   5.379  18.086  0.00  0.00    +0.000 A 
ATOM     17  C   UNL     1       2.685   4.127  18.174  0.00  0.00    +0.000 A 
ATOM     18 CL   UNL     1       1.214   3.739  19.001  0.00  0.00    +0.000 Cl
ATOM     19  H   UNL     1       5.190   2.448  16.698  0.00  0.00    +0.000 HD
ENDBRANCH   1  16
BRANCH   9  20
ATOM     20  O   UNL     1       0.301  11.131  18.648  0.00  0.00    +0.000 OA
BRANCH  20  21
ATOM     21  C   UNL     1       0.986  12.333  18.742  0.00  0.00    +0.000 A 
ATOM     22  C   UNL     1       2.298  12.438  18.237  0.00  0.00    +0.000 A 
ATOM     23  C   UNL     1       3.051  13.591  18.442  0.00  0.00    +0.000 A 
ATOM     24  C   UNL     1       2.475  14.667  19.095  0.00  0.00    +0.000 A 
ATOM     25  F   UNL     1       3.201  15.769  19.321  0.00  0.00    +0.000 F 
ATOM     26  C   UNL     1       1.149  14.620  19.510  0.00  0.00    +0.000 A 
ATOM     27  C   UNL     1       0.374  13.453  19.325  0.00  0.00    +0.000 A 
BRANCH  27  28
ATOM     28  C   UNL     1      -1.063  13.496  19.765  0.00  0.00    +0.000 C 
ATOM     29  F   UNL     1      -1.945  12.851  18.956  0.00  0.00    +0.000 F 
ATOM     30  F   UNL     1      -1.242  12.970  21.009  0.00  0.00    +0.000 F 
ATOM     31  F   UNL     1      -1.519  14.781  19.847  0.00  0.00    +0.000 F 
ENDBRANCH  27  28
ENDBRANCH  20  21
ENDBRANCH   9  20
TORSDOF 4
ENDMDL
