MODEL 1
REMARK VINA RESULT:      -8.4      0.000      0.000
REMARK  Name = 
REMARK  4 active torsions:
REMARK  status: ('A' for Active; 'I' for Inactive)
REMARK    1  A    between atoms: C_6  and  C_7
REMARK    2  A    between atoms: C_11  and  C_12
REMARK    3  A    between atoms: C_14  and  C_15
REMARK    4  A    between atoms: C_15  and  N_16
REMARK                            x       y       z     vdW  Elec       q    Type
REMARK                         _______ _______ _______ _____ _____    ______ ____
ROOT
ATOM      1  C   UNL     1       3.962   5.265  18.308  0.00  0.00    +0.000 A 
ATOM      2  N   UNL     1       5.101   4.663  17.912  0.00  0.00    +0.000 NA
ATOM      3  N   UNL     1       5.712   5.555  17.121  0.00  0.00    +0.000 N 
ATOM      4  C   UNL     1       5.027   6.720  16.991  0.00  0.00    +0.000 A 
ATOM      5  C   UNL     1       3.914   6.593  17.791  0.00  0.00    +0.000 A 
ATOM      6  H   UNL     1       6.596   5.294  16.696  0.00  0.00    +0.000 HD
ENDROOT
BRANCH   1  12
ATOM      7  F   UNL     1       0.213   2.193  18.504  0.00  0.00    +0.000 F 
ATOM      8  C   UNL     1       1.082   2.987  19.144  0.00  0.00    +0.000 A 
ATOM      9  C   UNL     1       0.967   3.147  20.517  0.00  0.00    +0.000 A 
ATOM     10  C   UNL     1       1.845   3.997  21.183  0.00  0.00    +0.000 A 
ATOM     11  C   UNL     1       2.824   4.685  20.461  0.00  0.00    +0.000 A 
ATOM     12  C   UNL     1       2.967   4.505  19.076  0.00  0.00    +0.000 A 
ATOM     13  C   UNL     1       2.069   3.649  18.421  0.00  0.00    +0.000 A 
ENDBRANCH   1  12
BRANCH   5  14
ATOM     14  C   UNL     1       2.926   7.686  17.993  0.00  0.00    +0.000 A 
ATOM     15  N   UNL     1       2.224   7.829  19.101  0.00  0.00    +0.000 NA
ATOM     16  C   UNL     1       1.486   8.962  18.855  0.00  0.00    +0.000 A 
ATOM     17  N   UNL     1       1.654   9.477  17.629  0.00  0.00    +0.000 NA
ATOM     18  O   UNL     1       2.627   8.651  17.065  0.00  0.00    +0.000 OA
BRANCH  16  19
ATOM     19  C   UNL     1       0.492   9.491  19.839  0.00  0.00    +0.000 C 
BRANCH  19  20
ATOM     20  N   UNL     1       1.008  10.192  21.024  0.00  0.00    +0.000 NA
ATOM     21  C   UNL     1       1.069   9.412  22.266  0.00  0.00    +0.000 C 
ATOM     22  C   UNL     1      -0.170   9.522  23.172  0.00  0.00    +0.000 C 
ATOM     23  O   UNL     1      -0.548  10.885  23.401  0.00  0.00    +0.000 OA
ATOM     24  C   UNL     1      -0.779  11.568  22.163  0.00  0.00    +0.000 C 
ATOM     25  C   UNL     1       0.470  11.535  21.270  0.00  0.00    +0.000 C 
ENDBRANCH  19  20
ENDBRANCH  16  19
ENDBRANCH   5  14
TORSDOF 4
ENDMDL
MODEL 2
REMARK VINA RESULT:      -8.3      0.907      1.331
REMARK  Name = 
REMARK  4 active torsions:
REMARK  status: ('A' for Active; 'I' for Inactive)
REMARK    1  A    between atoms: C_6  and  C_7
REMARK    2  A    between atoms: C_11  and  C_12
REMARK    3  A    between atoms: C_14  and  C_15
REMARK    4  A    between atoms: C_15  and  N_16
REMARK                            x       y       z     vdW  Elec       q    Type
REMARK                         _______ _______ _______ _____ _____    ______ ____
ROOT
ATOM      1  C   UNL     1       3.926   5.208  18.184  0.00  0.00    +0.000 A 
ATOM      2  N   UNL     1       5.066   4.601  17.798  0.00  0.00    +0.000 NA
ATOM      3  N   UNL     1       5.723   5.517  17.076  0.00  0.00    +0.000 N 
ATOM      4  C   UNL     1       5.068   6.703  16.981  0.00  0.00    +0.000 A 
ATOM      5  C   UNL     1       3.925   6.561  17.734  0.00  0.00    +0.000 A 
ATOM      6  H   UNL     1       6.617   5.258  16.669  0.00  0.00    +0.000 HD
ENDROOT
BRANCH   1  12
ATOM      7  F   UNL     1       1.977   3.441  22.260  0.00  0.00    +0.000 F 
ATOM      8  C   UNL     1       1.949   3.544  20.924  0.00  0.00    +0.000 A 
ATOM      9  C   UNL     1       0.992   2.838  20.211  0.00  0.00    +0.000 A 
ATOM     10  C   UNL     1       0.979   2.914  18.821  0.00  0.00    +0.000 A 
ATOM     11  C   UNL     1       1.936   3.690  18.162  0.00  0.00    +0.000 A 
ATOM     12  C   UNL     1       2.889   4.433  18.877  0.00  0.00    +0.000 A 
ATOM     13  C   UNL     1       2.890   4.338  20.277  0.00  0.00    +0.000 A 
ENDBRANCH   1  12
BRANCH   5  14
ATOM     14  C   UNL     1       2.953   7.665  17.956  0.00  0.00    +0.000 A 
ATOM     15  N   UNL     1       2.244   7.790  19.061  0.00  0.00    +0.000 NA
ATOM     16  C   UNL     1       1.527   8.941  18.839  0.00  0.00    +0.000 A 
ATOM     17  N   UNL     1       1.712   9.485  17.628  0.00  0.00    +0.000 NA
ATOM     18  O   UNL     1       2.677   8.658  17.051  0.00  0.00    +0.000 OA
BRANCH  16  19
ATOM     19  C   UNL     1       0.532   9.461  19.828  0.00  0.00    +0.000 C 
BRANCH  19  20
ATOM     20  N   UNL     1       1.049  10.147  21.022  0.00  0.00    +0.000 NA
ATOM     21  C   UNL     1       1.067   9.366  22.265  0.00  0.00    +0.000 C 
ATOM     22  C   UNL     1      -0.183   9.511  23.151  0.00  0.00    +0.000 C 
ATOM     23  O   UNL     1      -0.524  10.884  23.374  0.00  0.00    +0.000 OA
ATOM     24  C   UNL     1      -0.715  11.574  22.132  0.00  0.00    +0.000 C 
ATOM     25  C   UNL     1       0.546  11.505  21.260  0.00  0.00    +0.000 C 
ENDBRANCH  19  20
ENDBRANCH  16  19
ENDBRANCH   5  14
TORSDOF 4
ENDMDL
MODEL 3
REMARK VINA RESULT:      -7.9      2.636      4.100
REMARK  Name = 
REMARK  4 active torsions:
REMARK  status: ('A' for Active; 'I' for Inactive)
REMARK    1  A    between atoms: C_6  and  C_7
REMARK    2  A    between atoms: C_11  and  C_12
REMARK    3  A    between atoms: C_14  and  C_15
REMARK    4  A    between atoms: C_15  and  N_16
REMARK                            x       y       z     vdW  Elec       q    Type
REMARK                         _______ _______ _______ _____ _____    ______ ____
ROOT
ATOM      1  C   UNL     1       3.518   3.414  17.854  0.00  0.00    +0.000 A 
ATOM      2  N   UNL     1       3.164   2.120  17.730  0.00  0.00    +0.000 NA
ATOM      3  N   UNL     1       2.007   2.008  18.396  0.00  0.00    +0.000 N 
ATOM      4  C   UNL     1       1.583   3.177  18.943  0.00  0.00    +0.000 A 
ATOM      5  C   UNL     1       2.507   4.124  18.564  0.00  0.00    +0.000 A 
ATOM      6  H   UNL     1       1.565   1.095  18.443  0.00  0.00    +0.000 HD
ENDROOT
BRANCH   1  12
ATOM      7  F   UNL     1       7.917   5.301  18.643  0.00  0.00    +0.000 F 
ATOM      8  C   UNL     1       7.010   4.824  17.780  0.00  0.00    +0.000 A 
ATOM      9  C   UNL     1       7.292   4.843  16.422  0.00  0.00    +0.000 A 
ATOM     10  C   UNL     1       6.341   4.380  15.518  0.00  0.00    +0.000 A 
ATOM     11  C   UNL     1       5.111   3.912  15.988  0.00  0.00    +0.000 A 
ATOM     12  C   UNL     1       4.829   3.859  17.362  0.00  0.00    +0.000 A 
ATOM     13  C   UNL     1       5.797   4.336  18.257  0.00  0.00    +0.000 A 
ENDBRANCH   1  12
BRANCH   5  14
ATOM     14  C   UNL     1       2.375   5.568  18.896  0.00  0.00    +0.000 A 
ATOM     15  N   UNL     1       1.970   6.004  20.074  0.00  0.00    +0.000 NA
ATOM     16  C   UNL     1       2.033   7.369  19.938  0.00  0.00    +0.000 A 
ATOM     17  N   UNL     1       2.390   7.788  18.715  0.00  0.00    +0.000 NA
ATOM     18  O   UNL     1       2.644   6.598  18.032  0.00  0.00    +0.000 OA
BRANCH  16  19
ATOM     19  C   UNL     1       1.613   8.298  21.033  0.00  0.00    +0.000 C 
BRANCH  19  20
ATOM     20  N   UNL     1       0.279   8.907  20.939  0.00  0.00    +0.000 NA
ATOM     21  C   UNL     1       0.215  10.246  20.340  0.00  0.00    +0.000 C 
ATOM     22  C   UNL     1       0.296  11.416  21.336  0.00  0.00    +0.000 C 
ATOM     23  O   UNL     1      -0.625  11.260  22.422  0.00  0.00    +0.000 OA
ATOM     24  C   UNL     1      -0.411  10.016  23.101  0.00  0.00    +0.000 C 
ATOM     25  C   UNL     1      -0.559   8.827  22.142  0.00  0.00    +0.000 C 
ENDBRANCH  19  20
ENDBRANCH  16  19
ENDBRANCH   5  14
TORSDOF 4
ENDMDL
MODEL 4
REMARK VINA RESULT:      -7.8      4.793      6.731
REMARK  Name = 
REMARK  4 active torsions:
REMARK  status: ('A' for Active; 'I' for Inactive)
REMARK    1  A    between atoms: C_6  and  C_7
REMARK    2  A    between atoms: C_11  and  C_12
REMARK    3  A    between atoms: C_14  and  C_15
REMARK    4  A    between atoms: C_15  and  N_16
REMARK                            x       y       z     vdW  Elec       q    Type
REMARK                         _______ _______ _______ _____ _____    ______ ____
ROOT
ATOM      1  C   UNL     1       5.138   5.333  17.333  0.00  0.00    +0.000 A 
ATOM      2  N   UNL     1       4.874   4.165  16.715  0.00  0.00    +0.000 NA
ATOM      3  N   UNL     1       6.029   3.804  16.139  0.00  0.00    +0.000 N 
ATOM      4  C   UNL     1       7.041   4.682  16.362  0.00  0.00    +0.000 A 
ATOM      5  C   UNL     1       6.518   5.658  17.180  0.00  0.00    +0.000 A 
ATOM      6  H   UNL     1       6.049   2.944  15.600  0.00  0.00    +0.000 HD
ENDROOT
BRANCH   1  12
ATOM      7  F   UNL     1       2.249   9.228  17.476  0.00  0.00    +0.000 F 
ATOM      8  C   UNL     1       2.629   8.058  18.010  0.00  0.00    +0.000 A 
ATOM      9  C   UNL     1       2.039   7.631  19.190  0.00  0.00    +0.000 A 
ATOM     10  C   UNL     1       2.452   6.434  19.767  0.00  0.00    +0.000 A 
ATOM     11  C   UNL     1       3.462   5.684  19.158  0.00  0.00    +0.000 A 
ATOM     12  C   UNL     1       4.042   6.094  17.947  0.00  0.00    +0.000 A 
ATOM     13  C   UNL     1       3.617   7.306  17.384  0.00  0.00    +0.000 A 
ENDBRANCH   1  12
BRANCH   5  14
ATOM     14  C   UNL     1       7.325   6.782  17.726  0.00  0.00    +0.000 A 
ATOM     15  N   UNL     1       7.303   7.999  17.217  0.00  0.00    +0.000 NA
ATOM     16  C   UNL     1       8.154   8.694  18.042  0.00  0.00    +0.000 A 
ATOM     17  N   UNL     1       8.746   7.946  18.984  0.00  0.00    +0.000 NA
ATOM     18  O   UNL     1       8.178   6.686  18.795  0.00  0.00    +0.000 OA
BRANCH  16  19
ATOM     19  C   UNL     1       8.479  10.136  17.815  0.00  0.00    +0.000 C 
BRANCH  19  20
ATOM     20  N   UNL     1       9.649  10.692  18.511  0.00  0.00    +0.000 NA
ATOM     21  C   UNL     1       9.397  11.312  19.817  0.00  0.00    +0.000 C 
ATOM     22  C   UNL     1       9.134  12.828  19.784  0.00  0.00    +0.000 C 
ATOM     23  O   UNL     1      10.131  13.529  19.031  0.00  0.00    +0.000 OA
ATOM     24  C   UNL     1      10.221  13.014  17.696  0.00  0.00    +0.000 C 
ATOM     25  C   UNL     1      10.556  11.515  17.702  0.00  0.00    +0.000 C 
ENDBRANCH  19  20
ENDBRANCH  16  19
ENDBRANCH   5  14
TORSDOF 4
ENDMDL
MODEL 5
REMARK VINA RESULT:      -7.8      4.520      6.446
REMARK  Name = 
REMARK  4 active torsions:
REMARK  status: ('A' for Active; 'I' for Inactive)
REMARK    1  A    between atoms: C_6  and  C_7
REMARK    2  A    between atoms: C_11  and  C_12
REMARK    3  A    between atoms: C_14  and  C_15
REMARK    4  A    between atoms: C_15  and  N_16
REMARK                            x       y       z     vdW  Elec       q    Type
REMARK                         _______ _______ _______ _____ _____    ______ ____
ROOT
ATOM      1  C   UNL     1       5.256   4.893  17.390  0.00  0.00    +0.000 A 
ATOM      2  N   UNL     1       5.017   3.799  16.639  0.00  0.00    +0.000 NA
ATOM      3  N   UNL     1       6.082   3.688  15.834  0.00  0.00    +0.000 N 
ATOM      4  C   UNL     1       7.013   4.656  16.033  0.00  0.00    +0.000 A 
ATOM      5  C   UNL     1       6.540   5.423  17.073  0.00  0.00    +0.000 A 
ATOM      6  H   UNL     1       6.100   2.925  15.164  0.00  0.00    +0.000 HD
ENDROOT
BRANCH   1  12
ATOM      7  F   UNL     1       2.409   4.376  21.283  0.00  0.00    +0.000 F 
ATOM      8  C   UNL     1       2.785   5.105  20.224  0.00  0.00    +0.000 A 
ATOM      9  C   UNL     1       2.114   6.286  19.943  0.00  0.00    +0.000 A 
ATOM     10  C   UNL     1       2.477   7.031  18.825  0.00  0.00    +0.000 A 
ATOM     11  C   UNL     1       3.505   6.576  17.995  0.00  0.00    +0.000 A 
ATOM     12  C   UNL     1       4.210   5.398  18.289  0.00  0.00    +0.000 A 
ATOM     13  C   UNL     1       3.825   4.658  19.416  0.00  0.00    +0.000 A 
ENDBRANCH   1  12
BRANCH   5  14
ATOM     14  C   UNL     1       7.302   6.558  17.659  0.00  0.00    +0.000 A 
ATOM     15  N   UNL     1       7.285   7.777  17.152  0.00  0.00    +0.000 NA
ATOM     16  C   UNL     1       8.084   8.483  18.019  0.00  0.00    +0.000 A 
ATOM     17  N   UNL     1       8.641   7.742  18.987  0.00  0.00    +0.000 NA
ATOM     18  O   UNL     1       8.103   6.473  18.768  0.00  0.00    +0.000 OA
BRANCH  16  19
ATOM     19  C   UNL     1       8.396   9.931  17.810  0.00  0.00    +0.000 C 
BRANCH  19  20
ATOM     20  N   UNL     1       9.592  10.474  18.470  0.00  0.00    +0.000 NA
ATOM     21  C   UNL     1       9.413  10.964  19.842  0.00  0.00    +0.000 C 
ATOM     22  C   UNL     1       9.090  12.464  19.968  0.00  0.00    +0.000 C 
ATOM     23  O   UNL     1      10.001  13.272  19.214  0.00  0.00    +0.000 OA
ATOM     24  C   UNL     1      10.013  12.883  17.835  0.00  0.00    +0.000 C 
ATOM     25  C   UNL     1      10.404  11.407  17.679  0.00  0.00    +0.000 C 
ENDBRANCH  19  20
ENDBRANCH  16  19
ENDBRANCH   5  14
TORSDOF 4
ENDMDL
MODEL 6
REMARK VINA RESULT:      -7.7      4.498      6.459
REMARK  Name = 
REMARK  4 active torsions:
REMARK  status: ('A' for Active; 'I' for Inactive)
REMARK    1  A    between atoms: C_6  and  C_7
REMARK    2  A    between atoms: C_11  and  C_12
REMARK    3  A    between atoms: C_14  and  C_15
REMARK    4  A    between atoms: C_15  and  N_16
REMARK                            x       y       z     vdW  Elec       q    Type
REMARK                         _______ _______ _______ _____ _____    ______ ____
ROOT
ATOM      1  C   UNL     1       7.064   4.647  17.009  0.00  0.00    +0.000 A 
ATOM      2  N   UNL     1       8.301   4.520  17.529  0.00  0.00    +0.000 NA
ATOM      3  N   UNL     1       8.187   4.914  18.804  0.00  0.00    +0.000 N 
ATOM      4  C   UNL     1       6.926   5.285  19.145  0.00  0.00    +0.000 A 
ATOM      5  C   UNL     1       6.157   5.072  18.023  0.00  0.00    +0.000 A 
ATOM      6  H   UNL     1       9.020   4.911  19.385  0.00  0.00    +0.000 HD
ENDROOT
BRANCH   1  12
ATOM      7  F   UNL     1       8.101   5.697  12.388  0.00  0.00    +0.000 F 
ATOM      8  C   UNL     1       7.377   4.998  13.272  0.00  0.00    +0.000 A 
ATOM      9  C   UNL     1       6.377   4.154  12.811  0.00  0.00    +0.000 A 
ATOM     10  C   UNL     1       5.599   3.451  13.726  0.00  0.00    +0.000 A 
ATOM     11  C   UNL     1       5.827   3.611  15.095  0.00  0.00    +0.000 A 
ATOM     12  C   UNL     1       6.857   4.439  15.570  0.00  0.00    +0.000 A 
ATOM     13  C   UNL     1       7.626   5.145  14.633  0.00  0.00    +0.000 A 
ENDBRANCH   1  12
BRANCH   5  14
ATOM     14  C   UNL     1       4.685   5.285  17.992  0.00  0.00    +0.000 A 
ATOM     15  N   UNL     1       3.813   4.294  17.966  0.00  0.00    +0.000 NA
ATOM     16  C   UNL     1       2.604   4.947  17.977  0.00  0.00    +0.000 A 
ATOM     17  N   UNL     1       2.696   6.284  17.939  0.00  0.00    +0.000 NA
ATOM     18  O   UNL     1       4.072   6.511  17.978  0.00  0.00    +0.000 OA
BRANCH  16  19
ATOM     19  C   UNL     1       1.304   4.211  17.910  0.00  0.00    +0.000 C 
BRANCH  19  20
ATOM     20  N   UNL     1       0.859   3.496  19.114  0.00  0.00    +0.000 NA
ATOM     21  C   UNL     1       0.861   4.263  20.366  0.00  0.00    +0.000 C 
ATOM     22  C   UNL     1       2.149   4.156  21.201  0.00  0.00    +0.000 C 
ATOM     23  O   UNL     1       2.549   2.794  21.396  0.00  0.00    +0.000 OA
ATOM     24  C   UNL     1       2.716   2.124  20.140  0.00  0.00    +0.000 C 
ATOM     25  C   UNL     1       1.420   2.155  19.318  0.00  0.00    +0.000 C 
ENDBRANCH  19  20
ENDBRANCH  16  19
ENDBRANCH   5  14
TORSDOF 4
ENDMDL
MODEL 7
REMARK VINA RESULT:      -7.7      3.068      4.406
REMARK  Name = 
REMARK  4 active torsions:
REMARK  status: ('A' for Active; 'I' for Inactive)
REMARK    1  A    between atoms: C_6  and  C_7
REMARK    2  A    between atoms: C_11  and  C_12
REMARK    3  A    between atoms: C_14  and  C_15
REMARK    4  A    between atoms: C_15  and  N_16
REMARK                            x       y       z     vdW  Elec       q    Type
REMARK                         _______ _______ _______ _____ _____    ______ ____
ROOT
ATOM      1  C   UNL     1       4.074   5.029  17.645  0.00  0.00    +0.000 A 
ATOM      2  N   UNL     1       3.969   3.830  17.038  0.00  0.00    +0.000 NA
ATOM      3  N   UNL     1       2.674   3.501  17.134  0.00  0.00    +0.000 N 
ATOM      4  C   UNL     1       1.924   4.439  17.769  0.00  0.00    +0.000 A 
ATOM      5  C   UNL     1       2.786   5.470  18.065  0.00  0.00    +0.000 A 
ATOM      6  H   UNL     1       2.373   2.612  16.747  0.00  0.00    +0.000 HD
ENDROOT
BRANCH   1  12
ATOM      7  F   UNL     1       8.192   5.399  20.183  0.00  0.00    +0.000 F 
ATOM      8  C   UNL     1       7.437   5.804  19.152  0.00  0.00    +0.000 A 
ATOM      9  C   UNL     1       7.886   6.845  18.353  0.00  0.00    +0.000 A 
ATOM     10  C   UNL     1       7.092   7.293  17.302  0.00  0.00    +0.000 A 
ATOM     11  C   UNL     1       5.850   6.697  17.071  0.00  0.00    +0.000 A 
ATOM     12  C   UNL     1       5.401   5.622  17.855  0.00  0.00    +0.000 A 
ATOM     13  C   UNL     1       6.212   5.189  18.914  0.00  0.00    +0.000 A 
ENDBRANCH   1  12
BRANCH   5  14
ATOM     14  C   UNL     1       2.347   6.740  18.705  0.00  0.00    +0.000 A 
ATOM     15  N   UNL     1       2.130   7.851  18.028  0.00  0.00    +0.000 NA
ATOM     16  C   UNL     1       1.720   8.731  19.001  0.00  0.00    +0.000 A 
ATOM     17  N   UNL     1       1.742   8.231  20.244  0.00  0.00    +0.000 NA
ATOM     18  O   UNL     1       2.129   6.905  20.049  0.00  0.00    +0.000 OA
BRANCH  16  19
ATOM     19  C   UNL     1       1.401  10.160  18.696  0.00  0.00    +0.000 C 
BRANCH  19  20
ATOM     20  N   UNL     1       0.228  10.754  19.355  0.00  0.00    +0.000 NA
ATOM     21  C   UNL     1      -1.080  10.208  18.971  0.00  0.00    +0.000 C 
ATOM     22  C   UNL     1      -1.788  10.947  17.821  0.00  0.00    +0.000 C 
ATOM     23  O   UNL     1      -1.829  12.362  18.038  0.00  0.00    +0.000 OA
ATOM     24  C   UNL     1      -0.510  12.890  18.227  0.00  0.00    +0.000 C 
ATOM     25  C   UNL     1       0.191  12.220  19.417  0.00  0.00    +0.000 C 
ENDBRANCH  19  20
ENDBRANCH  16  19
ENDBRANCH   5  14
TORSDOF 4
ENDMDL
MODEL 8
REMARK VINA RESULT:      -7.7      4.127      6.173
REMARK  Name = 
REMARK  4 active torsions:
REMARK  status: ('A' for Active; 'I' for Inactive)
REMARK    1  A    between atoms: C_6  and  C_7
REMARK    2  A    between atoms: C_11  and  C_12
REMARK    3  A    between atoms: C_14  and  C_15
REMARK    4  A    between atoms: C_15  and  N_16
REMARK                            x       y       z     vdW  Elec       q    Type
REMARK                         _______ _______ _______ _____ _____    ______ ____
ROOT
ATOM      1  C   UNL     1       7.010   4.755  17.611  0.00  0.00    +0.000 A 
ATOM      2  N   UNL     1       8.278   4.556  18.020  0.00  0.00    +0.000 NA
ATOM      3  N   UNL     1       8.321   5.031  19.272  0.00  0.00    +0.000 N 
ATOM      4  C   UNL     1       7.131   5.524  19.704  0.00  0.00    +0.000 A 
ATOM      5  C   UNL     1       6.241   5.310  18.675  0.00  0.00    +0.000 A 
ATOM      6  H   UNL     1       9.204   4.993  19.772  0.00  0.00    +0.000 HD
ENDROOT
BRANCH   1  12
ATOM      7  F   UNL     1       7.783   5.302  12.853  0.00  0.00    +0.000 F 
ATOM      8  C   UNL     1       7.041   4.790  13.845  0.00  0.00    +0.000 A 
ATOM      9  C   UNL     1       5.887   4.086  13.533  0.00  0.00    +0.000 A 
ATOM     10  C   UNL     1       5.095   3.581  14.560  0.00  0.00    +0.000 A 
ATOM     11  C   UNL     1       5.464   3.798  15.890  0.00  0.00    +0.000 A 
ATOM     12  C   UNL     1       6.647   4.482  16.214  0.00  0.00    +0.000 A 
ATOM     13  C   UNL     1       7.429   4.990  15.166  0.00  0.00    +0.000 A 
ENDBRANCH   1  12
BRANCH   5  14
ATOM     14  C   UNL     1       4.794   5.641  18.768  0.00  0.00    +0.000 A 
ATOM     15  N   UNL     1       4.032   5.268  19.779  0.00  0.00    +0.000 NA
ATOM     16  C   UNL     1       2.811   5.812  19.462  0.00  0.00    +0.000 A 
ATOM     17  N   UNL     1       2.774   6.439  18.278  0.00  0.00    +0.000 NA
ATOM     18  O   UNL     1       4.092   6.352  17.829  0.00  0.00    +0.000 OA
BRANCH  16  19
ATOM     19  C   UNL     1       1.602   5.605  20.319  0.00  0.00    +0.000 C 
BRANCH  19  20
ATOM     20  N   UNL     1       1.027   4.253  20.373  0.00  0.00    +0.000 NA
ATOM     21  C   UNL     1       1.586   3.347  21.383  0.00  0.00    +0.000 C 
ATOM     22  C   UNL     1       2.744   2.456  20.897  0.00  0.00    +0.000 C 
ATOM     23  O   UNL     1       2.423   1.780  19.676  0.00  0.00    +0.000 OA
ATOM     24  C   UNL     1       2.056   2.715  18.653  0.00  0.00    +0.000 C 
ATOM     25  C   UNL     1       0.855   3.568  19.087  0.00  0.00    +0.000 C 
ENDBRANCH  19  20
ENDBRANCH  16  19
ENDBRANCH   5  14
TORSDOF 4
ENDMDL
MODEL 9
REMARK VINA RESULT:      -7.6      2.294      3.653
REMARK  Name = 
REMARK  4 active torsions:
REMARK  status: ('A' for Active; 'I' for Inactive)
REMARK    1  A    between atoms: C_6  and  C_7
REMARK    2  A    between atoms: C_11  and  C_12
REMARK    3  A    between atoms: C_14  and  C_15
REMARK    4  A    between atoms: C_15  and  N_16
REMARK                            x       y       z     vdW  Elec       q    Type
REMARK                         _______ _______ _______ _____ _____    ______ ____
ROOT
ATOM      1  C   UNL     1       3.803   4.092  19.307  0.00  0.00    +0.000 A 
ATOM      2  N   UNL     1       3.731   2.900  19.933  0.00  0.00    +0.000 NA
ATOM      3  N   UNL     1       2.765   3.044  20.850  0.00  0.00    +0.000 N 
ATOM      4  C   UNL     1       2.195   4.277  20.846  0.00  0.00    +0.000 A 
ATOM      5  C   UNL     1       2.802   4.967  19.821  0.00  0.00    +0.000 A 
ATOM      6  H   UNL     1       2.554   2.255  21.454  0.00  0.00    +0.000 HD
ENDROOT
BRANCH   1  12
ATOM      7  F   UNL     1       5.555   3.813  14.792  0.00  0.00    +0.000 F 
ATOM      8  C   UNL     1       5.732   4.163  16.074  0.00  0.00    +0.000 A 
ATOM      9  C   UNL     1       6.961   4.667  16.474  0.00  0.00    +0.000 A 
ATOM     10  C   UNL     1       7.162   5.001  17.810  0.00  0.00    +0.000 A 
ATOM     11  C   UNL     1       6.130   4.815  18.732  0.00  0.00    +0.000 A 
ATOM     12  C   UNL     1       4.873   4.335  18.331  0.00  0.00    +0.000 A 
ATOM     13  C   UNL     1       4.691   3.998  16.981  0.00  0.00    +0.000 A 
ENDBRANCH   1  12
BRANCH   5  14
ATOM     14  C   UNL     1       2.412   6.347  19.426  0.00  0.00    +0.000 A 
ATOM     15  N   UNL     1       1.987   7.251  20.288  0.00  0.00    +0.000 NA
ATOM     16  C   UNL     1       1.782   8.357  19.499  0.00  0.00    +0.000 A 
ATOM     17  N   UNL     1       1.995   8.153  18.192  0.00  0.00    +0.000 NA
ATOM     18  O   UNL     1       2.440   6.831  18.143  0.00  0.00    +0.000 OA
BRANCH  16  19
ATOM     19  C   UNL     1       1.244   9.639  20.052  0.00  0.00    +0.000 C 
BRANCH  19  20
ATOM     20  N   UNL     1      -0.097   9.614  20.655  0.00  0.00    +0.000 NA
ATOM     21  C   UNL     1      -0.766  10.911  20.807  0.00  0.00    +0.000 C 
ATOM     22  C   UNL     1      -0.551  11.607  22.163  0.00  0.00    +0.000 C 
ATOM     23  O   UNL     1      -0.809  10.727  23.264  0.00  0.00    +0.000 OA
ATOM     24  C   UNL     1       0.001   9.547  23.179  0.00  0.00    +0.000 C 
ATOM     25  C   UNL     1      -0.251   8.796  21.864  0.00  0.00    +0.000 C 
ENDBRANCH  19  20
ENDBRANCH  16  19
ENDBRANCH   5  14
TORSDOF 4
ENDMDL
