MODEL 1
REMARK VINA RESULT:      -8.1      0.000      0.000
REMARK  Name = 
REMARK  10 active torsions:
REMARK  status: ('A' for Active; 'I' for Inactive)
REMARK    1  A    between atoms: C_2  and  O_3
REMARK    2  A    between atoms: C_2  and  C_4
REMARK    3  A    between atoms: C_4  and  O_5
REMARK    4  A    between atoms: O_5  and  C_6
REMARK    5  A    between atoms: N_9  and  C_10
REMARK    6  A    between atoms: C_10  and  C_11
REMARK    7  A    between atoms: C_11  and  N_12
REMARK    8  A    between atoms: N_12  and  C_21
REMARK    9  A    between atoms: C_13  and  C_15
REMARK   10  A    between atoms: C_24  and  N_25
REMARK                            x       y       z     vdW  Elec       q    Type
REMARK                         _______ _______ _______ _____ _____    ______ ____
ROOT
ATOM      1  N   UNL     1       2.385   6.728  19.201  0.00  0.00    +0.000 N 
ATOM      2  C   UNL     1       2.063   5.455  19.781  0.00  0.00    +0.000 C 
ATOM      3  O   UNL     1       1.283   5.361  20.740  0.00  0.00    +0.000 OA
ENDROOT
BRANCH   2   4
ATOM      4  C   UNL     1       2.541   4.115  19.292  0.00  0.00    +0.000 A 
ATOM      5  C   UNL     1       3.572   3.407  19.891  0.00  0.00    +0.000 A 
ATOM      6  C   UNL     1       4.139   2.277  19.291  0.00  0.00    +0.000 A 
ATOM      7  C   UNL     1       3.476   1.654  18.244  0.00  0.00    +0.000 A 
ATOM      8  C   UNL     1       2.275   2.189  17.802  0.00  0.00    +0.000 A 
ATOM      9  C   UNL     1       1.830   3.435  18.286  0.00  0.00    +0.000 A 
ENDBRANCH   2   4
BRANCH   1  10
ATOM     10  C   UNL     1       1.798   7.883  19.856  0.00  0.00    +0.000 A 
ATOM     11  C   UNL     1       1.385   8.989  19.122  0.00  0.00    +0.000 A 
ATOM     12  C   UNL     1       0.752  10.077  19.748  0.00  0.00    +0.000 A 
ATOM     13  C   UNL     1       0.541  10.133  21.137  0.00  0.00    +0.000 A 
ATOM     14  C   UNL     1       0.965   9.003  21.858  0.00  0.00    +0.000 A 
ATOM     15  C   UNL     1       1.567   7.898  21.237  0.00  0.00    +0.000 A 
BRANCH  13  16
ATOM     16  N   UNL     1      -0.033  11.223  21.753  0.00  0.00    +0.000 N 
ATOM     17  C   UNL     1      -0.923  11.152  22.907  0.00  0.00    +0.000 C 
ATOM     18  C   UNL     1      -1.865  12.330  22.704  0.00  0.00    +0.000 C 
ATOM     19  C   UNL     1      -0.979  13.385  22.068  0.00  0.00    +0.000 C 
ATOM     20  C   UNL     1       0.017  12.586  21.221  0.00  0.00    +0.000 C 
ENDBRANCH  13  16
ENDBRANCH   1  10
BRANCH   1  21
ATOM     21  C   UNL     1       3.199   7.159  17.986  0.00  0.00    +0.000 C 
BRANCH  21  22
ATOM     22  C   UNL     1       4.697   6.889  18.012  0.00  0.00    +0.000 C 
BRANCH  22  26
ATOM     23  C   UNL     1       6.496   4.070  15.326  0.00  0.00    +0.000 C 
ATOM     24  C   UNL     1       5.092   3.828  15.866  0.00  0.00    +0.000 C 
ATOM     25  C   UNL     1       4.520   5.105  16.470  0.00  0.00    +0.000 C 
ATOM     26  N   UNL     1       5.406   5.713  17.500  0.00  0.00    +0.000 NA
ATOM     27  C   UNL     1       6.723   6.020  16.963  0.00  0.00    +0.000 C 
ATOM     28  C   UNL     1       7.353   4.742  16.407  0.00  0.00    +0.000 C 
BRANCH  23  29
ATOM     29  O   UNL     1       6.387   4.844  14.116  0.00  0.00    +0.000 OA
BRANCH  29  30
ATOM     30  C   UNL     1       6.952   4.170  12.984  0.00  0.00    +0.000 C 
BRANCH  30  32
ATOM     31  O   UNL     1       4.726   3.563  12.194  0.00  0.00    +0.000 OA
ATOM     32  C   UNL     1       5.923   3.275  12.318  0.00  0.00    +0.000 C 
BRANCH  32  33
ATOM     33  O   UNL     1       6.453   2.111  11.865  0.00  0.00    +0.000 OA
ATOM     34  H   UNL     1       6.616   1.533  12.648  0.00  0.00    +0.000 HD
ENDBRANCH  32  33
ENDBRANCH  30  32
ENDBRANCH  29  30
ENDBRANCH  23  29
ENDBRANCH  22  26
ENDBRANCH  21  22
ENDBRANCH   1  21
TORSDOF 10
ENDMDL
MODEL 2
REMARK VINA RESULT:      -7.9      0.361      1.407
REMARK  Name = 
REMARK  10 active torsions:
REMARK  status: ('A' for Active; 'I' for Inactive)
REMARK    1  A    between atoms: C_2  and  O_3
REMARK    2  A    between atoms: C_2  and  C_4
REMARK    3  A    between atoms: C_4  and  O_5
REMARK    4  A    between atoms: O_5  and  C_6
REMARK    5  A    between atoms: N_9  and  C_10
REMARK    6  A    between atoms: C_10  and  C_11
REMARK    7  A    between atoms: C_11  and  N_12
REMARK    8  A    between atoms: N_12  and  C_21
REMARK    9  A    between atoms: C_13  and  C_15
REMARK   10  A    between atoms: C_24  and  N_25
REMARK                            x       y       z     vdW  Elec       q    Type
REMARK                         _______ _______ _______ _____ _____    ______ ____
ROOT
ATOM      1  N   UNL     1       2.384   6.844  19.015  0.00  0.00    +0.000 N 
ATOM      2  C   UNL     1       2.086   5.581  19.627  0.00  0.00    +0.000 C 
ATOM      3  O   UNL     1       1.264   5.489  20.552  0.00  0.00    +0.000 OA
ENDROOT
BRANCH   2   4
ATOM      4  C   UNL     1       2.640   4.244  19.213  0.00  0.00    +0.000 A 
ATOM      5  C   UNL     1       2.155   3.517  18.137  0.00  0.00    +0.000 A 
ATOM      6  C   UNL     1       2.536   2.190  17.910  0.00  0.00    +0.000 A 
ATOM      7  C   UNL     1       3.642   1.675  18.567  0.00  0.00    +0.000 A 
ATOM      8  C   UNL     1       4.329   2.487  19.457  0.00  0.00    +0.000 A 
ATOM      9  C   UNL     1       3.809   3.747  19.817  0.00  0.00    +0.000 A 
ENDBRANCH   2   4
BRANCH   1  10
ATOM     10  C   UNL     1       1.721   7.996  19.597  0.00  0.00    +0.000 A 
ATOM     11  C   UNL     1       1.386   8.023  20.946  0.00  0.00    +0.000 A 
ATOM     12  C   UNL     1       0.808   9.167  21.524  0.00  0.00    +0.000 A 
ATOM     13  C   UNL     1       0.496  10.317  20.778  0.00  0.00    +0.000 A 
ATOM     14  C   UNL     1       0.845  10.267  19.417  0.00  0.00    +0.000 A 
ATOM     15  C   UNL     1       1.454   9.143  18.839  0.00  0.00    +0.000 A 
BRANCH  13  16
ATOM     16  N   UNL     1      -0.117  11.416  21.338  0.00  0.00    +0.000 N 
ATOM     17  C   UNL     1      -0.025  12.775  20.815  0.00  0.00    +0.000 C 
ATOM     18  C   UNL     1      -0.102  13.644  22.063  0.00  0.00    +0.000 C 
ATOM     19  C   UNL     1      -1.054  12.880  22.967  0.00  0.00    +0.000 C 
ATOM     20  C   UNL     1      -0.789  11.406  22.638  0.00  0.00    +0.000 C 
ENDBRANCH  13  16
ENDBRANCH   1  10
BRANCH   1  21
ATOM     21  C   UNL     1       3.238   7.264  17.824  0.00  0.00    +0.000 C 
BRANCH  21  22
ATOM     22  C   UNL     1       4.739   7.020  17.913  0.00  0.00    +0.000 C 
BRANCH  22  26
ATOM     23  C   UNL     1       6.621   4.138  15.355  0.00  0.00    +0.000 C 
ATOM     24  C   UNL     1       5.230   3.873  15.917  0.00  0.00    +0.000 C 
ATOM     25  C   UNL     1       4.617   5.157  16.462  0.00  0.00    +0.000 C 
ATOM     26  N   UNL     1       5.486   5.846  17.455  0.00  0.00    +0.000 NA
ATOM     27  C   UNL     1       6.788   6.173  16.892  0.00  0.00    +0.000 C 
ATOM     28  C   UNL     1       7.460   4.892  16.394  0.00  0.00    +0.000 C 
BRANCH  23  29
ATOM     29  O   UNL     1       6.477   4.847  14.109  0.00  0.00    +0.000 OA
BRANCH  29  30
ATOM     30  C   UNL     1       6.989   4.104  12.995  0.00  0.00    +0.000 C 
BRANCH  30  32
ATOM     31  O   UNL     1       4.706   3.579  12.317  0.00  0.00    +0.000 OA
ATOM     32  C   UNL     1       5.900   3.256  12.363  0.00  0.00    +0.000 C 
BRANCH  32  33
ATOM     33  O   UNL     1       6.371   2.093  11.847  0.00  0.00    +0.000 OA
ATOM     34  H   UNL     1       5.592   1.542  11.593  0.00  0.00    +0.000 HD
ENDBRANCH  32  33
ENDBRANCH  30  32
ENDBRANCH  29  30
ENDBRANCH  23  29
ENDBRANCH  22  26
ENDBRANCH  21  22
ENDBRANCH   1  21
TORSDOF 10
ENDMDL
MODEL 3
REMARK VINA RESULT:      -7.7      0.724      1.140
REMARK  Name = 
REMARK  10 active torsions:
REMARK  status: ('A' for Active; 'I' for Inactive)
REMARK    1  A    between atoms: C_2  and  O_3
REMARK    2  A    between atoms: C_2  and  C_4
REMARK    3  A    between atoms: C_4  and  O_5
REMARK    4  A    between atoms: O_5  and  C_6
REMARK    5  A    between atoms: N_9  and  C_10
REMARK    6  A    between atoms: C_10  and  C_11
REMARK    7  A    between atoms: C_11  and  N_12
REMARK    8  A    between atoms: N_12  and  C_21
REMARK    9  A    between atoms: C_13  and  C_15
REMARK   10  A    between atoms: C_24  and  N_25
REMARK                            x       y       z     vdW  Elec       q    Type
REMARK                         _______ _______ _______ _____ _____    ______ ____
ROOT
ATOM      1  N   UNL     1       2.267   6.967  19.568  0.00  0.00    +0.000 N 
ATOM      2  C   UNL     1       1.821   5.660  19.958  0.00  0.00    +0.000 C 
ATOM      3  O   UNL     1       0.890   5.509  20.764  0.00  0.00    +0.000 OA
ENDROOT
BRANCH   2   4
ATOM      4  C   UNL     1       2.337   4.352  19.421  0.00  0.00    +0.000 A 
ATOM      5  C   UNL     1       1.750   3.676  18.363  0.00  0.00    +0.000 A 
ATOM      6  C   UNL     1       2.113   2.366  18.030  0.00  0.00    +0.000 A 
ATOM      7  C   UNL     1       3.284   1.830  18.545  0.00  0.00    +0.000 A 
ATOM      8  C   UNL     1       4.053   2.604  19.402  0.00  0.00    +0.000 A 
ATOM      9  C   UNL     1       3.565   3.837  19.877  0.00  0.00    +0.000 A 
ENDBRANCH   2   4
BRANCH   1  10
ATOM     10  C   UNL     1       1.610   8.079  20.232  0.00  0.00    +0.000 A 
ATOM     11  C   UNL     1       0.976   9.075  19.499  0.00  0.00    +0.000 A 
ATOM     12  C   UNL     1       0.279  10.113  20.143  0.00  0.00    +0.000 A 
ATOM     13  C   UNL     1       0.220  10.231  21.542  0.00  0.00    +0.000 A 
ATOM     14  C   UNL     1       0.868   9.211  22.262  0.00  0.00    +0.000 A 
ATOM     15  C   UNL     1       1.536   8.152  21.628  0.00  0.00    +0.000 A 
BRANCH  13  16
ATOM     16  N   UNL     1      -0.420  11.277  22.169  0.00  0.00    +0.000 N 
ATOM     17  C   UNL     1      -1.442  11.129  23.199  0.00  0.00    +0.000 C 
ATOM     18  C   UNL     1      -2.349  12.331  22.978  0.00  0.00    +0.000 C 
ATOM     19  C   UNL     1      -1.388  13.421  22.538  0.00  0.00    +0.000 C 
ATOM     20  C   UNL     1      -0.300  12.676  21.757  0.00  0.00    +0.000 C 
ENDBRANCH  13  16
ENDBRANCH   1  10
BRANCH   1  21
ATOM     21  C   UNL     1       3.281   7.476  18.550  0.00  0.00    +0.000 C 
BRANCH  21  22
ATOM     22  C   UNL     1       3.685   6.531  17.426  0.00  0.00    +0.000 C 
BRANCH  22  26
ATOM     23  C   UNL     1       7.037   4.507  15.677  0.00  0.00    +0.000 C 
ATOM     24  C   UNL     1       5.849   3.711  16.202  0.00  0.00    +0.000 C 
ATOM     25  C   UNL     1       4.644   4.621  16.415  0.00  0.00    +0.000 C 
ATOM     26  N   UNL     1       4.943   5.795  17.281  0.00  0.00    +0.000 NA
ATOM     27  C   UNL     1       6.025   6.602  16.736  0.00  0.00    +0.000 C 
ATOM     28  C   UNL     1       7.272   5.731  16.572  0.00  0.00    +0.000 C 
BRANCH  23  29
ATOM     29  O   UNL     1       6.781   4.844  14.299  0.00  0.00    +0.000 OA
BRANCH  29  30
ATOM     30  C   UNL     1       6.040   3.824  13.616  0.00  0.00    +0.000 C 
BRANCH  30  32
ATOM     31  O   UNL     1       7.360   4.332  11.629  0.00  0.00    +0.000 OA
ATOM     32  C   UNL     1       6.641   3.540  12.252  0.00  0.00    +0.000 C 
BRANCH  32  33
ATOM     33  O   UNL     1       6.307   2.315  11.774  0.00  0.00    +0.000 OA
ATOM     34  H   UNL     1       6.352   1.678  12.528  0.00  0.00    +0.000 HD
ENDBRANCH  32  33
ENDBRANCH  30  32
ENDBRANCH  29  30
ENDBRANCH  23  29
ENDBRANCH  22  26
ENDBRANCH  21  22
ENDBRANCH   1  21
TORSDOF 10
ENDMDL
MODEL 4
REMARK VINA RESULT:      -7.6      4.309     10.603
REMARK  Name = 
REMARK  10 active torsions:
REMARK  status: ('A' for Active; 'I' for Inactive)
REMARK    1  A    between atoms: C_2  and  O_3
REMARK    2  A    between atoms: C_2  and  C_4
REMARK    3  A    between atoms: C_4  and  O_5
REMARK    4  A    between atoms: O_5  and  C_6
REMARK    5  A    between atoms: N_9  and  C_10
REMARK    6  A    between atoms: C_10  and  C_11
REMARK    7  A    between atoms: C_11  and  N_12
REMARK    8  A    between atoms: N_12  and  C_21
REMARK    9  A    between atoms: C_13  and  C_15
REMARK   10  A    between atoms: C_24  and  N_25
REMARK                            x       y       z     vdW  Elec       q    Type
REMARK                         _______ _______ _______ _____ _____    ______ ____
ROOT
ATOM      1  N   UNL     1       0.362   9.773  19.942  0.00  0.00    +0.000 N 
ATOM      2  C   UNL     1       0.546  10.314  21.258  0.00  0.00    +0.000 C 
ATOM      3  O   UNL     1       1.517   9.991  21.960  0.00  0.00    +0.000 OA
ENDROOT
BRANCH   2   4
ATOM      4  C   UNL     1      -0.323  11.350  21.918  0.00  0.00    +0.000 A 
ATOM      5  C   UNL     1      -1.302  11.043  22.851  0.00  0.00    +0.000 A 
ATOM      6  C   UNL     1      -2.236  11.993  23.280  0.00  0.00    +0.000 A 
ATOM      7  C   UNL     1      -2.011  13.337  23.027  0.00  0.00    +0.000 A 
ATOM      8  C   UNL     1      -0.870  13.703  22.326  0.00  0.00    +0.000 A 
ATOM      9  C   UNL     1      -0.054  12.719  21.733  0.00  0.00    +0.000 A 
ENDBRANCH   2   4
BRANCH   1  10
ATOM     10  C   UNL     1       1.339   8.781  19.529  0.00  0.00    +0.000 A 
ATOM     11  C   UNL     1       1.600   7.664  20.314  0.00  0.00    +0.000 A 
ATOM     12  C   UNL     1       2.493   6.669  19.880  0.00  0.00    +0.000 A 
ATOM     13  C   UNL     1       3.199   6.762  18.668  0.00  0.00    +0.000 A 
ATOM     14  C   UNL     1       2.918   7.899  17.890  0.00  0.00    +0.000 A 
ATOM     15  C   UNL     1       2.002   8.880  18.300  0.00  0.00    +0.000 A 
BRANCH  13  16
ATOM     16  N   UNL     1       4.112   5.809  18.270  0.00  0.00    +0.000 N 
ATOM     17  C   UNL     1       4.982   5.064  19.173  0.00  0.00    +0.000 C 
ATOM     18  C   UNL     1       6.236   4.826  18.345  0.00  0.00    +0.000 C 
ATOM     19  C   UNL     1       5.700   4.638  16.937  0.00  0.00    +0.000 C 
ATOM     20  C   UNL     1       4.468   5.548  16.875  0.00  0.00    +0.000 C 
ENDBRANCH  13  16
ENDBRANCH   1  10
BRANCH   1  21
ATOM     21  C   UNL     1      -0.635  10.040  18.820  0.00  0.00    +0.000 C 
BRANCH  21  22
ATOM     22  C   UNL     1      -1.015  11.490  18.548  0.00  0.00    +0.000 C 
BRANCH  22  26
ATOM     23  C   UNL     1      -5.280  11.813  18.247  0.00  0.00    +0.000 C 
ATOM     24  C   UNL     1      -4.428  11.708  16.989  0.00  0.00    +0.000 C 
ATOM     25  C   UNL     1      -3.023  11.224  17.330  0.00  0.00    +0.000 C 
ATOM     26  N   UNL     1      -2.358  12.049  18.375  0.00  0.00    +0.000 NA
ATOM     27  C   UNL     1      -3.133  12.083  19.606  0.00  0.00    +0.000 C 
ATOM     28  C   UNL     1      -4.531  12.628  19.309  0.00  0.00    +0.000 C 
BRANCH  23  29
ATOM     29  O   UNL     1      -5.616  10.479  18.677  0.00  0.00    +0.000 OA
BRANCH  29  30
ATOM     30  C   UNL     1      -7.027  10.304  18.862  0.00  0.00    +0.000 C 
BRANCH  30  32
ATOM     31  O   UNL     1      -7.454   9.898  21.229  0.00  0.00    +0.000 OA
ATOM     32  C   UNL     1      -7.311   9.449  20.084  0.00  0.00    +0.000 C 
BRANCH  32  33
ATOM     33  O   UNL     1      -7.392   8.127  19.794  0.00  0.00    +0.000 OA
ATOM     34  H   UNL     1      -7.703   8.044  18.861  0.00  0.00    +0.000 HD
ENDBRANCH  32  33
ENDBRANCH  30  32
ENDBRANCH  29  30
ENDBRANCH  23  29
ENDBRANCH  22  26
ENDBRANCH  21  22
ENDBRANCH   1  21
TORSDOF 10
ENDMDL
MODEL 5
REMARK VINA RESULT:      -7.6      1.135      1.522
REMARK  Name = 
REMARK  10 active torsions:
REMARK  status: ('A' for Active; 'I' for Inactive)
REMARK    1  A    between atoms: C_2  and  O_3
REMARK    2  A    between atoms: C_2  and  C_4
REMARK    3  A    between atoms: C_4  and  O_5
REMARK    4  A    between atoms: O_5  and  C_6
REMARK    5  A    between atoms: N_9  and  C_10
REMARK    6  A    between atoms: C_10  and  C_11
REMARK    7  A    between atoms: C_11  and  N_12
REMARK    8  A    between atoms: N_12  and  C_21
REMARK    9  A    between atoms: C_13  and  C_15
REMARK   10  A    between atoms: C_24  and  N_25
REMARK                            x       y       z     vdW  Elec       q    Type
REMARK                         _______ _______ _______ _____ _____    ______ ____
ROOT
ATOM      1  N   UNL     1       2.246   7.227  19.104  0.00  0.00    +0.000 N 
ATOM      2  C   UNL     1       2.020   5.964  19.746  0.00  0.00    +0.000 C 
ATOM      3  O   UNL     1       1.263   5.861  20.723  0.00  0.00    +0.000 OA
ENDROOT
BRANCH   2   4
ATOM      4  C   UNL     1       2.580   4.637  19.308  0.00  0.00    +0.000 A 
ATOM      5  C   UNL     1       3.629   4.001  19.954  0.00  0.00    +0.000 A 
ATOM      6  C   UNL     1       4.270   2.886  19.402  0.00  0.00    +0.000 A 
ATOM      7  C   UNL     1       3.671   2.202  18.355  0.00  0.00    +0.000 A 
ATOM      8  C   UNL     1       2.457   2.661  17.866  0.00  0.00    +0.000 A 
ATOM      9  C   UNL     1       1.934   3.895  18.302  0.00  0.00    +0.000 A 
ENDBRANCH   2   4
BRANCH   1  10
ATOM     10  C   UNL     1       1.592   8.369  19.719  0.00  0.00    +0.000 A 
ATOM     11  C   UNL     1       0.814   9.239  18.963  0.00  0.00    +0.000 A 
ATOM     12  C   UNL     1       0.123  10.303  19.570  0.00  0.00    +0.000 A 
ATOM     13  C   UNL     1       0.211  10.575  20.947  0.00  0.00    +0.000 A 
ATOM     14  C   UNL     1       1.002   9.680  21.690  0.00  0.00    +0.000 A 
ATOM     15  C   UNL     1       1.666   8.595  21.098  0.00  0.00    +0.000 A 
BRANCH  13  16
ATOM     16  N   UNL     1      -0.426  11.648  21.529  0.00  0.00    +0.000 N 
ATOM     17  C   UNL     1      -0.057  13.045  21.324  0.00  0.00    +0.000 C 
ATOM     18  C   UNL     1      -0.402  13.704  22.652  0.00  0.00    +0.000 C 
ATOM     19  C   UNL     1      -1.641  12.953  23.108  0.00  0.00    +0.000 C 
ATOM     20  C   UNL     1      -1.438  11.529  22.580  0.00  0.00    +0.000 C 
ENDBRANCH  13  16
ENDBRANCH   1  10
BRANCH   1  21
ATOM     21  C   UNL     1       3.009   7.657  17.857  0.00  0.00    +0.000 C 
BRANCH  21  22
ATOM     22  C   UNL     1       4.513   7.416  17.835  0.00  0.00    +0.000 C 
BRANCH  22  26
ATOM     23  C   UNL     1       7.007   4.339  16.191  0.00  0.00    +0.000 C 
ATOM     24  C   UNL     1       5.503   4.316  15.953  0.00  0.00    +0.000 C 
ATOM     25  C   UNL     1       4.885   5.670  16.285  0.00  0.00    +0.000 C 
ATOM     26  N   UNL     1       5.216   6.142  17.657  0.00  0.00    +0.000 NA
ATOM     27  C   UNL     1       6.654   6.243  17.859  0.00  0.00    +0.000 C 
ATOM     28  C   UNL     1       7.297   4.880  17.597  0.00  0.00    +0.000 C 
BRANCH  23  29
ATOM     29  O   UNL     1       7.619   5.113  15.140  0.00  0.00    +0.000 OA
BRANCH  29  30
ATOM     30  C   UNL     1       7.144   4.739  13.840  0.00  0.00    +0.000 C 
BRANCH  30  32
ATOM     31  O   UNL     1       8.971   6.097  12.964  0.00  0.00    +0.000 OA
ATOM     32  C   UNL     1       7.972   5.399  12.751  0.00  0.00    +0.000 C 
BRANCH  32  33
ATOM     33  O   UNL     1       7.502   5.144  11.505  0.00  0.00    +0.000 OA
ATOM     34  H   UNL     1       6.551   5.409  11.484  0.00  0.00    +0.000 HD
ENDBRANCH  32  33
ENDBRANCH  30  32
ENDBRANCH  29  30
ENDBRANCH  23  29
ENDBRANCH  22  26
ENDBRANCH  21  22
ENDBRANCH   1  21
TORSDOF 10
ENDMDL
MODEL 6
REMARK VINA RESULT:      -7.5      1.126      1.794
REMARK  Name = 
REMARK  10 active torsions:
REMARK  status: ('A' for Active; 'I' for Inactive)
REMARK    1  A    between atoms: C_2  and  O_3
REMARK    2  A    between atoms: C_2  and  C_4
REMARK    3  A    between atoms: C_4  and  O_5
REMARK    4  A    between atoms: O_5  and  C_6
REMARK    5  A    between atoms: N_9  and  C_10
REMARK    6  A    between atoms: C_10  and  C_11
REMARK    7  A    between atoms: C_11  and  N_12
REMARK    8  A    between atoms: N_12  and  C_21
REMARK    9  A    between atoms: C_13  and  C_15
REMARK   10  A    between atoms: C_24  and  N_25
REMARK                            x       y       z     vdW  Elec       q    Type
REMARK                         _______ _______ _______ _____ _____    ______ ____
ROOT
ATOM      1  N   UNL     1       2.424   6.625  19.416  0.00  0.00    +0.000 N 
ATOM      2  C   UNL     1       1.900   5.342  19.787  0.00  0.00    +0.000 C 
ATOM      3  O   UNL     1       0.870   5.237  20.470  0.00  0.00    +0.000 OA
ENDROOT
BRANCH   2   4
ATOM      4  C   UNL     1       2.451   4.006  19.365  0.00  0.00    +0.000 A 
ATOM      5  C   UNL     1       3.389   3.300  20.102  0.00  0.00    +0.000 A 
ATOM      6  C   UNL     1       4.042   2.177  19.583  0.00  0.00    +0.000 A 
ATOM      7  C   UNL     1       3.541   1.557  18.449  0.00  0.00    +0.000 A 
ATOM      8  C   UNL     1       2.413   2.089  17.841  0.00  0.00    +0.000 A 
ATOM      9  C   UNL     1       1.896   3.330  18.263  0.00  0.00    +0.000 A 
ENDBRANCH   2   4
BRANCH   1  10
ATOM     10  C   UNL     1       1.713   7.772  19.953  0.00  0.00    +0.000 A 
ATOM     11  C   UNL     1       1.462   7.885  21.315  0.00  0.00    +0.000 A 
ATOM     12  C   UNL     1       0.837   9.028  21.843  0.00  0.00    +0.000 A 
ATOM     13  C   UNL     1       0.394  10.090  21.034  0.00  0.00    +0.000 A 
ATOM     14  C   UNL     1       0.661   9.955  19.660  0.00  0.00    +0.000 A 
ATOM     15  C   UNL     1       1.316   8.832  19.130  0.00  0.00    +0.000 A 
BRANCH  13  16
ATOM     16  N   UNL     1      -0.264  11.185  21.549  0.00  0.00    +0.000 N 
ATOM     17  C   UNL     1      -0.187  12.534  20.998  0.00  0.00    +0.000 C 
ATOM     18  C   UNL     1      -0.327  13.428  22.223  0.00  0.00    +0.000 C 
ATOM     19  C   UNL     1      -1.289  12.660  23.112  0.00  0.00    +0.000 C 
ATOM     20  C   UNL     1      -0.978  11.187  22.826  0.00  0.00    +0.000 C 
ENDBRANCH  13  16
ENDBRANCH   1  10
BRANCH   1  21
ATOM     21  C   UNL     1       3.574   7.079  18.523  0.00  0.00    +0.000 C 
BRANCH  21  22
ATOM     22  C   UNL     1       4.937   6.441  18.754  0.00  0.00    +0.000 C 
BRANCH  22  26
ATOM     23  C   UNL     1       6.685   4.230  15.522  0.00  0.00    +0.000 C 
ATOM     24  C   UNL     1       5.217   4.036  15.879  0.00  0.00    +0.000 C 
ATOM     25  C   UNL     1       4.726   5.169  16.772  0.00  0.00    +0.000 C 
ATOM     26  N   UNL     1       5.565   5.361  17.986  0.00  0.00    +0.000 NA
ATOM     27  C   UNL     1       6.954   5.628  17.644  0.00  0.00    +0.000 C 
ATOM     28  C   UNL     1       7.497   4.473  16.800  0.00  0.00    +0.000 C 
BRANCH  23  29
ATOM     29  O   UNL     1       6.779   5.305  14.567  0.00  0.00    +0.000 OA
BRANCH  29  30
ATOM     30  C   UNL     1       7.239   4.858  13.285  0.00  0.00    +0.000 C 
BRANCH  30  32
ATOM     31  O   UNL     1       9.375   6.035  13.284  0.00  0.00    +0.000 OA
ATOM     32  C   UNL     1       8.294   5.798  12.730  0.00  0.00    +0.000 C 
BRANCH  32  33
ATOM     33  O   UNL     1       7.930   6.361  11.550  0.00  0.00    +0.000 OA
ATOM     34  H   UNL     1       8.303   5.803  10.826  0.00  0.00    +0.000 HD
ENDBRANCH  32  33
ENDBRANCH  30  32
ENDBRANCH  29  30
ENDBRANCH  23  29
ENDBRANCH  22  26
ENDBRANCH  21  22
ENDBRANCH   1  21
TORSDOF 10
ENDMDL
MODEL 7
REMARK VINA RESULT:      -7.3      0.770      1.358
REMARK  Name = 
REMARK  10 active torsions:
REMARK  status: ('A' for Active; 'I' for Inactive)
REMARK    1  A    between atoms: C_2  and  O_3
REMARK    2  A    between atoms: C_2  and  C_4
REMARK    3  A    between atoms: C_4  and  O_5
REMARK    4  A    between atoms: O_5  and  C_6
REMARK    5  A    between atoms: N_9  and  C_10
REMARK    6  A    between atoms: C_10  and  C_11
REMARK    7  A    between atoms: C_11  and  N_12
REMARK    8  A    between atoms: N_12  and  C_21
REMARK    9  A    between atoms: C_13  and  C_15
REMARK   10  A    between atoms: C_24  and  N_25
REMARK                            x       y       z     vdW  Elec       q    Type
REMARK                         _______ _______ _______ _____ _____    ______ ____
ROOT
ATOM      1  N   UNL     1       2.447   6.631  19.473  0.00  0.00    +0.000 N 
ATOM      2  C   UNL     1       1.870   5.358  19.796  0.00  0.00    +0.000 C 
ATOM      3  O   UNL     1       0.797   5.273  20.414  0.00  0.00    +0.000 OA
ENDROOT
BRANCH   2   4
ATOM      4  C   UNL     1       2.411   4.013  19.392  0.00  0.00    +0.000 A 
ATOM      5  C   UNL     1       3.458   3.384  20.047  0.00  0.00    +0.000 A 
ATOM      6  C   UNL     1       4.082   2.247  19.521  0.00  0.00    +0.000 A 
ATOM      7  C   UNL     1       3.466   1.540  18.500  0.00  0.00    +0.000 A 
ATOM      8  C   UNL     1       2.253   1.999  18.008  0.00  0.00    +0.000 A 
ATOM      9  C   UNL     1       1.748   3.250  18.413  0.00  0.00    +0.000 A 
ENDBRANCH   2   4
BRANCH   1  10
ATOM     10  C   UNL     1       1.734   7.790  19.979  0.00  0.00    +0.000 A 
ATOM     11  C   UNL     1       1.544   7.973  21.345  0.00  0.00    +0.000 A 
ATOM     12  C   UNL     1       0.916   9.130  21.838  0.00  0.00    +0.000 A 
ATOM     13  C   UNL     1       0.410  10.135  20.995  0.00  0.00    +0.000 A 
ATOM     14  C   UNL     1       0.615   9.929  19.619  0.00  0.00    +0.000 A 
ATOM     15  C   UNL     1       1.272   8.794  19.120  0.00  0.00    +0.000 A 
BRANCH  13  16
ATOM     16  N   UNL     1      -0.250  11.243  21.479  0.00  0.00    +0.000 N 
ATOM     17  C   UNL     1      -0.284  12.544  20.821  0.00  0.00    +0.000 C 
ATOM     18  C   UNL     1      -0.357  13.529  21.979  0.00  0.00    +0.000 C 
ATOM     19  C   UNL     1      -1.202  12.800  23.009  0.00  0.00    +0.000 C 
ATOM     20  C   UNL     1      -0.850  11.322  22.812  0.00  0.00    +0.000 C 
ENDBRANCH  13  16
ENDBRANCH   1  10
BRANCH   1  21
ATOM     21  C   UNL     1       3.659   7.065  18.657  0.00  0.00    +0.000 C 
BRANCH  21  22
ATOM     22  C   UNL     1       3.872   6.396  17.305  0.00  0.00    +0.000 C 
BRANCH  22  26
ATOM     23  C   UNL     1       6.678   4.270  14.856  0.00  0.00    +0.000 C 
ATOM     24  C   UNL     1       6.345   3.767  16.255  0.00  0.00    +0.000 C 
ATOM     25  C   UNL     1       5.076   4.431  16.777  0.00  0.00    +0.000 C 
ATOM     26  N   UNL     1       5.131   5.918  16.728  0.00  0.00    +0.000 NA
ATOM     27  C   UNL     1       5.368   6.402  15.376  0.00  0.00    +0.000 C 
ATOM     28  C   UNL     1       6.672   5.804  14.846  0.00  0.00    +0.000 C 
BRANCH  23  29
ATOM     29  O   UNL     1       5.739   3.686  13.931  0.00  0.00    +0.000 OA
BRANCH  29  30
ATOM     30  C   UNL     1       6.314   3.465  12.636  0.00  0.00    +0.000 C 
BRANCH  30  32
ATOM     31  O   UNL     1       4.233   3.080  11.424  0.00  0.00    +0.000 OA
ATOM     32  C   UNL     1       5.361   2.687  11.747  0.00  0.00    +0.000 C 
BRANCH  32  33
ATOM     33  O   UNL     1       5.875   1.502  11.335  0.00  0.00    +0.000 OA
ATOM     34  H   UNL     1       5.129   0.956  10.988  0.00  0.00    +0.000 HD
ENDBRANCH  32  33
ENDBRANCH  30  32
ENDBRANCH  29  30
ENDBRANCH  23  29
ENDBRANCH  22  26
ENDBRANCH  21  22
ENDBRANCH   1  21
TORSDOF 10
ENDMDL
MODEL 8
REMARK VINA RESULT:      -7.2      1.812      2.917
REMARK  Name = 
REMARK  10 active torsions:
REMARK  status: ('A' for Active; 'I' for Inactive)
REMARK    1  A    between atoms: C_2  and  O_3
REMARK    2  A    between atoms: C_2  and  C_4
REMARK    3  A    between atoms: C_4  and  O_5
REMARK    4  A    between atoms: O_5  and  C_6
REMARK    5  A    between atoms: N_9  and  C_10
REMARK    6  A    between atoms: C_10  and  C_11
REMARK    7  A    between atoms: C_11  and  N_12
REMARK    8  A    between atoms: N_12  and  C_21
REMARK    9  A    between atoms: C_13  and  C_15
REMARK   10  A    between atoms: C_24  and  N_25
REMARK                            x       y       z     vdW  Elec       q    Type
REMARK                         _______ _______ _______ _____ _____    ______ ____
ROOT
ATOM      1  N   UNL     1       2.365   6.836  19.698  0.00  0.00    +0.000 N 
ATOM      2  C   UNL     1       1.777   5.580  20.067  0.00  0.00    +0.000 C 
ATOM      3  O   UNL     1       0.737   5.527  20.742  0.00  0.00    +0.000 OA
ENDROOT
BRANCH   2   4
ATOM      4  C   UNL     1       2.266   4.219  19.653  0.00  0.00    +0.000 A 
ATOM      5  C   UNL     1       3.153   3.465  20.406  0.00  0.00    +0.000 A 
ATOM      6  C   UNL     1       3.758   2.310  19.898  0.00  0.00    +0.000 A 
ATOM      7  C   UNL     1       3.247   1.718  18.753  0.00  0.00    +0.000 A 
ATOM      8  C   UNL     1       2.159   2.307  18.125  0.00  0.00    +0.000 A 
ATOM      9  C   UNL     1       1.699   3.573  18.539  0.00  0.00    +0.000 A 
ENDBRANCH   2   4
BRANCH   1  10
ATOM     10  C   UNL     1       1.705   8.017  20.225  0.00  0.00    +0.000 A 
ATOM     11  C   UNL     1       1.682   8.274  21.591  0.00  0.00    +0.000 A 
ATOM     12  C   UNL     1       1.106   9.452  22.096  0.00  0.00    +0.000 A 
ATOM     13  C   UNL     1       0.488  10.407  21.269  0.00  0.00    +0.000 A 
ATOM     14  C   UNL     1       0.524  10.127  19.891  0.00  0.00    +0.000 A 
ATOM     15  C   UNL     1       1.129   8.969  19.376  0.00  0.00    +0.000 A 
BRANCH  13  16
ATOM     16  N   UNL     1      -0.121  11.536  21.771  0.00  0.00    +0.000 N 
ATOM     17  C   UNL     1      -1.386  11.544  22.499  0.00  0.00    +0.000 C 
ATOM     18  C   UNL     1      -2.004  12.884  22.124  0.00  0.00    +0.000 C 
ATOM     19  C   UNL     1      -0.803  13.805  22.005  0.00  0.00    +0.000 C 
ATOM     20  C   UNL     1       0.319  12.901  21.484  0.00  0.00    +0.000 C 
ENDBRANCH  13  16
ENDBRANCH   1  10
BRANCH   1  21
ATOM     21  C   UNL     1       3.541   7.232  18.813  0.00  0.00    +0.000 C 
BRANCH  21  22
ATOM     22  C   UNL     1       3.461   6.872  17.335  0.00  0.00    +0.000 C 
BRANCH  22  26
ATOM     23  C   UNL     1       6.702   4.510  15.817  0.00  0.00    +0.000 C 
ATOM     24  C   UNL     1       6.082   5.604  14.958  0.00  0.00    +0.000 C 
ATOM     25  C   UNL     1       5.238   6.544  15.810  0.00  0.00    +0.000 C 
ATOM     26  N   UNL     1       4.211   5.835  16.621  0.00  0.00    +0.000 NA
ATOM     27  C   UNL     1       4.810   4.846  17.503  0.00  0.00    +0.000 C 
ATOM     28  C   UNL     1       5.613   3.845  16.668  0.00  0.00    +0.000 C 
BRANCH  23  29
ATOM     29  O   UNL     1       7.764   5.095  16.597  0.00  0.00    +0.000 OA
BRANCH  29  30
ATOM     30  C   UNL     1       7.824   4.562  17.926  0.00  0.00    +0.000 C 
BRANCH  30  32
ATOM     31  O   UNL     1       7.685   5.486  20.179  0.00  0.00    +0.000 OA
ATOM     32  C   UNL     1       7.774   5.673  18.958  0.00  0.00    +0.000 C 
BRANCH  32  33
ATOM     33  O   UNL     1       7.838   6.910  18.404  0.00  0.00    +0.000 OA
ATOM     34  H   UNL     1       8.679   7.330  18.706  0.00  0.00    +0.000 HD
ENDBRANCH  32  33
ENDBRANCH  30  32
ENDBRANCH  29  30
ENDBRANCH  23  29
ENDBRANCH  22  26
ENDBRANCH  21  22
ENDBRANCH   1  21
TORSDOF 10
ENDMDL
MODEL 9
REMARK VINA RESULT:      -7.2      2.769      8.083
REMARK  Name = 
REMARK  10 active torsions:
REMARK  status: ('A' for Active; 'I' for Inactive)
REMARK    1  A    between atoms: C_2  and  O_3
REMARK    2  A    between atoms: C_2  and  C_4
REMARK    3  A    between atoms: C_4  and  O_5
REMARK    4  A    between atoms: O_5  and  C_6
REMARK    5  A    between atoms: N_9  and  C_10
REMARK    6  A    between atoms: C_10  and  C_11
REMARK    7  A    between atoms: C_11  and  N_12
REMARK    8  A    between atoms: N_12  and  C_21
REMARK    9  A    between atoms: C_13  and  C_15
REMARK   10  A    between atoms: C_24  and  N_25
REMARK                            x       y       z     vdW  Elec       q    Type
REMARK                         _______ _______ _______ _____ _____    ______ ____
ROOT
ATOM      1  N   UNL     1       2.504   7.510  18.970  0.00  0.00    +0.000 N 
ATOM      2  C   UNL     1       1.818   8.666  18.469  0.00  0.00    +0.000 C 
ATOM      3  O   UNL     1       1.910   9.007  17.279  0.00  0.00    +0.000 OA
ENDROOT
BRANCH   2   4
ATOM      4  C   UNL     1       0.880   9.546  19.250  0.00  0.00    +0.000 A 
ATOM      5  C   UNL     1      -0.254  10.129  18.703  0.00  0.00    +0.000 A 
ATOM      6  C   UNL     1      -0.981  11.111  19.384  0.00  0.00    +0.000 A 
ATOM      7  C   UNL     1      -0.773  11.297  20.742  0.00  0.00    +0.000 A 
ATOM      8  C   UNL     1       0.175  10.516  21.386  0.00  0.00    +0.000 A 
ATOM      9  C   UNL     1       1.031   9.680  20.642  0.00  0.00    +0.000 A 
ENDBRANCH   2   4
BRANCH   1  10
ATOM     10  C   UNL     1       3.357   6.823  18.017  0.00  0.00    +0.000 A 
ATOM     11  C   UNL     1       3.209   5.462  17.776  0.00  0.00    +0.000 A 
ATOM     12  C   UNL     1       3.986   4.812  16.802  0.00  0.00    +0.000 A 
ATOM     13  C   UNL     1       4.976   5.476  16.056  0.00  0.00    +0.000 A 
ATOM     14  C   UNL     1       5.106   6.852  16.315  0.00  0.00    +0.000 A 
ATOM     15  C   UNL     1       4.310   7.516  17.261  0.00  0.00    +0.000 A 
BRANCH  13  16
ATOM     16  N   UNL     1       5.771   4.825  15.139  0.00  0.00    +0.000 N 
ATOM     17  C   UNL     1       7.220   4.970  15.043  0.00  0.00    +0.000 C 
ATOM     18  C   UNL     1       7.498   4.793  13.557  0.00  0.00    +0.000 C 
ATOM     19  C   UNL     1       6.470   3.762  13.126  0.00  0.00    +0.000 C 
ATOM     20  C   UNL     1       5.254   4.044  14.014  0.00  0.00    +0.000 C 
ENDBRANCH  13  16
ENDBRANCH   1  10
BRANCH   1  21
ATOM     21  C   UNL     1       2.511   6.786  20.312  0.00  0.00    +0.000 C 
BRANCH  21  22
ATOM     22  C   UNL     1       1.269   5.988  20.687  0.00  0.00    +0.000 C 
BRANCH  22  26
ATOM     23  C   UNL     1       1.721   1.873  19.568  0.00  0.00    +0.000 C 
ATOM     24  C   UNL     1       0.627   2.724  18.936  0.00  0.00    +0.000 C 
ATOM     25  C   UNL     1       0.891   4.206  19.180  0.00  0.00    +0.000 C 
ATOM     26  N   UNL     1       1.080   4.536  20.619  0.00  0.00    +0.000 NA
ATOM     27  C   UNL     1       2.178   3.783  21.204  0.00  0.00    +0.000 C 
ATOM     28  C   UNL     1       1.912   2.286  21.033  0.00  0.00    +0.000 C 
BRANCH  23  29
ATOM     29  O   UNL     1       2.915   2.008  18.773  0.00  0.00    +0.000 OA
BRANCH  29  30
ATOM     30  C   UNL     1       3.968   1.143  19.217  0.00  0.00    +0.000 C 
BRANCH  30  32
ATOM     31  O   UNL     1       5.331   1.495  21.208  0.00  0.00    +0.000 OA
ATOM     32  C   UNL     1       4.949   1.892  20.100  0.00  0.00    +0.000 C 
BRANCH  32  33
ATOM     33  O   UNL     1       5.371   3.057  19.548  0.00  0.00    +0.000 OA
ATOM     34  H   UNL     1       5.746   2.848  18.659  0.00  0.00    +0.000 HD
ENDBRANCH  32  33
ENDBRANCH  30  32
ENDBRANCH  29  30
ENDBRANCH  23  29
ENDBRANCH  22  26
ENDBRANCH  21  22
ENDBRANCH   1  21
TORSDOF 10
ENDMDL
