MODEL 1
REMARK VINA RESULT:      -8.5      0.000      0.000
REMARK  Name = 
REMARK  14 active torsions:
REMARK  status: ('A' for Active; 'I' for Inactive)
REMARK    1  A    between atoms: C_1  and  C_2
REMARK    2  A    between atoms: C_2  and  C_3
REMARK    3  A    between atoms: C_2  and  C_4
REMARK    4  A    between atoms: C_4  and  C_5
REMARK    5  A    between atoms: C_5  and  N_6
REMARK    6  A    between atoms: C_5  and  C_28
REMARK    7  A    between atoms: C_7  and  C_9
REMARK    8  A    between atoms: C_11  and  C_12
REMARK    9  A    between atoms: C_12  and  O_13
REMARK   10  A    between atoms: O_13  and  C_14
REMARK   11  A    between atoms: C_22  and  C_23
REMARK   12  A    between atoms: C_23  and  C_24
REMARK   13  A    between atoms: C_24  and  C_25
REMARK   14  A    between atoms: C_25  and  O_27
REMARK                            x       y       z     vdW  Elec       q    Type
REMARK                         _______ _______ _______ _____ _____    ______ ____
ROOT
ATOM      1  C   UNL     1       2.862   6.980  18.836  0.00  0.00    +0.000 A 
ATOM      2  C   UNL     1       3.632   7.247  17.679  0.00  0.00    +0.000 A 
ATOM      3  C   UNL     1       4.437   6.259  17.077  0.00  0.00    +0.000 A 
ATOM      4  C   UNL     1       4.516   5.002  17.676  0.00  0.00    +0.000 A 
ATOM      5  C   UNL     1       3.759   4.713  18.807  0.00  0.00    +0.000 A 
ATOM      6  C   UNL     1       2.910   5.678  19.388  0.00  0.00    +0.000 A 
ENDROOT
BRANCH   1   8
ATOM      7  N   UNL     1       1.422   8.960  18.477  0.00  0.00    +0.000 N 
ATOM      8  C   UNL     1       1.949   8.053  19.389  0.00  0.00    +0.000 C 
ATOM      9  O   UNL     1       1.673   8.085  20.585  0.00  0.00    +0.000 OA
ATOM     10  H   UNL     1       1.765   8.974  17.527  0.00  0.00    +0.000 HD
BRANCH   7  11
ATOM     11  C   UNL     1       0.471  10.006  18.854  0.00  0.00    +0.000 C 
BRANCH  11  12
ATOM     12  C   UNL     1       1.182  11.345  19.036  0.00  0.00    +0.000 A 
ATOM     13  C   UNL     1       2.143  11.753  18.093  0.00  0.00    +0.000 A 
ATOM     14  C   UNL     1       2.864  12.940  18.268  0.00  0.00    +0.000 A 
ATOM     15  C   UNL     1       2.625  13.734  19.385  0.00  0.00    +0.000 A 
ATOM     16  F   UNL     1       3.337  14.859  19.541  0.00  0.00    +0.000 F 
ATOM     17  C   UNL     1       1.668  13.359  20.323  0.00  0.00    +0.000 A 
ATOM     18 CL   UNL     1       1.378  14.332  21.714  0.00  0.00    +0.000 Cl
ATOM     19  C   UNL     1       0.945  12.175  20.150  0.00  0.00    +0.000 A 
ENDBRANCH  11  12
BRANCH  11  20
ATOM     20  C   UNL     1      -0.682  10.147  17.826  0.00  0.00    +0.000 C 
BRANCH  20  22
ATOM     21  C   UNL     1      -2.460  11.788  18.656  0.00  0.00    +0.000 C 
ATOM     22  C   UNL     1      -2.089  10.322  18.433  0.00  0.00    +0.000 C 
ATOM     23  C   UNL     1      -3.151   9.668  17.535  0.00  0.00    +0.000 C 
ENDBRANCH  20  22
ENDBRANCH  11  20
ENDBRANCH   7  11
ENDBRANCH   1   8
BRANCH   3  24
ATOM     24  C   UNL     1       5.200   6.531  15.800  0.00  0.00    +0.000 C 
BRANCH  24  25
ATOM     25  O   UNL     1       6.299   5.628  15.724  0.00  0.00    +0.000 OA
BRANCH  25  26
ATOM     26  C   UNL     1       6.506   5.032  14.508  0.00  0.00    +0.000 A 
ATOM     27  C   UNL     1       5.530   4.105  14.134  0.00  0.00    +0.000 A 
ATOM     28  C   UNL     1       5.616   3.432  12.914  0.00  0.00    +0.000 A 
ATOM     29  C   UNL     1       6.673   3.697  12.048  0.00  0.00    +0.000 A 
ATOM     30  C   UNL     1       7.640   4.637  12.404  0.00  0.00    +0.000 A 
ATOM     31  C   UNL     1       7.558   5.306  13.631  0.00  0.00    +0.000 A 
ENDBRANCH  25  26
ENDBRANCH  24  25
ENDBRANCH   3  24
BRANCH   6  32
ATOM     32  C   UNL     1       2.036   5.190  20.527  0.00  0.00    +0.000 C 
BRANCH  32  33
ATOM     33  C   UNL     1       1.638   3.735  20.299  0.00  0.00    +0.000 C 
BRANCH  33  34
ATOM     34  C   UNL     1       2.128   2.866  21.419  0.00  0.00    +0.000 C 
ATOM     35  O   UNL     1       3.285   2.487  21.532  0.00  0.00    +0.000 OA
BRANCH  34  36
ATOM     36  O   UNL     1       1.163   2.550  22.311  0.00  0.00    +0.000 OA
ATOM     37  H   UNL     1       1.514   2.107  23.112  0.00  0.00    +0.000 HD
ENDBRANCH  34  36
ENDBRANCH  33  34
ENDBRANCH  32  33
ENDBRANCH   6  32
TORSDOF 12
ENDMDL
MODEL 2
REMARK VINA RESULT:      -8.5      0.480      1.004
REMARK  Name = 
REMARK  14 active torsions:
REMARK  status: ('A' for Active; 'I' for Inactive)
REMARK    1  A    between atoms: C_1  and  C_2
REMARK    2  A    between atoms: C_2  and  C_3
REMARK    3  A    between atoms: C_2  and  C_4
REMARK    4  A    between atoms: C_4  and  C_5
REMARK    5  A    between atoms: C_5  and  N_6
REMARK    6  A    between atoms: C_5  and  C_28
REMARK    7  A    between atoms: C_7  and  C_9
REMARK    8  A    between atoms: C_11  and  C_12
REMARK    9  A    between atoms: C_12  and  O_13
REMARK   10  A    between atoms: O_13  and  C_14
REMARK   11  A    between atoms: C_22  and  C_23
REMARK   12  A    between atoms: C_23  and  C_24
REMARK   13  A    between atoms: C_24  and  C_25
REMARK   14  A    between atoms: C_25  and  O_27
REMARK                            x       y       z     vdW  Elec       q    Type
REMARK                         _______ _______ _______ _____ _____    ______ ____
ROOT
ATOM      1  C   UNL     1       2.847   6.964  18.961  0.00  0.00    +0.000 A 
ATOM      2  C   UNL     1       3.597   7.186  17.781  0.00  0.00    +0.000 A 
ATOM      3  C   UNL     1       4.411   6.183  17.218  0.00  0.00    +0.000 A 
ATOM      4  C   UNL     1       4.518   4.959  17.877  0.00  0.00    +0.000 A 
ATOM      5  C   UNL     1       3.781   4.713  19.031  0.00  0.00    +0.000 A 
ATOM      6  C   UNL     1       2.923   5.692  19.575  0.00  0.00    +0.000 A 
ENDROOT
BRANCH   1   8
ATOM      7  N   UNL     1       1.427   8.947  18.534  0.00  0.00    +0.000 N 
ATOM      8  C   UNL     1       1.923   8.048  19.473  0.00  0.00    +0.000 C 
ATOM      9  O   UNL     1       1.611   8.096  20.659  0.00  0.00    +0.000 OA
ATOM     10  H   UNL     1       1.800   8.947  17.595  0.00  0.00    +0.000 HD
BRANCH   7  11
ATOM     11  C   UNL     1       0.471  10.001  18.870  0.00  0.00    +0.000 C 
BRANCH  11  12
ATOM     12  C   UNL     1       1.181  11.342  19.040  0.00  0.00    +0.000 A 
ATOM     13  C   UNL     1       2.132  11.749  18.087  0.00  0.00    +0.000 A 
ATOM     14  C   UNL     1       2.852  12.938  18.250  0.00  0.00    +0.000 A 
ATOM     15  C   UNL     1       2.622  13.735  19.366  0.00  0.00    +0.000 A 
ATOM     16  F   UNL     1       3.333  14.862  19.512  0.00  0.00    +0.000 F 
ATOM     17  C   UNL     1       1.674  13.362  20.316  0.00  0.00    +0.000 A 
ATOM     18 CL   UNL     1       1.396  14.339  21.706  0.00  0.00    +0.000 Cl
ATOM     19  C   UNL     1       0.953  12.176  20.153  0.00  0.00    +0.000 A 
ENDBRANCH  11  12
BRANCH  11  20
ATOM     20  C   UNL     1      -0.659  10.124  17.814  0.00  0.00    +0.000 C 
BRANCH  20  22
ATOM     21  C   UNL     1      -2.425  11.834  18.522  0.00  0.00    +0.000 C 
ATOM     22  C   UNL     1      -2.073  10.352  18.386  0.00  0.00    +0.000 C 
ATOM     23  C   UNL     1      -3.130   9.667  17.505  0.00  0.00    +0.000 C 
ENDBRANCH  20  22
ENDBRANCH  11  20
ENDBRANCH   7  11
ENDBRANCH   1   8
BRANCH   3  24
ATOM     24  C   UNL     1       5.153   6.404  15.919  0.00  0.00    +0.000 C 
BRANCH  24  25
ATOM     25  O   UNL     1       6.166   5.410  15.797  0.00  0.00    +0.000 OA
BRANCH  25  26
ATOM     26  C   UNL     1       6.349   4.887  14.544  0.00  0.00    +0.000 A 
ATOM     27  C   UNL     1       7.474   5.362  13.867  0.00  0.00    +0.000 A 
ATOM     28  C   UNL     1       7.781   4.903  12.584  0.00  0.00    +0.000 A 
ATOM     29  C   UNL     1       6.971   3.948  11.977  0.00  0.00    +0.000 A 
ATOM     30  C   UNL     1       5.858   3.453  12.655  0.00  0.00    +0.000 A 
ATOM     31  C   UNL     1       5.545   3.918  13.937  0.00  0.00    +0.000 A 
ENDBRANCH  25  26
ENDBRANCH  24  25
ENDBRANCH   3  24
BRANCH   6  32
ATOM     32  C   UNL     1       2.073   5.246  20.748  0.00  0.00    +0.000 C 
BRANCH  32  33
ATOM     33  C   UNL     1       1.061   4.197  20.297  0.00  0.00    +0.000 C 
BRANCH  33  34
ATOM     34  C   UNL     1       1.405   2.848  20.856  0.00  0.00    +0.000 C 
ATOM     35  O   UNL     1       1.426   2.590  22.051  0.00  0.00    +0.000 OA
BRANCH  34  36
ATOM     36  O   UNL     1       1.676   1.930  19.903  0.00  0.00    +0.000 OA
ATOM     37  H   UNL     1       1.233   2.122  19.050  0.00  0.00    +0.000 HD
ENDBRANCH  34  36
ENDBRANCH  33  34
ENDBRANCH  32  33
ENDBRANCH   6  32
TORSDOF 12
ENDMDL
MODEL 3
REMARK VINA RESULT:      -8.4      3.207      5.131
REMARK  Name = 
REMARK  14 active torsions:
REMARK  status: ('A' for Active; 'I' for Inactive)
REMARK    1  A    between atoms: C_1  and  C_2
REMARK    2  A    between atoms: C_2  and  C_3
REMARK    3  A    between atoms: C_2  and  C_4
REMARK    4  A    between atoms: C_4  and  C_5
REMARK    5  A    between atoms: C_5  and  N_6
REMARK    6  A    between atoms: C_5  and  C_28
REMARK    7  A    between atoms: C_7  and  C_9
REMARK    8  A    between atoms: C_11  and  C_12
REMARK    9  A    between atoms: C_12  and  O_13
REMARK   10  A    between atoms: O_13  and  C_14
REMARK   11  A    between atoms: C_22  and  C_23
REMARK   12  A    between atoms: C_23  and  C_24
REMARK   13  A    between atoms: C_24  and  C_25
REMARK   14  A    between atoms: C_25  and  O_27
REMARK                            x       y       z     vdW  Elec       q    Type
REMARK                         _______ _______ _______ _____ _____    ______ ____
ROOT
ATOM      1  C   UNL     1       1.782   8.102  19.032  0.00  0.00    +0.000 A 
ATOM      2  C   UNL     1       1.994   7.017  18.149  0.00  0.00    +0.000 A 
ATOM      3  C   UNL     1       2.229   5.710  18.620  0.00  0.00    +0.000 A 
ATOM      4  C   UNL     1       2.307   5.497  19.995  0.00  0.00    +0.000 A 
ATOM      5  C   UNL     1       2.089   6.546  20.883  0.00  0.00    +0.000 A 
ATOM      6  C   UNL     1       1.803   7.849  20.424  0.00  0.00    +0.000 A 
ENDROOT
BRANCH   1   8
ATOM      7  N   UNL     1       0.281  10.068  18.931  0.00  0.00    +0.000 N 
ATOM      8  C   UNL     1       1.449   9.468  18.471  0.00  0.00    +0.000 C 
ATOM      9  O   UNL     1       2.202  10.018  17.672  0.00  0.00    +0.000 OA
ATOM     10  H   UNL     1      -0.369   9.536  19.492  0.00  0.00    +0.000 HD
BRANCH   7  11
ATOM     11  C   UNL     1      -0.132  11.413  18.532  0.00  0.00    +0.000 C 
BRANCH  11  12
ATOM     12  C   UNL     1      -1.590  11.420  18.078  0.00  0.00    +0.000 A 
ATOM     13  C   UNL     1      -2.587  11.874  18.960  0.00  0.00    +0.000 A 
ATOM     14  C   UNL     1      -3.940  11.826  18.602  0.00  0.00    +0.000 A 
ATOM     15  C   UNL     1      -4.306  11.332  17.355  0.00  0.00    +0.000 A 
ATOM     16  F   UNL     1      -5.607  11.281  17.038  0.00  0.00    +0.000 F 
ATOM     17  C   UNL     1      -3.335  10.893  16.459  0.00  0.00    +0.000 A 
ATOM     18 CL   UNL     1      -3.786  10.267  14.919  0.00  0.00    +0.000 Cl
ATOM     19  C   UNL     1      -1.984  10.941  16.813  0.00  0.00    +0.000 A 
ENDBRANCH  11  12
BRANCH  11  20
ATOM     20  C   UNL     1       0.082  12.451  19.665  0.00  0.00    +0.000 C 
BRANCH  20  22
ATOM     21  C   UNL     1       1.946  13.434  18.214  0.00  0.00    +0.000 C 
ATOM     22  C   UNL     1       0.867  13.716  19.261  0.00  0.00    +0.000 C 
ATOM     23  C   UNL     1      -0.084  14.794  18.721  0.00  0.00    +0.000 C 
ENDBRANCH  20  22
ENDBRANCH  11  20
ENDBRANCH   7  11
ENDBRANCH   1   8
BRANCH   3  24
ATOM     24  C   UNL     1       2.383   4.543  17.671  0.00  0.00    +0.000 C 
BRANCH  24  25
ATOM     25  O   UNL     1       3.443   3.712  18.136  0.00  0.00    +0.000 OA
BRANCH  25  26
ATOM     26  C   UNL     1       4.699   4.033  17.692  0.00  0.00    +0.000 A 
ATOM     27  C   UNL     1       4.877   3.936  16.311  0.00  0.00    +0.000 A 
ATOM     28  C   UNL     1       6.108   4.244  15.728  0.00  0.00    +0.000 A 
ATOM     29  C   UNL     1       7.166   4.670  16.525  0.00  0.00    +0.000 A 
ATOM     30  C   UNL     1       6.990   4.791  17.903  0.00  0.00    +0.000 A 
ATOM     31  C   UNL     1       5.759   4.475  18.489  0.00  0.00    +0.000 A 
ENDBRANCH  25  26
ENDBRANCH  24  25
ENDBRANCH   3  24
BRANCH   6  32
ATOM     32  C   UNL     1       1.446   8.863  21.492  0.00  0.00    +0.000 C 
BRANCH  32  33
ATOM     33  C   UNL     1      -0.019   8.717  21.890  0.00  0.00    +0.000 C 
BRANCH  33  34
ATOM     34  C   UNL     1      -0.345   9.595  23.062  0.00  0.00    +0.000 C 
ATOM     35  O   UNL     1      -1.363  10.265  23.150  0.00  0.00    +0.000 OA
BRANCH  34  36
ATOM     36  O   UNL     1       0.597   9.562  24.030  0.00  0.00    +0.000 OA
ATOM     37  H   UNL     1       0.253   9.236  24.887  0.00  0.00    +0.000 HD
ENDBRANCH  34  36
ENDBRANCH  33  34
ENDBRANCH  32  33
ENDBRANCH   6  32
TORSDOF 12
ENDMDL
MODEL 4
REMARK VINA RESULT:      -8.3      0.968      1.269
REMARK  Name = 
REMARK  14 active torsions:
REMARK  status: ('A' for Active; 'I' for Inactive)
REMARK    1  A    between atoms: C_1  and  C_2
REMARK    2  A    between atoms: C_2  and  C_3
REMARK    3  A    between atoms: C_2  and  C_4
REMARK    4  A    between atoms: C_4  and  C_5
REMARK    5  A    between atoms: C_5  and  N_6
REMARK    6  A    between atoms: C_5  and  C_28
REMARK    7  A    between atoms: C_7  and  C_9
REMARK    8  A    between atoms: C_11  and  C_12
REMARK    9  A    between atoms: C_12  and  O_13
REMARK   10  A    between atoms: O_13  and  C_14
REMARK   11  A    between atoms: C_22  and  C_23
REMARK   12  A    between atoms: C_23  and  C_24
REMARK   13  A    between atoms: C_24  and  C_25
REMARK   14  A    between atoms: C_25  and  O_27
REMARK                            x       y       z     vdW  Elec       q    Type
REMARK                         _______ _______ _______ _____ _____    ______ ____
ROOT
ATOM      1  C   UNL     1       2.869   6.899  19.047  0.00  0.00    +0.000 A 
ATOM      2  C   UNL     1       3.587   7.153  17.854  0.00  0.00    +0.000 A 
ATOM      3  C   UNL     1       4.464   6.202  17.297  0.00  0.00    +0.000 A 
ATOM      4  C   UNL     1       4.667   5.000  17.974  0.00  0.00    +0.000 A 
ATOM      5  C   UNL     1       3.964   4.723  19.142  0.00  0.00    +0.000 A 
ATOM      6  C   UNL     1       3.045   5.647  19.682  0.00  0.00    +0.000 A 
ENDROOT
BRANCH   1   8
ATOM      7  N   UNL     1       1.386   8.836  18.626  0.00  0.00    +0.000 N 
ATOM      8  C   UNL     1       1.876   7.922  19.554  0.00  0.00    +0.000 C 
ATOM      9  O   UNL     1       1.507   7.911  20.725  0.00  0.00    +0.000 OA
ATOM     10  H   UNL     1       1.802   8.889  17.707  0.00  0.00    +0.000 HD
BRANCH   7  11
ATOM     11  C   UNL     1       0.370   9.836  18.955  0.00  0.00    +0.000 C 
BRANCH  11  12
ATOM     12  C   UNL     1       1.021  11.143  19.402  0.00  0.00    +0.000 A 
ATOM     13  C   UNL     1       0.698  11.682  20.660  0.00  0.00    +0.000 A 
ATOM     14  C   UNL     1       1.222  12.914  21.071  0.00  0.00    +0.000 A 
ATOM     15  C   UNL     1       2.079  13.614  20.229  0.00  0.00    +0.000 A 
ATOM     16  F   UNL     1       2.557  14.798  20.635  0.00  0.00    +0.000 F 
ATOM     17  C   UNL     1       2.426  13.092  18.985  0.00  0.00    +0.000 A 
ATOM     18 CL   UNL     1       3.477  13.962  17.934  0.00  0.00    +0.000 Cl
ATOM     19  C   UNL     1       1.906  11.861  18.574  0.00  0.00    +0.000 A 
ENDBRANCH  11  12
BRANCH  11  20
ATOM     20  C   UNL     1      -0.597  10.096  17.770  0.00  0.00    +0.000 C 
BRANCH  20  22
ATOM     21  C   UNL     1      -2.438  11.743  18.437  0.00  0.00    +0.000 C 
ATOM     22  C   UNL     1      -2.079  10.283  18.158  0.00  0.00    +0.000 C 
ATOM     23  C   UNL     1      -3.000   9.744  17.053  0.00  0.00    +0.000 C 
ENDBRANCH  20  22
ENDBRANCH  11  20
ENDBRANCH   7  11
ENDBRANCH   1   8
BRANCH   3  24
ATOM     24  C   UNL     1       5.171   6.452  15.984  0.00  0.00    +0.000 C 
BRANCH  24  25
ATOM     25  O   UNL     1       6.266   5.548  15.875  0.00  0.00    +0.000 OA
BRANCH  25  26
ATOM     26  C   UNL     1       6.483   5.011  14.633  0.00  0.00    +0.000 A 
ATOM     27  C   UNL     1       5.537   4.067  14.227  0.00  0.00    +0.000 A 
ATOM     28  C   UNL     1       5.637   3.450  12.979  0.00  0.00    +0.000 A 
ATOM     29  C   UNL     1       6.677   3.789  12.118  0.00  0.00    +0.000 A 
ATOM     30  C   UNL     1       7.613   4.746  12.508  0.00  0.00    +0.000 A 
ATOM     31  C   UNL     1       7.518   5.359  13.762  0.00  0.00    +0.000 A 
ENDBRANCH  25  26
ENDBRANCH  24  25
ENDBRANCH   3  24
BRANCH   6  32
ATOM     32  C   UNL     1       2.244   5.162  20.874  0.00  0.00    +0.000 C 
BRANCH  32  33
ATOM     33  C   UNL     1       1.104   4.259  20.411  0.00  0.00    +0.000 C 
BRANCH  33  34
ATOM     34  C   UNL     1       1.391   2.825  20.742  0.00  0.00    +0.000 C 
ATOM     35  O   UNL     1       1.517   1.943  19.904  0.00  0.00    +0.000 OA
BRANCH  34  36
ATOM     36  O   UNL     1       1.517   2.598  22.068  0.00  0.00    +0.000 OA
ATOM     37  H   UNL     1       0.706   2.820  22.572  0.00  0.00    +0.000 HD
ENDBRANCH  34  36
ENDBRANCH  33  34
ENDBRANCH  32  33
ENDBRANCH   6  32
TORSDOF 12
ENDMDL
MODEL 5
REMARK VINA RESULT:      -8.3      3.951      8.793
REMARK  Name = 
REMARK  14 active torsions:
REMARK  status: ('A' for Active; 'I' for Inactive)
REMARK    1  A    between atoms: C_1  and  C_2
REMARK    2  A    between atoms: C_2  and  C_3
REMARK    3  A    between atoms: C_2  and  C_4
REMARK    4  A    between atoms: C_4  and  C_5
REMARK    5  A    between atoms: C_5  and  N_6
REMARK    6  A    between atoms: C_5  and  C_28
REMARK    7  A    between atoms: C_7  and  C_9
REMARK    8  A    between atoms: C_11  and  C_12
REMARK    9  A    between atoms: C_12  and  O_13
REMARK   10  A    between atoms: O_13  and  C_14
REMARK   11  A    between atoms: C_22  and  C_23
REMARK   12  A    between atoms: C_23  and  C_24
REMARK   13  A    between atoms: C_24  and  C_25
REMARK   14  A    between atoms: C_25  and  O_27
REMARK                            x       y       z     vdW  Elec       q    Type
REMARK                         _______ _______ _______ _____ _____    ______ ____
ROOT
ATOM      1  C   UNL     1       2.967   5.953  18.654  0.00  0.00    +0.000 A 
ATOM      2  C   UNL     1       2.802   7.200  18.006  0.00  0.00    +0.000 A 
ATOM      3  C   UNL     1       2.004   8.224  18.553  0.00  0.00    +0.000 A 
ATOM      4  C   UNL     1       1.316   7.974  19.740  0.00  0.00    +0.000 A 
ATOM      5  C   UNL     1       1.471   6.761  20.402  0.00  0.00    +0.000 A 
ATOM      6  C   UNL     1       2.308   5.747  19.889  0.00  0.00    +0.000 A 
ENDROOT
BRANCH   1   8
ATOM      7  N   UNL     1       5.227   5.308  17.879  0.00  0.00    +0.000 N 
ATOM      8  C   UNL     1       3.904   4.922  18.064  0.00  0.00    +0.000 C 
ATOM      9  O   UNL     1       3.504   3.791  17.797  0.00  0.00    +0.000 OA
ATOM     10  H   UNL     1       5.488   6.277  17.998  0.00  0.00    +0.000 HD
BRANCH   7  11
ATOM     11  C   UNL     1       6.260   4.398  17.385  0.00  0.00    +0.000 C 
BRANCH  11  12
ATOM     12  C   UNL     1       6.321   4.425  15.859  0.00  0.00    +0.000 A 
ATOM     13  C   UNL     1       5.360   3.718  15.115  0.00  0.00    +0.000 A 
ATOM     14  C   UNL     1       5.430   3.663  13.718  0.00  0.00    +0.000 A 
ATOM     15  C   UNL     1       6.457   4.323  13.052  0.00  0.00    +0.000 A 
ATOM     16  F   UNL     1       6.514   4.246  11.716  0.00  0.00    +0.000 F 
ATOM     17  C   UNL     1       7.411   5.044  13.767  0.00  0.00    +0.000 A 
ATOM     18 CL   UNL     1       8.692   5.851  12.947  0.00  0.00    +0.000 Cl
ATOM     19  C   UNL     1       7.343   5.101  15.162  0.00  0.00    +0.000 A 
ENDBRANCH  11  12
BRANCH  11  20
ATOM     20  C   UNL     1       7.656   4.718  17.983  0.00  0.00    +0.000 C 
BRANCH  20  22
ATOM     21  C   UNL     1       8.526   5.480  20.265  0.00  0.00    +0.000 C 
ATOM     22  C   UNL     1       7.677   5.838  19.044  0.00  0.00    +0.000 C 
ATOM     23  C   UNL     1       8.202   7.148  18.436  0.00  0.00    +0.000 C 
ENDBRANCH  20  22
ENDBRANCH  11  20
ENDBRANCH   7  11
ENDBRANCH   1   8
BRANCH   3  24
ATOM     24  C   UNL     1       1.892   9.578  17.891  0.00  0.00    +0.000 C 
BRANCH  24  25
ATOM     25  O   UNL     1       1.313  10.493  18.817  0.00  0.00    +0.000 OA
BRANCH  25  26
ATOM     26  C   UNL     1      -0.025  10.743  18.660  0.00  0.00    +0.000 A 
ATOM     27  C   UNL     1      -0.638  10.034  17.625  0.00  0.00    +0.000 A 
ATOM     28  C   UNL     1      -2.001  10.190  17.363  0.00  0.00    +0.000 A 
ATOM     29  C   UNL     1      -2.765  11.047  18.150  0.00  0.00    +0.000 A 
ATOM     30  C   UNL     1      -2.165  11.742  19.200  0.00  0.00    +0.000 A 
ATOM     31  C   UNL     1      -0.797  11.592  19.457  0.00  0.00    +0.000 A 
ENDBRANCH  25  26
ENDBRANCH  24  25
ENDBRANCH   3  24
BRANCH   6  32
ATOM     32  C   UNL     1       2.498   4.535  20.779  0.00  0.00    +0.000 C 
BRANCH  32  33
ATOM     33  C   UNL     1       1.211   3.720  20.843  0.00  0.00    +0.000 C 
BRANCH  33  34
ATOM     34  C   UNL     1       1.180   2.684  19.758  0.00  0.00    +0.000 C 
ATOM     35  O   UNL     1       0.204   2.459  19.057  0.00  0.00    +0.000 OA
BRANCH  34  36
ATOM     36  O   UNL     1       2.352   2.028  19.614  0.00  0.00    +0.000 OA
ATOM     37  H   UNL     1       2.265   1.200  19.097  0.00  0.00    +0.000 HD
ENDBRANCH  34  36
ENDBRANCH  33  34
ENDBRANCH  32  33
ENDBRANCH   6  32
TORSDOF 12
ENDMDL
MODEL 6
REMARK VINA RESULT:      -8.2      1.825      2.711
REMARK  Name = 
REMARK  14 active torsions:
REMARK  status: ('A' for Active; 'I' for Inactive)
REMARK    1  A    between atoms: C_1  and  C_2
REMARK    2  A    between atoms: C_2  and  C_3
REMARK    3  A    between atoms: C_2  and  C_4
REMARK    4  A    between atoms: C_4  and  C_5
REMARK    5  A    between atoms: C_5  and  N_6
REMARK    6  A    between atoms: C_5  and  C_28
REMARK    7  A    between atoms: C_7  and  C_9
REMARK    8  A    between atoms: C_11  and  C_12
REMARK    9  A    between atoms: C_12  and  O_13
REMARK   10  A    between atoms: O_13  and  C_14
REMARK   11  A    between atoms: C_22  and  C_23
REMARK   12  A    between atoms: C_23  and  C_24
REMARK   13  A    between atoms: C_24  and  C_25
REMARK   14  A    between atoms: C_25  and  O_27
REMARK                            x       y       z     vdW  Elec       q    Type
REMARK                         _______ _______ _______ _____ _____    ______ ____
ROOT
ATOM      1  C   UNL     1       2.575   6.729  18.948  0.00  0.00    +0.000 A 
ATOM      2  C   UNL     1       3.438   7.154  17.910  0.00  0.00    +0.000 A 
ATOM      3  C   UNL     1       4.031   6.242  17.015  0.00  0.00    +0.000 A 
ATOM      4  C   UNL     1       3.801   4.879  17.197  0.00  0.00    +0.000 A 
ATOM      5  C   UNL     1       2.946   4.437  18.202  0.00  0.00    +0.000 A 
ATOM      6  C   UNL     1       2.306   5.345  19.072  0.00  0.00    +0.000 A 
ENDROOT
BRANCH   1   8
ATOM      7  N   UNL     1       1.430   8.909  19.197  0.00  0.00    +0.000 N 
ATOM      8  C   UNL     1       1.897   7.759  19.825  0.00  0.00    +0.000 C 
ATOM      9  O   UNL     1       1.747   7.557  21.027  0.00  0.00    +0.000 OA
ATOM     10  H   UNL     1       1.678   9.092  18.235  0.00  0.00    +0.000 HD
BRANCH   7  11
ATOM     11  C   UNL     1       0.695   9.958  19.904  0.00  0.00    +0.000 C 
BRANCH  11  12
ATOM     12  C   UNL     1       1.294  11.331  19.611  0.00  0.00    +0.000 A 
ATOM     13  C   UNL     1       1.994  11.540  18.409  0.00  0.00    +0.000 A 
ATOM     14  C   UNL     1       2.616  12.765  18.142  0.00  0.00    +0.000 A 
ATOM     15  C   UNL     1       2.537  13.796  19.072  0.00  0.00    +0.000 A 
ATOM     16  F   UNL     1       3.152  14.956  18.803  0.00  0.00    +0.000 F 
ATOM     17  C   UNL     1       1.836  13.618  20.262  0.00  0.00    +0.000 A 
ATOM     18 CL   UNL     1       1.747  14.888  21.422  0.00  0.00    +0.000 Cl
ATOM     19  C   UNL     1       1.212  12.397  20.530  0.00  0.00    +0.000 A 
ENDBRANCH  11  12
BRANCH  11  20
ATOM     20  C   UNL     1      -0.817   9.947  19.556  0.00  0.00    +0.000 C 
BRANCH  20  22
ATOM     21  C   UNL     1      -1.744   9.887  17.172  0.00  0.00    +0.000 C 
ATOM     22  C   UNL     1      -1.211  10.762  18.307  0.00  0.00    +0.000 C 
ATOM     23  C   UNL     1      -2.269  11.819  18.662  0.00  0.00    +0.000 C 
ENDBRANCH  20  22
ENDBRANCH  11  20
ENDBRANCH   7  11
ENDBRANCH   1   8
BRANCH   3  24
ATOM     24  C   UNL     1       4.894   6.710  15.865  0.00  0.00    +0.000 C 
BRANCH  24  25
ATOM     25  O   UNL     1       6.145   6.031  15.927  0.00  0.00    +0.000 OA
BRANCH  25  26
ATOM     26  C   UNL     1       6.920   6.294  17.026  0.00  0.00    +0.000 A 
ATOM     27  C   UNL     1       7.360   7.615  17.132  0.00  0.00    +0.000 A 
ATOM     28  C   UNL     1       8.150   8.019  18.210  0.00  0.00    +0.000 A 
ATOM     29  C   UNL     1       8.491   7.103  19.202  0.00  0.00    +0.000 A 
ATOM     30  C   UNL     1       8.039   5.787  19.113  0.00  0.00    +0.000 A 
ATOM     31  C   UNL     1       7.253   5.380  18.029  0.00  0.00    +0.000 A 
ENDBRANCH  25  26
ENDBRANCH  24  25
ENDBRANCH   3  24
BRANCH   6  32
ATOM     32  C   UNL     1       1.293   4.743  20.026  0.00  0.00    +0.000 C 
BRANCH  32  33
ATOM     33  C   UNL     1       1.503   3.236  20.135  0.00  0.00    +0.000 C 
BRANCH  33  34
ATOM     34  C   UNL     1       2.467   2.909  21.236  0.00  0.00    +0.000 C 
ATOM     35  O   UNL     1       2.251   3.125  22.420  0.00  0.00    +0.000 OA
BRANCH  34  36
ATOM     36  O   UNL     1       3.606   2.332  20.793  0.00  0.00    +0.000 OA
ATOM     37  H   UNL     1       4.006   2.808  20.036  0.00  0.00    +0.000 HD
ENDBRANCH  34  36
ENDBRANCH  33  34
ENDBRANCH  32  33
ENDBRANCH   6  32
TORSDOF 12
ENDMDL
MODEL 7
REMARK VINA RESULT:      -8.1      2.555      3.684
REMARK  Name = 
REMARK  14 active torsions:
REMARK  status: ('A' for Active; 'I' for Inactive)
REMARK    1  A    between atoms: C_1  and  C_2
REMARK    2  A    between atoms: C_2  and  C_3
REMARK    3  A    between atoms: C_2  and  C_4
REMARK    4  A    between atoms: C_4  and  C_5
REMARK    5  A    between atoms: C_5  and  N_6
REMARK    6  A    between atoms: C_5  and  C_28
REMARK    7  A    between atoms: C_7  and  C_9
REMARK    8  A    between atoms: C_11  and  C_12
REMARK    9  A    between atoms: C_12  and  O_13
REMARK   10  A    between atoms: O_13  and  C_14
REMARK   11  A    between atoms: C_22  and  C_23
REMARK   12  A    between atoms: C_23  and  C_24
REMARK   13  A    between atoms: C_24  and  C_25
REMARK   14  A    between atoms: C_25  and  O_27
REMARK                            x       y       z     vdW  Elec       q    Type
REMARK                         _______ _______ _______ _____ _____    ______ ____
ROOT
ATOM      1  C   UNL     1       2.658   5.728  18.883  0.00  0.00    +0.000 A 
ATOM      2  C   UNL     1       3.634   6.124  17.937  0.00  0.00    +0.000 A 
ATOM      3  C   UNL     1       4.041   5.275  16.889  0.00  0.00    +0.000 A 
ATOM      4  C   UNL     1       3.504   3.991  16.819  0.00  0.00    +0.000 A 
ATOM      5  C   UNL     1       2.534   3.583  17.729  0.00  0.00    +0.000 A 
ATOM      6  C   UNL     1       2.081   4.442  18.753  0.00  0.00    +0.000 A 
ENDROOT
BRANCH   1   8
ATOM      7  N   UNL     1       1.728   7.941  19.485  0.00  0.00    +0.000 N 
ATOM      8  C   UNL     1       2.195   6.711  19.936  0.00  0.00    +0.000 C 
ATOM      9  O   UNL     1       2.209   6.407  21.126  0.00  0.00    +0.000 OA
ATOM     10  H   UNL     1       1.844   8.197  18.515  0.00  0.00    +0.000 HD
BRANCH   7  11
ATOM     11  C   UNL     1       1.184   8.962  20.380  0.00  0.00    +0.000 C 
BRANCH  11  12
ATOM     12  C   UNL     1       0.674  10.163  19.587  0.00  0.00    +0.000 A 
ATOM     13  C   UNL     1       1.404  11.365  19.605  0.00  0.00    +0.000 A 
ATOM     14  C   UNL     1       0.928  12.506  18.947  0.00  0.00    +0.000 A 
ATOM     15  C   UNL     1      -0.279  12.451  18.259  0.00  0.00    +0.000 A 
ATOM     16  F   UNL     1      -0.724  13.558  17.648  0.00  0.00    +0.000 F 
ATOM     17  C   UNL     1      -1.011  11.267  18.213  0.00  0.00    +0.000 A 
ATOM     18 CL   UNL     1      -2.512  11.199  17.372  0.00  0.00    +0.000 Cl
ATOM     19  C   UNL     1      -0.537  10.127  18.867  0.00  0.00    +0.000 A 
ENDBRANCH  11  12
BRANCH  11  20
ATOM     20  C   UNL     1       0.058   8.403  21.289  0.00  0.00    +0.000 C 
BRANCH  20  22
ATOM     21  C   UNL     1       1.447   9.289  23.247  0.00  0.00    +0.000 C 
ATOM     22  C   UNL     1       0.048   8.943  22.734  0.00  0.00    +0.000 C 
ATOM     23  C   UNL     1      -0.845  10.188  22.840  0.00  0.00    +0.000 C 
ENDBRANCH  20  22
ENDBRANCH  11  20
ENDBRANCH   7  11
ENDBRANCH   1   8
BRANCH   3  24
ATOM     24  C   UNL     1       5.031   5.733  15.841  0.00  0.00    +0.000 C 
BRANCH  24  25
ATOM     25  O   UNL     1       6.304   5.165  16.136  0.00  0.00    +0.000 OA
BRANCH  25  26
ATOM     26  C   UNL     1       7.016   5.771  17.137  0.00  0.00    +0.000 A 
ATOM     27  C   UNL     1       7.255   7.134  16.946  0.00  0.00    +0.000 A 
ATOM     28  C   UNL     1       7.963   7.874  17.896  0.00  0.00    +0.000 A 
ATOM     29  C   UNL     1       8.421   7.256  19.056  0.00  0.00    +0.000 A 
ATOM     30  C   UNL     1       8.167   5.901  19.264  0.00  0.00    +0.000 A 
ATOM     31  C   UNL     1       7.465   5.157  18.309  0.00  0.00    +0.000 A 
ENDBRANCH  25  26
ENDBRANCH  24  25
ENDBRANCH   3  24
BRANCH   6  32
ATOM     32  C   UNL     1       0.923   3.926  19.584  0.00  0.00    +0.000 C 
BRANCH  32  33
ATOM     33  C   UNL     1       1.310   2.623  20.276  0.00  0.00    +0.000 C 
BRANCH  33  34
ATOM     34  C   UNL     1       2.505   2.824  21.161  0.00  0.00    +0.000 C 
ATOM     35  O   UNL     1       3.606   2.339  20.942  0.00  0.00    +0.000 OA
BRANCH  34  36
ATOM     36  O   UNL     1       2.251   3.613  22.228  0.00  0.00    +0.000 OA
ATOM     37  H   UNL     1       2.845   4.391  22.277  0.00  0.00    +0.000 HD
ENDBRANCH  34  36
ENDBRANCH  33  34
ENDBRANCH  32  33
ENDBRANCH   6  32
TORSDOF 12
ENDMDL
MODEL 8
REMARK VINA RESULT:      -8.1      2.589      3.362
REMARK  Name = 
REMARK  14 active torsions:
REMARK  status: ('A' for Active; 'I' for Inactive)
REMARK    1  A    between atoms: C_1  and  C_2
REMARK    2  A    between atoms: C_2  and  C_3
REMARK    3  A    between atoms: C_2  and  C_4
REMARK    4  A    between atoms: C_4  and  C_5
REMARK    5  A    between atoms: C_5  and  N_6
REMARK    6  A    between atoms: C_5  and  C_28
REMARK    7  A    between atoms: C_7  and  C_9
REMARK    8  A    between atoms: C_11  and  C_12
REMARK    9  A    between atoms: C_12  and  O_13
REMARK   10  A    between atoms: O_13  and  C_14
REMARK   11  A    between atoms: C_22  and  C_23
REMARK   12  A    between atoms: C_23  and  C_24
REMARK   13  A    between atoms: C_24  and  C_25
REMARK   14  A    between atoms: C_25  and  O_27
REMARK                            x       y       z     vdW  Elec       q    Type
REMARK                         _______ _______ _______ _____ _____    ______ ____
ROOT
ATOM      1  C   UNL     1       2.674   6.731  18.868  0.00  0.00    +0.000 A 
ATOM      2  C   UNL     1       3.633   7.087  17.890  0.00  0.00    +0.000 A 
ATOM      3  C   UNL     1       4.218   6.130  17.038  0.00  0.00    +0.000 A 
ATOM      4  C   UNL     1       3.879   4.788  17.206  0.00  0.00    +0.000 A 
ATOM      5  C   UNL     1       2.930   4.414  18.152  0.00  0.00    +0.000 A 
ATOM      6  C   UNL     1       2.300   5.370  18.977  0.00  0.00    +0.000 A 
ENDROOT
BRANCH   1   8
ATOM      7  N   UNL     1       1.211   8.721  19.018  0.00  0.00    +0.000 N 
ATOM      8  C   UNL     1       2.015   7.812  19.697  0.00  0.00    +0.000 C 
ATOM      9  O   UNL     1       2.169   7.849  20.915  0.00  0.00    +0.000 OA
ATOM     10  H   UNL     1       1.206   8.730  18.009  0.00  0.00    +0.000 HD
BRANCH   7  11
ATOM     11  C   UNL     1       0.456   9.775  19.696  0.00  0.00    +0.000 C 
BRANCH  11  12
ATOM     12  C   UNL     1      -0.629  10.338  18.781  0.00  0.00    +0.000 A 
ATOM     13  C   UNL     1      -1.282  11.533  19.134  0.00  0.00    +0.000 A 
ATOM     14  C   UNL     1      -2.330  12.038  18.355  0.00  0.00    +0.000 A 
ATOM     15  C   UNL     1      -2.728  11.356  17.210  0.00  0.00    +0.000 A 
ATOM     16  F   UNL     1      -3.743  11.849  16.486  0.00  0.00    +0.000 F 
ATOM     17  C   UNL     1      -2.086  10.180  16.831  0.00  0.00    +0.000 A 
ATOM     18 CL   UNL     1      -2.586   9.325  15.422  0.00  0.00    +0.000 Cl
ATOM     19  C   UNL     1      -1.039   9.675  17.607  0.00  0.00    +0.000 A 
ENDBRANCH  11  12
BRANCH  11  20
ATOM     20  C   UNL     1      -0.169   9.282  21.028  0.00  0.00    +0.000 C 
BRANCH  20  22
ATOM     21  C   UNL     1      -1.040  11.237  22.431  0.00  0.00    +0.000 C 
ATOM     22  C   UNL     1       0.068  10.199  22.246  0.00  0.00    +0.000 C 
ATOM     23  C   UNL     1       0.194   9.368  23.532  0.00  0.00    +0.000 C 
ENDBRANCH  20  22
ENDBRANCH  11  20
ENDBRANCH   7  11
ENDBRANCH   1   8
BRANCH   3  24
ATOM     24  C   UNL     1       5.186   6.528  15.947  0.00  0.00    +0.000 C 
BRANCH  24  25
ATOM     25  O   UNL     1       6.222   5.553  15.877  0.00  0.00    +0.000 OA
BRANCH  25  26
ATOM     26  C   UNL     1       6.508   5.067  14.628  0.00  0.00    +0.000 A 
ATOM     27  C   UNL     1       5.633   4.081  14.166  0.00  0.00    +0.000 A 
ATOM     28  C   UNL     1       5.807   3.508  12.905  0.00  0.00    +0.000 A 
ATOM     29  C   UNL     1       6.850   3.933  12.087  0.00  0.00    +0.000 A 
ATOM     30  C   UNL     1       7.714   4.932  12.533  0.00  0.00    +0.000 A 
ATOM     31  C   UNL     1       7.546   5.501  13.800  0.00  0.00    +0.000 A 
ENDBRANCH  25  26
ENDBRANCH  24  25
ENDBRANCH   3  24
BRANCH   6  32
ATOM     32  C   UNL     1       1.187   4.848  19.862  0.00  0.00    +0.000 C 
BRANCH  32  33
ATOM     33  C   UNL     1       1.756   4.346  21.185  0.00  0.00    +0.000 C 
BRANCH  33  34
ATOM     34  C   UNL     1       1.922   2.855  21.164  0.00  0.00    +0.000 C 
ATOM     35  O   UNL     1       1.347   2.116  20.378  0.00  0.00    +0.000 OA
BRANCH  34  36
ATOM     36  O   UNL     1       2.789   2.401  22.096  0.00  0.00    +0.000 OA
ATOM     37  H   UNL     1       2.342   2.038  22.888  0.00  0.00    +0.000 HD
ENDBRANCH  34  36
ENDBRANCH  33  34
ENDBRANCH  32  33
ENDBRANCH   6  32
TORSDOF 12
ENDMDL
MODEL 9
REMARK VINA RESULT:      -8.1      4.004      8.863
REMARK  Name = 
REMARK  14 active torsions:
REMARK  status: ('A' for Active; 'I' for Inactive)
REMARK    1  A    between atoms: C_1  and  C_2
REMARK    2  A    between atoms: C_2  and  C_3
REMARK    3  A    between atoms: C_2  and  C_4
REMARK    4  A    between atoms: C_4  and  C_5
REMARK    5  A    between atoms: C_5  and  N_6
REMARK    6  A    between atoms: C_5  and  C_28
REMARK    7  A    between atoms: C_7  and  C_9
REMARK    8  A    between atoms: C_11  and  C_12
REMARK    9  A    between atoms: C_12  and  O_13
REMARK   10  A    between atoms: O_13  and  C_14
REMARK   11  A    between atoms: C_22  and  C_23
REMARK   12  A    between atoms: C_23  and  C_24
REMARK   13  A    between atoms: C_24  and  C_25
REMARK   14  A    between atoms: C_25  and  O_27
REMARK                            x       y       z     vdW  Elec       q    Type
REMARK                         _______ _______ _______ _____ _____    ______ ____
ROOT
ATOM      1  C   UNL     1       3.331   5.660  18.882  0.00  0.00    +0.000 A 
ATOM      2  C   UNL     1       3.229   6.898  18.203  0.00  0.00    +0.000 A 
ATOM      3  C   UNL     1       2.286   7.876  18.577  0.00  0.00    +0.000 A 
ATOM      4  C   UNL     1       1.395   7.587  19.609  0.00  0.00    +0.000 A 
ATOM      5  C   UNL     1       1.484   6.383  20.300  0.00  0.00    +0.000 A 
ATOM      6  C   UNL     1       2.458   5.417  19.969  0.00  0.00    +0.000 A 
ENDROOT
BRANCH   1   8
ATOM      7  N   UNL     1       5.268   5.066  17.461  0.00  0.00    +0.000 N 
ATOM      8  C   UNL     1       4.419   4.683  18.495  0.00  0.00    +0.000 C 
ATOM      9  O   UNL     1       4.552   3.621  19.097  0.00  0.00    +0.000 OA
ATOM     10  H   UNL     1       5.054   5.887  16.914  0.00  0.00    +0.000 HD
BRANCH   7  11
ATOM     11  C   UNL     1       6.406   4.256  17.026  0.00  0.00    +0.000 C 
BRANCH  11  12
ATOM     12  C   UNL     1       6.590   4.349  15.512  0.00  0.00    +0.000 A 
ATOM     13  C   UNL     1       7.666   5.090  14.990  0.00  0.00    +0.000 A 
ATOM     14  C   UNL     1       7.823   5.255  13.609  0.00  0.00    +0.000 A 
ATOM     15  C   UNL     1       6.908   4.674  12.737  0.00  0.00    +0.000 A 
ATOM     16  F   UNL     1       7.067   4.856  11.419  0.00  0.00    +0.000 F 
ATOM     17  C   UNL     1       5.844   3.923  13.230  0.00  0.00    +0.000 A 
ATOM     18 CL   UNL     1       4.702   3.213  12.155  0.00  0.00    +0.000 Cl
ATOM     19  C   UNL     1       5.687   3.755  14.609  0.00  0.00    +0.000 A 
ENDBRANCH  11  12
BRANCH  11  20
ATOM     20  C   UNL     1       7.718   4.654  17.751  0.00  0.00    +0.000 C 
BRANCH  20  22
ATOM     21  C   UNL     1       8.390   5.496  20.071  0.00  0.00    +0.000 C 
ATOM     22  C   UNL     1       7.575   5.770  18.807  0.00  0.00    +0.000 C 
ATOM     23  C   UNL     1       7.999   7.126  18.222  0.00  0.00    +0.000 C 
ENDBRANCH  20  22
ENDBRANCH  11  20
ENDBRANCH   7  11
ENDBRANCH   1   8
BRANCH   3  24
ATOM     24  C   UNL     1       2.231   9.223  17.893  0.00  0.00    +0.000 C 
BRANCH  24  25
ATOM     25  O   UNL     1       0.869   9.624  17.782  0.00  0.00    +0.000 OA
BRANCH  25  26
ATOM     26  C   UNL     1       0.464  10.622  18.629  0.00  0.00    +0.000 A 
ATOM     27  C   UNL     1      -0.904  10.636  18.910  0.00  0.00    +0.000 A 
ATOM     28  C   UNL     1      -1.446  11.596  19.767  0.00  0.00    +0.000 A 
ATOM     29  C   UNL     1      -0.617  12.541  20.364  0.00  0.00    +0.000 A 
ATOM     30  C   UNL     1       0.753  12.520  20.106  0.00  0.00    +0.000 A 
ATOM     31  C   UNL     1       1.296  11.563  19.241  0.00  0.00    +0.000 A 
ENDBRANCH  25  26
ENDBRANCH  24  25
ENDBRANCH   3  24
BRANCH   6  32
ATOM     32  C   UNL     1       2.537   4.216  20.890  0.00  0.00    +0.000 C 
BRANCH  32  33
ATOM     33  C   UNL     1       1.245   3.409  20.816  0.00  0.00    +0.000 C 
BRANCH  33  34
ATOM     34  C   UNL     1       1.222   2.548  19.588  0.00  0.00    +0.000 C 
ATOM     35  O   UNL     1       0.250   2.428  18.857  0.00  0.00    +0.000 OA
BRANCH  34  36
ATOM     36  O   UNL     1       2.397   1.922  19.354  0.00  0.00    +0.000 OA
ATOM     37  H   UNL     1       3.137   2.291  19.880  0.00  0.00    +0.000 HD
ENDBRANCH  34  36
ENDBRANCH  33  34
ENDBRANCH  32  33
ENDBRANCH   6  32
TORSDOF 12
ENDMDL
