MODEL 1
REMARK VINA RESULT:      -8.5      0.000      0.000
REMARK  Name = 
REMARK  11 active torsions:
REMARK  status: ('A' for Active; 'I' for Inactive)
REMARK    1  A    between atoms: C_1  and  C_2
REMARK    2  A    between atoms: C_5  and  C_6
REMARK    3  A    between atoms: C_6  and  N_7
REMARK    4  A    between atoms: C_8  and  C_10
REMARK    5  A    between atoms: C_10  and  C_11
REMARK    6  A    between atoms: C_11  and  C_12
REMARK    7  A    between atoms: C_12  and  C_13
REMARK    8  A    between atoms: C_13  and  N_14
REMARK    9  A    between atoms: N_23  and  C_24
REMARK   10  A    between atoms: C_24  and  C_25
REMARK   11  A    between atoms: C_28  and  C_29
REMARK                            x       y       z     vdW  Elec       q    Type
REMARK                         _______ _______ _______ _____ _____    ______ ____
ROOT
ATOM      1  N   UNL     1       1.901   7.886  19.134  0.00  0.00    +0.000 N 
ATOM      2  C   UNL     1       1.752   7.740  20.503  0.00  0.00    +0.000 A 
ATOM      3  O   UNL     1       2.229   6.797  21.149  0.00  0.00    +0.000 OA
ATOM      4  C   UNL     1       0.989   8.768  21.208  0.00  0.00    +0.000 A 
ATOM      5  C   UNL     1       0.750   8.624  22.583  0.00  0.00    +0.000 A 
ATOM      6  C   UNL     1      -0.061   9.536  23.250  0.00  0.00    +0.000 A 
ATOM      7  C   UNL     1      -0.614  10.600  22.546  0.00  0.00    +0.000 A 
ATOM      8  C   UNL     1      -0.342  10.761  21.183  0.00  0.00    +0.000 A 
ATOM      9  C   UNL     1       0.455   9.839  20.487  0.00  0.00    +0.000 A 
ATOM     10  N   UNL     1       0.768   9.963  19.104  0.00  0.00    +0.000 N 
ATOM     11  C   UNL     1       1.626   9.071  18.473  0.00  0.00    +0.000 A 
ATOM     12  O   UNL     1       2.103   9.331  17.350  0.00  0.00    +0.000 OA
ENDROOT
BRANCH   1  13
ATOM     13  C   UNL     1       2.575   6.798  18.417  0.00  0.00    +0.000 C 
BRANCH  13  14
ATOM     14  C   UNL     1       1.625   5.690  17.907  0.00  0.00    +0.000 C 
BRANCH  14  15
ATOM     15  C   UNL     1       2.314   4.364  17.626  0.00  0.00    +0.000 C 
BRANCH  15  16
ATOM     16  C   UNL     1       2.911   3.804  18.905  0.00  0.00    +0.000 C 
BRANCH  16  18
ATOM     17  N   UNL     1       4.883   4.193  17.608  0.00  0.00    +0.000 N 
ATOM     18  C   UNL     1       4.415   3.759  18.827  0.00  0.00    +0.000 C 
ATOM     19  O   UNL     1       5.123   3.402  19.748  0.00  0.00    +0.000 OA
ATOM     20  H   UNL     1       4.230   4.380  16.859  0.00  0.00    +0.000 HD
BRANCH  17  21
ATOM     21  C   UNL     1       6.308   4.202  17.355  0.00  0.00    +0.000 C 
BRANCH  21  26
ATOM     22  C   UNL     1       8.661   9.414  18.496  0.00  0.00    +0.000 C 
ATOM     23  C   UNL     1       8.068   8.074  18.183  0.00  0.00    +0.000 A 
ATOM     24  C   UNL     1       7.220   7.883  17.096  0.00  0.00    +0.000 A 
ATOM     25  C   UNL     1       6.671   6.628  16.834  0.00  0.00    +0.000 A 
ATOM     26  C   UNL     1       6.966   5.528  17.649  0.00  0.00    +0.000 A 
ATOM     27  C   UNL     1       7.819   5.722  18.745  0.00  0.00    +0.000 A 
ATOM     28  C   UNL     1       8.367   6.984  19.011  0.00  0.00    +0.000 A 
ENDBRANCH  21  26
ENDBRANCH  17  21
ENDBRANCH  16  18
ENDBRANCH  15  16
ENDBRANCH  14  15
ENDBRANCH  13  14
ENDBRANCH   1  13
BRANCH  10  29
ATOM     29  C   UNL     1       0.180  10.994  18.251  0.00  0.00    +0.000 C 
BRANCH  29  30
ATOM     30  C   UNL     1      -1.336  10.921  18.155  0.00  0.00    +0.000 A 
ATOM     31  C   UNL     1      -2.108  11.943  18.722  0.00  0.00    +0.000 A 
ATOM     32  C   UNL     1      -3.499  11.955  18.600  0.00  0.00    +0.000 A 
ATOM     33  C   UNL     1      -4.155  10.940  17.902  0.00  0.00    +0.000 A 
ATOM     34  C   UNL     1      -5.647  10.939  17.747  0.00  0.00    +0.000 C 
ATOM     35  C   UNL     1      -3.399   9.914  17.332  0.00  0.00    +0.000 A 
ATOM     36  C   UNL     1      -2.003   9.893  17.471  0.00  0.00    +0.000 A 
ENDBRANCH  29  30
ENDBRANCH  10  29
TORSDOF 9
ENDMDL
MODEL 2
REMARK VINA RESULT:      -8.1      1.001      1.386
REMARK  Name = 
REMARK  11 active torsions:
REMARK  status: ('A' for Active; 'I' for Inactive)
REMARK    1  A    between atoms: C_1  and  C_2
REMARK    2  A    between atoms: C_5  and  C_6
REMARK    3  A    between atoms: C_6  and  N_7
REMARK    4  A    between atoms: C_8  and  C_10
REMARK    5  A    between atoms: C_10  and  C_11
REMARK    6  A    between atoms: C_11  and  C_12
REMARK    7  A    between atoms: C_12  and  C_13
REMARK    8  A    between atoms: C_13  and  N_14
REMARK    9  A    between atoms: N_23  and  C_24
REMARK   10  A    between atoms: C_24  and  C_25
REMARK   11  A    between atoms: C_28  and  C_29
REMARK                            x       y       z     vdW  Elec       q    Type
REMARK                         _______ _______ _______ _____ _____    ______ ____
ROOT
ATOM      1  N   UNL     1       1.790   7.965  19.351  0.00  0.00    +0.000 N 
ATOM      2  C   UNL     1       1.602   7.918  20.722  0.00  0.00    +0.000 A 
ATOM      3  O   UNL     1       2.066   7.029  21.448  0.00  0.00    +0.000 OA
ATOM      4  C   UNL     1       0.812   8.988  21.329  0.00  0.00    +0.000 A 
ATOM      5  C   UNL     1       0.533   8.941  22.703  0.00  0.00    +0.000 A 
ATOM      6  C   UNL     1      -0.302   9.892  23.278  0.00  0.00    +0.000 A 
ATOM      7  C   UNL     1      -0.842  10.897  22.483  0.00  0.00    +0.000 A 
ATOM      8  C   UNL     1      -0.532  10.961  21.120  0.00  0.00    +0.000 A 
ATOM      9  C   UNL     1       0.292   9.998  20.517  0.00  0.00    +0.000 A 
ATOM     10  N   UNL     1       0.645  10.025  19.137  0.00  0.00    +0.000 N 
ATOM     11  C   UNL     1       1.527   9.097  18.598  0.00  0.00    +0.000 A 
ATOM     12  O   UNL     1       2.034   9.279  17.473  0.00  0.00    +0.000 OA
ENDROOT
BRANCH   1  13
ATOM     13  C   UNL     1       2.492   6.834  18.735  0.00  0.00    +0.000 C 
BRANCH  13  14
ATOM     14  C   UNL     1       1.563   5.700  18.247  0.00  0.00    +0.000 C 
BRANCH  14  15
ATOM     15  C   UNL     1       1.415   4.552  19.233  0.00  0.00    +0.000 C 
BRANCH  15  16
ATOM     16  C   UNL     1       1.600   3.224  18.522  0.00  0.00    +0.000 C 
BRANCH  16  18
ATOM     17  N   UNL     1       3.951   3.433  18.134  0.00  0.00    +0.000 N 
ATOM     18  C   UNL     1       2.726   3.295  17.523  0.00  0.00    +0.000 C 
ATOM     19  O   UNL     1       2.561   3.216  16.322  0.00  0.00    +0.000 OA
ATOM     20  H   UNL     1       3.998   3.591  19.131  0.00  0.00    +0.000 HD
BRANCH  17  21
ATOM     21  C   UNL     1       5.144   3.532  17.320  0.00  0.00    +0.000 C 
BRANCH  21  26
ATOM     22  C   UNL     1       8.105   8.532  17.814  0.00  0.00    +0.000 C 
ATOM     23  C   UNL     1       7.339   7.248  17.709  0.00  0.00    +0.000 A 
ATOM     24  C   UNL     1       7.755   6.091  18.362  0.00  0.00    +0.000 A 
ATOM     25  C   UNL     1       7.032   4.905  18.237  0.00  0.00    +0.000 A 
ATOM     26  C   UNL     1       5.865   4.850  17.465  0.00  0.00    +0.000 A 
ATOM     27  C   UNL     1       5.448   6.016  16.807  0.00  0.00    +0.000 A 
ATOM     28  C   UNL     1       6.177   7.207  16.927  0.00  0.00    +0.000 A 
ENDBRANCH  21  26
ENDBRANCH  17  21
ENDBRANCH  16  18
ENDBRANCH  15  16
ENDBRANCH  14  15
ENDBRANCH  13  14
ENDBRANCH   1  13
BRANCH  10  29
ATOM     29  C   UNL     1       0.074  10.985  18.195  0.00  0.00    +0.000 C 
BRANCH  29  30
ATOM     30  C   UNL     1      -1.444  10.947  18.121  0.00  0.00    +0.000 A 
ATOM     31  C   UNL     1      -2.182  12.016  18.643  0.00  0.00    +0.000 A 
ATOM     32  C   UNL     1      -3.574  12.059  18.538  0.00  0.00    +0.000 A 
ATOM     33  C   UNL     1      -4.265  11.026  17.901  0.00  0.00    +0.000 A 
ATOM     34  C   UNL     1      -5.758  11.056  17.764  0.00  0.00    +0.000 C 
ATOM     35  C   UNL     1      -3.542   9.953  17.376  0.00  0.00    +0.000 A 
ATOM     36  C   UNL     1      -2.145   9.902  17.500  0.00  0.00    +0.000 A 
ENDBRANCH  29  30
ENDBRANCH  10  29
TORSDOF 9
ENDMDL
MODEL 3
REMARK VINA RESULT:      -8.1      1.856      2.863
REMARK  Name = 
REMARK  11 active torsions:
REMARK  status: ('A' for Active; 'I' for Inactive)
REMARK    1  A    between atoms: C_1  and  C_2
REMARK    2  A    between atoms: C_5  and  C_6
REMARK    3  A    between atoms: C_6  and  N_7
REMARK    4  A    between atoms: C_8  and  C_10
REMARK    5  A    between atoms: C_10  and  C_11
REMARK    6  A    between atoms: C_11  and  C_12
REMARK    7  A    between atoms: C_12  and  C_13
REMARK    8  A    between atoms: C_13  and  N_14
REMARK    9  A    between atoms: N_23  and  C_24
REMARK   10  A    between atoms: C_24  and  C_25
REMARK   11  A    between atoms: C_28  and  C_29
REMARK                            x       y       z     vdW  Elec       q    Type
REMARK                         _______ _______ _______ _____ _____    ______ ____
ROOT
ATOM      1  N   UNL     1       1.801   8.052  19.266  0.00  0.00    +0.000 N 
ATOM      2  C   UNL     1       1.585   7.953  20.630  0.00  0.00    +0.000 A 
ATOM      3  O   UNL     1       2.036   7.039  21.333  0.00  0.00    +0.000 OA
ATOM      4  C   UNL     1       0.779   8.998  21.259  0.00  0.00    +0.000 A 
ATOM      5  C   UNL     1       0.472   8.900  22.625  0.00  0.00    +0.000 A 
ATOM      6  C   UNL     1      -0.379   9.828  23.216  0.00  0.00    +0.000 A 
ATOM      7  C   UNL     1      -0.904  10.860  22.448  0.00  0.00    +0.000 A 
ATOM      8  C   UNL     1      -0.565  10.976  21.095  0.00  0.00    +0.000 A 
ATOM      9  C   UNL     1       0.274  10.037  20.474  0.00  0.00    +0.000 A 
ATOM     10  N   UNL     1       0.656  10.116  19.105  0.00  0.00    +0.000 N 
ATOM     11  C   UNL     1       1.552   9.210  18.550  0.00  0.00    +0.000 A 
ATOM     12  O   UNL     1       2.082   9.435  17.444  0.00  0.00    +0.000 OA
ENDROOT
BRANCH   1  13
ATOM     13  C   UNL     1       2.520   6.946  18.623  0.00  0.00    +0.000 C 
BRANCH  13  14
ATOM     14  C   UNL     1       1.601   5.858  18.020  0.00  0.00    +0.000 C 
BRANCH  14  15
ATOM     15  C   UNL     1       1.555   4.569  18.825  0.00  0.00    +0.000 C 
BRANCH  15  16
ATOM     16  C   UNL     1       1.686   3.371  17.902  0.00  0.00    +0.000 C 
BRANCH  16  18
ATOM     17  N   UNL     1       3.798   4.003  16.975  0.00  0.00    +0.000 N 
ATOM     18  C   UNL     1       3.133   3.021  17.670  0.00  0.00    +0.000 C 
ATOM     19  O   UNL     1       3.647   1.996  18.075  0.00  0.00    +0.000 OA
ATOM     20  H   UNL     1       3.281   4.779  16.586  0.00  0.00    +0.000 HD
BRANCH  17  21
ATOM     21  C   UNL     1       5.198   3.823  16.651  0.00  0.00    +0.000 C 
BRANCH  21  26
ATOM     22  C   UNL     1       8.404   8.370  18.397  0.00  0.00    +0.000 C 
ATOM     23  C   UNL     1       7.587   7.205  17.927  0.00  0.00    +0.000 A 
ATOM     24  C   UNL     1       6.532   7.362  17.033  0.00  0.00    +0.000 A 
ATOM     25  C   UNL     1       5.780   6.262  16.622  0.00  0.00    +0.000 A 
ATOM     26  C   UNL     1       6.071   4.974  17.086  0.00  0.00    +0.000 A 
ATOM     27  C   UNL     1       7.134   4.817  17.988  0.00  0.00    +0.000 A 
ATOM     28  C   UNL     1       7.888   5.922  18.406  0.00  0.00    +0.000 A 
ENDBRANCH  21  26
ENDBRANCH  17  21
ENDBRANCH  16  18
ENDBRANCH  15  16
ENDBRANCH  14  15
ENDBRANCH  13  14
ENDBRANCH   1  13
BRANCH  10  29
ATOM     29  C   UNL     1       0.103  11.110  18.187  0.00  0.00    +0.000 C 
BRANCH  29  30
ATOM     30  C   UNL     1       0.638  12.515  18.407  0.00  0.00    +0.000 A 
ATOM     31  C   UNL     1      -0.264  13.572  18.580  0.00  0.00    +0.000 A 
ATOM     32  C   UNL     1       0.179  14.868  18.853  0.00  0.00    +0.000 A 
ATOM     33  C   UNL     1       1.544  15.139  18.964  0.00  0.00    +0.000 A 
ATOM     34  C   UNL     1       2.042  16.519  19.270  0.00  0.00    +0.000 C 
ATOM     35  C   UNL     1       2.456  14.095  18.794  0.00  0.00    +0.000 A 
ATOM     36  C   UNL     1       2.010  12.797  18.500  0.00  0.00    +0.000 A 
ENDBRANCH  29  30
ENDBRANCH  10  29
TORSDOF 9
ENDMDL
MODEL 4
REMARK VINA RESULT:      -8.0      1.947      2.966
REMARK  Name = 
REMARK  11 active torsions:
REMARK  status: ('A' for Active; 'I' for Inactive)
REMARK    1  A    between atoms: C_1  and  C_2
REMARK    2  A    between atoms: C_5  and  C_6
REMARK    3  A    between atoms: C_6  and  N_7
REMARK    4  A    between atoms: C_8  and  C_10
REMARK    5  A    between atoms: C_10  and  C_11
REMARK    6  A    between atoms: C_11  and  C_12
REMARK    7  A    between atoms: C_12  and  C_13
REMARK    8  A    between atoms: C_13  and  N_14
REMARK    9  A    between atoms: N_23  and  C_24
REMARK   10  A    between atoms: C_24  and  C_25
REMARK   11  A    between atoms: C_28  and  C_29
REMARK                            x       y       z     vdW  Elec       q    Type
REMARK                         _______ _______ _______ _____ _____    ______ ____
ROOT
ATOM      1  N   UNL     1       1.703   8.555  19.305  0.00  0.00    +0.000 N 
ATOM      2  C   UNL     1       1.425   8.391  20.652  0.00  0.00    +0.000 A 
ATOM      3  O   UNL     1       1.874   7.463  21.338  0.00  0.00    +0.000 OA
ATOM      4  C   UNL     1       0.554   9.382  21.283  0.00  0.00    +0.000 A 
ATOM      5  C   UNL     1       0.186   9.216  22.626  0.00  0.00    +0.000 A 
ATOM      6  C   UNL     1      -0.724  10.088  23.213  0.00  0.00    +0.000 A 
ATOM      7  C   UNL     1      -1.248  11.135  22.462  0.00  0.00    +0.000 A 
ATOM      8  C   UNL     1      -0.849  11.318  21.134  0.00  0.00    +0.000 A 
ATOM      9  C   UNL     1       0.051  10.436  20.517  0.00  0.00    +0.000 A 
ATOM     10  N   UNL     1       0.495  10.585  19.172  0.00  0.00    +0.000 N 
ATOM     11  C   UNL     1       1.447   9.734  18.626  0.00  0.00    +0.000 A 
ATOM     12  O   UNL     1       2.022  10.022  17.557  0.00  0.00    +0.000 OA
ENDROOT
BRANCH   1  13
ATOM     13  C   UNL     1       2.489   7.501  18.654  0.00  0.00    +0.000 C 
BRANCH  13  14
ATOM     14  C   UNL     1       1.640   6.383  18.008  0.00  0.00    +0.000 C 
BRANCH  14  15
ATOM     15  C   UNL     1       1.770   5.032  18.693  0.00  0.00    +0.000 C 
BRANCH  15  16
ATOM     16  C   UNL     1       2.386   4.021  17.743  0.00  0.00    +0.000 C 
BRANCH  16  18
ATOM     17  N   UNL     1       4.586   4.081  16.805  0.00  0.00    +0.000 N 
ATOM     18  C   UNL     1       3.872   3.902  17.967  0.00  0.00    +0.000 C 
ATOM     19  O   UNL     1       4.370   3.695  19.056  0.00  0.00    +0.000 OA
ATOM     20  H   UNL     1       4.098   4.150  15.923  0.00  0.00    +0.000 HD
BRANCH  17  21
ATOM     21  C   UNL     1       6.030   3.985  16.835  0.00  0.00    +0.000 C 
BRANCH  21  26
ATOM     22  C   UNL     1       8.478   9.017  18.475  0.00  0.00    +0.000 C 
ATOM     23  C   UNL     1       7.860   7.725  18.034  0.00  0.00    +0.000 A 
ATOM     24  C   UNL     1       6.989   7.661  16.950  0.00  0.00    +0.000 A 
ATOM     25  C   UNL     1       6.417   6.448  16.568  0.00  0.00    +0.000 A 
ATOM     26  C   UNL     1       6.712   5.264  17.255  0.00  0.00    +0.000 A 
ATOM     27  C   UNL     1       7.589   5.329  18.347  0.00  0.00    +0.000 A 
ATOM     28  C   UNL     1       8.160   6.549  18.735  0.00  0.00    +0.000 A 
ENDBRANCH  21  26
ENDBRANCH  17  21
ENDBRANCH  16  18
ENDBRANCH  15  16
ENDBRANCH  14  15
ENDBRANCH  13  14
ENDBRANCH   1  13
BRANCH  10  29
ATOM     29  C   UNL     1      -0.048  11.598  18.270  0.00  0.00    +0.000 C 
BRANCH  29  30
ATOM     30  C   UNL     1       0.523  12.989  18.492  0.00  0.00    +0.000 A 
ATOM     31  C   UNL     1       1.901  13.194  18.355  0.00  0.00    +0.000 A 
ATOM     32  C   UNL     1       2.463  14.466  18.482  0.00  0.00    +0.000 A 
ATOM     33  C   UNL     1       1.653  15.572  18.748  0.00  0.00    +0.000 A 
ATOM     34  C   UNL     1       2.231  16.949  18.875  0.00  0.00    +0.000 C 
ATOM     35  C   UNL     1       0.276  15.384  18.887  0.00  0.00    +0.000 A 
ATOM     36  C   UNL     1      -0.284  14.102  18.778  0.00  0.00    +0.000 A 
ENDBRANCH  29  30
ENDBRANCH  10  29
TORSDOF 9
ENDMDL
MODEL 5
REMARK VINA RESULT:      -8.0      2.642      5.553
REMARK  Name = 
REMARK  11 active torsions:
REMARK  status: ('A' for Active; 'I' for Inactive)
REMARK    1  A    between atoms: C_1  and  C_2
REMARK    2  A    between atoms: C_5  and  C_6
REMARK    3  A    between atoms: C_6  and  N_7
REMARK    4  A    between atoms: C_8  and  C_10
REMARK    5  A    between atoms: C_10  and  C_11
REMARK    6  A    between atoms: C_11  and  C_12
REMARK    7  A    between atoms: C_12  and  C_13
REMARK    8  A    between atoms: C_13  and  N_14
REMARK    9  A    between atoms: N_23  and  C_24
REMARK   10  A    between atoms: C_24  and  C_25
REMARK   11  A    between atoms: C_28  and  C_29
REMARK                            x       y       z     vdW  Elec       q    Type
REMARK                         _______ _______ _______ _____ _____    ______ ____
ROOT
ATOM      1  N   UNL     1       3.988   5.328  17.365  0.00  0.00    +0.000 N 
ATOM      2  C   UNL     1       3.375   4.090  17.272  0.00  0.00    +0.000 A 
ATOM      3  O   UNL     1       3.615   3.271  16.375  0.00  0.00    +0.000 OA
ATOM      4  C   UNL     1       2.396   3.746  18.301  0.00  0.00    +0.000 A 
ATOM      5  C   UNL     1       1.696   2.534  18.207  0.00  0.00    +0.000 A 
ATOM      6  C   UNL     1       0.688   2.238  19.117  0.00  0.00    +0.000 A 
ATOM      7  C   UNL     1       0.394   3.144  20.130  0.00  0.00    +0.000 A 
ATOM      8  C   UNL     1       1.120   4.335  20.243  0.00  0.00    +0.000 A 
ATOM      9  C   UNL     1       2.126   4.662  19.321  0.00  0.00    +0.000 A 
ATOM     10  N   UNL     1       2.898   5.856  19.398  0.00  0.00    +0.000 N 
ATOM     11  C   UNL     1       3.939   6.104  18.511  0.00  0.00    +0.000 A 
ATOM     12  O   UNL     1       4.771   7.004  18.740  0.00  0.00    +0.000 OA
ENDROOT
BRANCH   1  13
ATOM     13  C   UNL     1       4.889   5.710  16.272  0.00  0.00    +0.000 C 
BRANCH  13  14
ATOM     14  C   UNL     1       6.179   4.863  16.188  0.00  0.00    +0.000 C 
BRANCH  14  15
ATOM     15  C   UNL     1       7.362   5.458  16.936  0.00  0.00    +0.000 C 
BRANCH  15  16
ATOM     16  C   UNL     1       7.317   6.973  16.865  0.00  0.00    +0.000 C 
BRANCH  16  18
ATOM     17  N   UNL     1       8.234   8.942  17.867  0.00  0.00    +0.000 N 
ATOM     18  C   UNL     1       8.034   7.592  18.038  0.00  0.00    +0.000 C 
ATOM     19  O   UNL     1       8.370   6.966  19.023  0.00  0.00    +0.000 OA
ATOM     20  H   UNL     1       8.016   9.372  16.980  0.00  0.00    +0.000 HD
BRANCH  17  21
ATOM     21  C   UNL     1       8.924   9.694  18.894  0.00  0.00    +0.000 C 
BRANCH  21  26
ATOM     22  C   UNL     1      11.220  14.736  17.074  0.00  0.00    +0.000 C 
ATOM     23  C   UNL     1      10.623  13.436  17.520  0.00  0.00    +0.000 A 
ATOM     24  C   UNL     1       9.252  13.202  17.467  0.00  0.00    +0.000 A 
ATOM     25  C   UNL     1       8.720  11.988  17.901  0.00  0.00    +0.000 A 
ATOM     26  C   UNL     1       9.550  10.971  18.390  0.00  0.00    +0.000 A 
ATOM     27  C   UNL     1      10.931  11.209  18.444  0.00  0.00    +0.000 A 
ATOM     28  C   UNL     1      11.465  12.430  18.013  0.00  0.00    +0.000 A 
ENDBRANCH  21  26
ENDBRANCH  17  21
ENDBRANCH  16  18
ENDBRANCH  15  16
ENDBRANCH  14  15
ENDBRANCH  13  14
ENDBRANCH   1  13
BRANCH  10  29
ATOM     29  C   UNL     1       2.624   6.912  20.370  0.00  0.00    +0.000 C 
BRANCH  29  30
ATOM     30  C   UNL     1       1.706   8.006  19.847  0.00  0.00    +0.000 A 
ATOM     31  C   UNL     1       0.805   8.621  20.725  0.00  0.00    +0.000 A 
ATOM     32  C   UNL     1      -0.010   9.676  20.308  0.00  0.00    +0.000 A 
ATOM     33  C   UNL     1       0.060  10.145  18.995  0.00  0.00    +0.000 A 
ATOM     34  C   UNL     1      -0.795  11.285  18.528  0.00  0.00    +0.000 C 
ATOM     35  C   UNL     1       0.953   9.541  18.107  0.00  0.00    +0.000 A 
ATOM     36  C   UNL     1       1.757   8.468  18.523  0.00  0.00    +0.000 A 
ENDBRANCH  29  30
ENDBRANCH  10  29
TORSDOF 9
ENDMDL
MODEL 6
REMARK VINA RESULT:      -7.8      2.458      3.604
REMARK  Name = 
REMARK  11 active torsions:
REMARK  status: ('A' for Active; 'I' for Inactive)
REMARK    1  A    between atoms: C_1  and  C_2
REMARK    2  A    between atoms: C_5  and  C_6
REMARK    3  A    between atoms: C_6  and  N_7
REMARK    4  A    between atoms: C_8  and  C_10
REMARK    5  A    between atoms: C_10  and  C_11
REMARK    6  A    between atoms: C_11  and  C_12
REMARK    7  A    between atoms: C_12  and  C_13
REMARK    8  A    between atoms: C_13  and  N_14
REMARK    9  A    between atoms: N_23  and  C_24
REMARK   10  A    between atoms: C_24  and  C_25
REMARK   11  A    between atoms: C_28  and  C_29
REMARK                            x       y       z     vdW  Elec       q    Type
REMARK                         _______ _______ _______ _____ _____    ______ ____
ROOT
ATOM      1  N   UNL     1       1.791   7.924  19.011  0.00  0.00    +0.000 N 
ATOM      2  C   UNL     1       1.657   7.715  20.373  0.00  0.00    +0.000 A 
ATOM      3  O   UNL     1       2.083   6.709  20.958  0.00  0.00    +0.000 OA
ATOM      4  C   UNL     1       0.977   8.750  21.149  0.00  0.00    +0.000 A 
ATOM      5  C   UNL     1       0.753   8.547  22.519  0.00  0.00    +0.000 A 
ATOM      6  C   UNL     1       0.016   9.472  23.250  0.00  0.00    +0.000 A 
ATOM      7  C   UNL     1      -0.479  10.606  22.615  0.00  0.00    +0.000 A 
ATOM      8  C   UNL     1      -0.222  10.823  21.257  0.00  0.00    +0.000 A 
ATOM      9  C   UNL     1       0.501   9.890  20.497  0.00  0.00    +0.000 A 
ATOM     10  N   UNL     1       0.797  10.069  19.115  0.00  0.00    +0.000 N 
ATOM     11  C   UNL     1       1.583   9.159  18.420  0.00  0.00    +0.000 A 
ATOM     12  O   UNL     1       2.055   9.448  17.302  0.00  0.00    +0.000 OA
ENDROOT
BRANCH   1  13
ATOM     13  C   UNL     1       2.379   6.836  18.223  0.00  0.00    +0.000 C 
BRANCH  13  14
ATOM     14  C   UNL     1       3.915   6.920  18.071  0.00  0.00    +0.000 C 
BRANCH  14  15
ATOM     15  C   UNL     1       4.648   5.650  18.469  0.00  0.00    +0.000 C 
BRANCH  15  16
ATOM     16  C   UNL     1       6.136   5.923  18.600  0.00  0.00    +0.000 C 
BRANCH  16  18
ATOM     17  N   UNL     1       7.066   5.024  16.588  0.00  0.00    +0.000 N 
ATOM     18  C   UNL     1       6.759   6.188  17.253  0.00  0.00    +0.000 C 
ATOM     19  O   UNL     1       6.942   7.304  16.808  0.00  0.00    +0.000 OA
ATOM     20  H   UNL     1       6.976   4.137  17.063  0.00  0.00    +0.000 HD
BRANCH  17  21
ATOM     21  C   UNL     1       7.686   5.093  15.282  0.00  0.00    +0.000 C 
BRANCH  21  26
ATOM     22  C   UNL     1       4.299   2.947  11.048  0.00  0.00    +0.000 C 
ATOM     23  C   UNL     1       5.167   3.480  12.148  0.00  0.00    +0.000 A 
ATOM     24  C   UNL     1       4.662   3.742  13.418  0.00  0.00    +0.000 A 
ATOM     25  C   UNL     1       5.488   4.250  14.421  0.00  0.00    +0.000 A 
ATOM     26  C   UNL     1       6.845   4.497  14.180  0.00  0.00    +0.000 A 
ATOM     27  C   UNL     1       7.352   4.234  12.900  0.00  0.00    +0.000 A 
ATOM     28  C   UNL     1       6.522   3.728  11.891  0.00  0.00    +0.000 A 
ENDBRANCH  21  26
ENDBRANCH  17  21
ENDBRANCH  16  18
ENDBRANCH  15  16
ENDBRANCH  14  15
ENDBRANCH  13  14
ENDBRANCH   1  13
BRANCH  10  29
ATOM     29  C   UNL     1       0.262  11.180  18.331  0.00  0.00    +0.000 C 
BRANCH  29  30
ATOM     30  C   UNL     1      -1.250  11.152  18.176  0.00  0.00    +0.000 A 
ATOM     31  C   UNL     1      -1.846  10.113  17.451  0.00  0.00    +0.000 A 
ATOM     32  C   UNL     1      -3.234  10.007  17.340  0.00  0.00    +0.000 A 
ATOM     33  C   UNL     1      -4.065  10.943  17.958  0.00  0.00    +0.000 A 
ATOM     34  C   UNL     1      -5.558  10.842  17.863  0.00  0.00    +0.000 C 
ATOM     35  C   UNL     1      -3.486  11.986  18.684  0.00  0.00    +0.000 A 
ATOM     36  C   UNL     1      -2.090  12.102  18.779  0.00  0.00    +0.000 A 
ENDBRANCH  29  30
ENDBRANCH  10  29
TORSDOF 9
ENDMDL
MODEL 7
REMARK VINA RESULT:      -7.8      2.642      8.537
REMARK  Name = 
REMARK  11 active torsions:
REMARK  status: ('A' for Active; 'I' for Inactive)
REMARK    1  A    between atoms: C_1  and  C_2
REMARK    2  A    between atoms: C_5  and  C_6
REMARK    3  A    between atoms: C_6  and  N_7
REMARK    4  A    between atoms: C_8  and  C_10
REMARK    5  A    between atoms: C_10  and  C_11
REMARK    6  A    between atoms: C_11  and  C_12
REMARK    7  A    between atoms: C_12  and  C_13
REMARK    8  A    between atoms: C_13  and  N_14
REMARK    9  A    between atoms: N_23  and  C_24
REMARK   10  A    between atoms: C_24  and  C_25
REMARK   11  A    between atoms: C_28  and  C_29
REMARK                            x       y       z     vdW  Elec       q    Type
REMARK                         _______ _______ _______ _____ _____    ______ ____
ROOT
ATOM      1  N   UNL     1       2.481   6.776  19.511  0.00  0.00    +0.000 N 
ATOM      2  C   UNL     1       2.022   5.621  20.121  0.00  0.00    +0.000 A 
ATOM      3  O   UNL     1       0.936   5.541  20.711  0.00  0.00    +0.000 OA
ATOM      4  C   UNL     1       2.880   4.439  20.053  0.00  0.00    +0.000 A 
ATOM      5  C   UNL     1       2.490   3.268  20.721  0.00  0.00    +0.000 A 
ATOM      6  C   UNL     1       3.340   2.169  20.755  0.00  0.00    +0.000 A 
ATOM      7  C   UNL     1       4.568   2.235  20.107  0.00  0.00    +0.000 A 
ATOM      8  C   UNL     1       4.937   3.392  19.411  0.00  0.00    +0.000 A 
ATOM      9  C   UNL     1       4.103   4.520  19.383  0.00  0.00    +0.000 A 
ATOM     10  N   UNL     1       4.428   5.715  18.682  0.00  0.00    +0.000 N 
ATOM     11  C   UNL     1       3.537   6.780  18.615  0.00  0.00    +0.000 A 
ATOM     12  O   UNL     1       3.708   7.703  17.794  0.00  0.00    +0.000 OA
ENDROOT
BRANCH   1  13
ATOM     13  C   UNL     1       1.667   7.985  19.673  0.00  0.00    +0.000 C 
BRANCH  13  14
ATOM     14  C   UNL     1       1.439   8.404  21.143  0.00  0.00    +0.000 C 
BRANCH  14  15
ATOM     15  C   UNL     1       0.003   8.786  21.464  0.00  0.00    +0.000 C 
BRANCH  15  16
ATOM     16  C   UNL     1      -0.025   9.886  22.509  0.00  0.00    +0.000 C 
BRANCH  16  18
ATOM     17  N   UNL     1      -0.608  11.113  20.540  0.00  0.00    +0.000 N 
ATOM     18  C   UNL     1      -0.333  11.222  21.883  0.00  0.00    +0.000 C 
ATOM     19  O   UNL     1      -0.356  12.264  22.508  0.00  0.00    +0.000 OA
ATOM     20  H   UNL     1      -0.472  10.227  20.072  0.00  0.00    +0.000 HD
BRANCH  17  21
ATOM     21  C   UNL     1      -0.911  12.304  19.776  0.00  0.00    +0.000 C 
BRANCH  21  26
ATOM     22  C   UNL     1       3.834  15.063  17.807  0.00  0.00    +0.000 C 
ATOM     23  C   UNL     1       2.602  14.363  18.296  0.00  0.00    +0.000 A 
ATOM     24  C   UNL     1       1.514  15.066  18.806  0.00  0.00    +0.000 A 
ATOM     25  C   UNL     1       0.385  14.390  19.267  0.00  0.00    +0.000 A 
ATOM     26  C   UNL     1       0.311  12.992  19.220  0.00  0.00    +0.000 A 
ATOM     27  C   UNL     1       1.409  12.286  18.707  0.00  0.00    +0.000 A 
ATOM     28  C   UNL     1       2.546  12.964  18.248  0.00  0.00    +0.000 A 
ENDBRANCH  21  26
ENDBRANCH  17  21
ENDBRANCH  16  18
ENDBRANCH  15  16
ENDBRANCH  14  15
ENDBRANCH  13  14
ENDBRANCH   1  13
BRANCH  10  29
ATOM     29  C   UNL     1       5.722   5.924  18.035  0.00  0.00    +0.000 C 
BRANCH  29  30
ATOM     30  C   UNL     1       5.807   5.347  16.632  0.00  0.00    +0.000 A 
ATOM     31  C   UNL     1       7.028   5.389  15.947  0.00  0.00    +0.000 A 
ATOM     32  C   UNL     1       7.173   4.811  14.684  0.00  0.00    +0.000 A 
ATOM     33  C   UNL     1       6.094   4.171  14.073  0.00  0.00    +0.000 A 
ATOM     34  C   UNL     1       6.229   3.531  12.723  0.00  0.00    +0.000 C 
ATOM     35  C   UNL     1       4.869   4.121  14.743  0.00  0.00    +0.000 A 
ATOM     36  C   UNL     1       4.720   4.719  16.004  0.00  0.00    +0.000 A 
ENDBRANCH  29  30
ENDBRANCH  10  29
TORSDOF 9
ENDMDL
MODEL 8
REMARK VINA RESULT:      -7.8      2.042      8.965
REMARK  Name = 
REMARK  11 active torsions:
REMARK  status: ('A' for Active; 'I' for Inactive)
REMARK    1  A    between atoms: C_1  and  C_2
REMARK    2  A    between atoms: C_5  and  C_6
REMARK    3  A    between atoms: C_6  and  N_7
REMARK    4  A    between atoms: C_8  and  C_10
REMARK    5  A    between atoms: C_10  and  C_11
REMARK    6  A    between atoms: C_11  and  C_12
REMARK    7  A    between atoms: C_12  and  C_13
REMARK    8  A    between atoms: C_13  and  N_14
REMARK    9  A    between atoms: N_23  and  C_24
REMARK   10  A    between atoms: C_24  and  C_25
REMARK   11  A    between atoms: C_28  and  C_29
REMARK                            x       y       z     vdW  Elec       q    Type
REMARK                         _______ _______ _______ _____ _____    ______ ____
ROOT
ATOM      1  N   UNL     1       2.427   6.780  19.552  0.00  0.00    +0.000 N 
ATOM      2  C   UNL     1       1.953   5.599  20.100  0.00  0.00    +0.000 A 
ATOM      3  O   UNL     1       0.854   5.495  20.661  0.00  0.00    +0.000 OA
ATOM      4  C   UNL     1       2.811   4.420  19.998  0.00  0.00    +0.000 A 
ATOM      5  C   UNL     1       2.406   3.221  20.603  0.00  0.00    +0.000 A 
ATOM      6  C   UNL     1       3.254   2.120  20.607  0.00  0.00    +0.000 A 
ATOM      7  C   UNL     1       4.496   2.212  19.989  0.00  0.00    +0.000 A 
ATOM      8  C   UNL     1       4.881   3.399  19.355  0.00  0.00    +0.000 A 
ATOM      9  C   UNL     1       4.048   4.528  19.359  0.00  0.00    +0.000 A 
ATOM     10  N   UNL     1       4.390   5.754  18.720  0.00  0.00    +0.000 N 
ATOM     11  C   UNL     1       3.502   6.822  18.682  0.00  0.00    +0.000 A 
ATOM     12  O   UNL     1       3.692   7.781  17.907  0.00  0.00    +0.000 OA
ENDROOT
BRANCH   1  13
ATOM     13  C   UNL     1       1.610   7.982  19.751  0.00  0.00    +0.000 C 
BRANCH  13  14
ATOM     14  C   UNL     1       0.922   8.060  21.133  0.00  0.00    +0.000 C 
BRANCH  14  15
ATOM     15  C   UNL     1       1.474   9.148  22.040  0.00  0.00    +0.000 C 
BRANCH  15  16
ATOM     16  C   UNL     1       0.431   9.555  23.065  0.00  0.00    +0.000 C 
BRANCH  16  18
ATOM     17  N   UNL     1      -0.152  11.015  21.262  0.00  0.00    +0.000 N 
ATOM     18  C   UNL     1      -0.576  10.503  22.466  0.00  0.00    +0.000 C 
ATOM     19  O   UNL     1      -1.645  10.758  22.984  0.00  0.00    +0.000 OA
ATOM     20  H   UNL     1       0.790  10.833  20.945  0.00  0.00    +0.000 HD
BRANCH  17  21
ATOM     21  C   UNL     1      -0.993  11.957  20.554  0.00  0.00    +0.000 C 
BRANCH  21  26
ATOM     22  C   UNL     1      -3.374   9.970  15.615  0.00  0.00    +0.000 C 
ATOM     23  C   UNL     1      -2.779  10.471  16.896  0.00  0.00    +0.000 A 
ATOM     24  C   UNL     1      -3.429  11.415  17.686  0.00  0.00    +0.000 A 
ATOM     25  C   UNL     1      -2.848  11.875  18.868  0.00  0.00    +0.000 A 
ATOM     26  C   UNL     1      -1.604  11.393  19.295  0.00  0.00    +0.000 A 
ATOM     27  C   UNL     1      -0.951  10.442  18.498  0.00  0.00    +0.000 A 
ATOM     28  C   UNL     1      -1.532   9.983  17.308  0.00  0.00    +0.000 A 
ENDBRANCH  21  26
ENDBRANCH  17  21
ENDBRANCH  16  18
ENDBRANCH  15  16
ENDBRANCH  14  15
ENDBRANCH  13  14
ENDBRANCH   1  13
BRANCH  10  29
ATOM     29  C   UNL     1       5.698   5.989  18.112  0.00  0.00    +0.000 C 
BRANCH  29  30
ATOM     30  C   UNL     1       5.875   5.323  16.757  0.00  0.00    +0.000 A 
ATOM     31  C   UNL     1       4.791   4.653  16.176  0.00  0.00    +0.000 A 
ATOM     32  C   UNL     1       4.885   4.086  14.903  0.00  0.00    +0.000 A 
ATOM     33  C   UNL     1       6.073   4.178  14.176  0.00  0.00    +0.000 A 
ATOM     34  C   UNL     1       6.194   3.588  12.803  0.00  0.00    +0.000 C 
ATOM     35  C   UNL     1       7.163   4.842  14.742  0.00  0.00    +0.000 A 
ATOM     36  C   UNL     1       7.073   5.395  16.029  0.00  0.00    +0.000 A 
ENDBRANCH  29  30
ENDBRANCH  10  29
TORSDOF 9
ENDMDL
MODEL 9
REMARK VINA RESULT:      -7.7      5.502      8.166
REMARK  Name = 
REMARK  11 active torsions:
REMARK  status: ('A' for Active; 'I' for Inactive)
REMARK    1  A    between atoms: C_1  and  C_2
REMARK    2  A    between atoms: C_5  and  C_6
REMARK    3  A    between atoms: C_6  and  N_7
REMARK    4  A    between atoms: C_8  and  C_10
REMARK    5  A    between atoms: C_10  and  C_11
REMARK    6  A    between atoms: C_11  and  C_12
REMARK    7  A    between atoms: C_12  and  C_13
REMARK    8  A    between atoms: C_13  and  N_14
REMARK    9  A    between atoms: N_23  and  C_24
REMARK   10  A    between atoms: C_24  and  C_25
REMARK   11  A    between atoms: C_28  and  C_29
REMARK                            x       y       z     vdW  Elec       q    Type
REMARK                         _______ _______ _______ _____ _____    ______ ____
ROOT
ATOM      1  N   UNL     1       9.241  11.874  19.125  0.00  0.00    +0.000 N 
ATOM      2  C   UNL     1       9.317  11.764  20.504  0.00  0.00    +0.000 A 
ATOM      3  O   UNL     1       9.589  10.711  21.095  0.00  0.00    +0.000 OA
ATOM      4  C   UNL     1       9.061  12.971  21.289  0.00  0.00    +0.000 A 
ATOM      5  C   UNL     1       9.053  12.891  22.689  0.00  0.00    +0.000 A 
ATOM      6  C   UNL     1       8.709  14.003  23.450  0.00  0.00    +0.000 A 
ATOM      7  C   UNL     1       8.392  15.196  22.810  0.00  0.00    +0.000 A 
ATOM      8  C   UNL     1       8.437  15.282  21.414  0.00  0.00    +0.000 A 
ATOM      9  C   UNL     1       8.760  14.165  20.628  0.00  0.00    +0.000 A 
ATOM     10  N   UNL     1       8.829  14.203  19.207  0.00  0.00    +0.000 N 
ATOM     11  C   UNL     1       9.230  13.094  18.471  0.00  0.00    +0.000 A 
ATOM     12  O   UNL     1       9.542  13.206  17.269  0.00  0.00    +0.000 OA
ENDROOT
BRANCH   1  13
ATOM     13  C   UNL     1       9.394  10.639  18.349  0.00  0.00    +0.000 C 
BRANCH  13  14
ATOM     14  C   UNL     1       8.086   9.836  18.170  0.00  0.00    +0.000 C 
BRANCH  14  15
ATOM     15  C   UNL     1       8.292   8.421  17.655  0.00  0.00    +0.000 C 
BRANCH  15  16
ATOM     16  C   UNL     1       6.958   7.800  17.281  0.00  0.00    +0.000 C 
BRANCH  16  18
ATOM     17  N   UNL     1       6.119   5.861  18.402  0.00  0.00    +0.000 N 
ATOM     18  C   UNL     1       6.994   6.302  17.437  0.00  0.00    +0.000 C 
ATOM     19  O   UNL     1       7.701   5.576  16.766  0.00  0.00    +0.000 OA
ATOM     20  H   UNL     1       5.638   6.532  18.985  0.00  0.00    +0.000 HD
BRANCH  17  21
ATOM     21  C   UNL     1       6.035   4.446  18.694  0.00  0.00    +0.000 C 
BRANCH  21  26
ATOM     22  C   UNL     1       0.585   2.373  18.744  0.00  0.00    +0.000 C 
ATOM     23  C   UNL     1       1.993   2.886  18.722  0.00  0.00    +0.000 A 
ATOM     24  C   UNL     1       2.990   2.322  19.513  0.00  0.00    +0.000 A 
ATOM     25  C   UNL     1       4.290   2.827  19.484  0.00  0.00    +0.000 A 
ATOM     26  C   UNL     1       4.628   3.903  18.654  0.00  0.00    +0.000 A 
ATOM     27  C   UNL     1       3.621   4.470  17.859  0.00  0.00    +0.000 A 
ATOM     28  C   UNL     1       2.314   3.967  17.891  0.00  0.00    +0.000 A 
ENDBRANCH  21  26
ENDBRANCH  17  21
ENDBRANCH  16  18
ENDBRANCH  15  16
ENDBRANCH  14  15
ENDBRANCH  13  14
ENDBRANCH   1  13
BRANCH  10  29
ATOM     29  C   UNL     1       8.440  15.378  18.429  0.00  0.00    +0.000 C 
BRANCH  29  30
ATOM     30  C   UNL     1       6.941  15.624  18.394  0.00  0.00    +0.000 A 
ATOM     31  C   UNL     1       6.439  16.856  18.829  0.00  0.00    +0.000 A 
ATOM     32  C   UNL     1       5.077  17.154  18.752  0.00  0.00    +0.000 A 
ATOM     33  C   UNL     1       4.178  16.221  18.233  0.00  0.00    +0.000 A 
ATOM     34  C   UNL     1       2.713  16.523  18.128  0.00  0.00    +0.000 C 
ATOM     35  C   UNL     1       4.664  14.986  17.795  0.00  0.00    +0.000 A 
ATOM     36  C   UNL     1       6.030  14.681  17.891  0.00  0.00    +0.000 A 
ENDBRANCH  29  30
ENDBRANCH  10  29
TORSDOF 9
ENDMDL
