MODEL 1
REMARK VINA RESULT:      -7.9      0.000      0.000
REMARK  Name = 
REMARK  7 active torsions:
REMARK  status: ('A' for Active; 'I' for Inactive)
REMARK    1  A    between atoms: C_1  and  O_2
REMARK    2  A    between atoms: O_2  and  C_3
REMARK    3  A    between atoms: C_3  and  C_5
REMARK    4  A    between atoms: C_9  and  S_10
REMARK    5  A    between atoms: S_10  and  C_11
REMARK    6  A    between atoms: C_11  and  C_12
REMARK    7  A    between atoms: C_19  and  C_20
REMARK                            x       y       z     vdW  Elec       q    Type
REMARK                         _______ _______ _______ _____ _____    ______ ____
ROOT
ATOM      1  S   UNL     1       7.458   6.566  17.934  0.00  0.00    +0.000 S 
ENDROOT
BRANCH   1   6
ATOM      2  C   UNL     1       9.220  12.522  18.485  0.00  0.00    +0.000 A 
ATOM      3  C   UNL     1       8.533  11.617  17.643  0.00  0.00    +0.000 A 
ATOM      4  C   UNL     1       8.476  10.261  17.993  0.00  0.00    +0.000 A 
ATOM      5  N   UNL     1       7.874   9.198  17.352  0.00  0.00    +0.000 NA
ATOM      6  C   UNL     1       8.117   8.157  18.114  0.00  0.00    +0.000 A 
ATOM      7  N   UNL     1       8.839   8.503  19.219  0.00  0.00    +0.000 N 
ATOM      8  C   UNL     1       9.092   9.848  19.166  0.00  0.00    +0.000 A 
ATOM      9  C   UNL     1       9.776  10.710  20.027  0.00  0.00    +0.000 A 
ATOM     10  C   UNL     1       9.818  12.069  19.672  0.00  0.00    +0.000 A 
ATOM     11 CL   UNL     1      10.578  13.118  20.823  0.00  0.00    +0.000 Cl
ATOM     12  H   UNL     1       9.188   7.847  19.907  0.00  0.00    +0.000 HD
BRANCH   2  13
ATOM     13  C   UNL     1       9.209  13.940  18.050  0.00  0.00    +0.000 C 
ATOM     14  O   UNL     1       8.191  14.614  18.015  0.00  0.00    +0.000 OA
BRANCH  13  16
ATOM     15  C   UNL     1      10.560  15.734  17.401  0.00  0.00    +0.000 C 
ATOM     16  O   UNL     1      10.432  14.329  17.620  0.00  0.00    +0.000 OA
ENDBRANCH  13  16
ENDBRANCH   2  13
ENDBRANCH   1   6
BRANCH   1  17
ATOM     17  C   UNL     1       6.145   6.751  16.689  0.00  0.00    +0.000 C 
BRANCH  17  18
ATOM     18  C   UNL     1       4.876   6.020  17.106  0.00  0.00    +0.000 C 
ATOM     19  O   UNL     1       4.346   5.208  16.352  0.00  0.00    +0.000 OA
ATOM     20  N   UNL     1       4.384   6.352  18.356  0.00  0.00    +0.000 N 
ATOM     21  C   UNL     1       3.314   5.660  18.955  0.00  0.00    +0.000 A 
ATOM     22  C   UNL     1       2.703   6.221  20.072  0.00  0.00    +0.000 A 
ATOM     23  C   UNL     1       1.628   5.555  20.663  0.00  0.00    +0.000 A 
ATOM     24  C   UNL     1       1.203   4.341  20.139  0.00  0.00    +0.000 A 
ATOM     25  C   UNL     1       1.883   3.841  19.041  0.00  0.00    +0.000 A 
ATOM     26  N   UNL     1       2.924   4.477  18.447  0.00  0.00    +0.000 NA
ATOM     27  H   UNL     1       4.738   7.167  18.833  0.00  0.00    +0.000 HD
BRANCH  25  28
ATOM     28  C   UNL     1       1.488   2.523  18.451  0.00  0.00    +0.000 C 
ATOM     29  N   UNL     1       2.487   1.837  17.816  0.00  0.00    +0.000 N 
ATOM     30  O   UNL     1       0.347   2.081  18.528  0.00  0.00    +0.000 OA
ATOM     31  H   UNL     1       3.400   2.272  17.717  0.00  0.00    +0.000 HD
ATOM     32  H   UNL     1       2.279   0.958  17.367  0.00  0.00    +0.000 HD
ENDBRANCH  25  28
ENDBRANCH  17  18
ENDBRANCH   1  17
TORSDOF 6
ENDMDL
MODEL 2
REMARK VINA RESULT:      -7.8      5.995      7.941
REMARK  Name = 
REMARK  7 active torsions:
REMARK  status: ('A' for Active; 'I' for Inactive)
REMARK    1  A    between atoms: C_1  and  O_2
REMARK    2  A    between atoms: O_2  and  C_3
REMARK    3  A    between atoms: C_3  and  C_5
REMARK    4  A    between atoms: C_9  and  S_10
REMARK    5  A    between atoms: S_10  and  C_11
REMARK    6  A    between atoms: C_11  and  C_12
REMARK    7  A    between atoms: C_19  and  C_20
REMARK                            x       y       z     vdW  Elec       q    Type
REMARK                         _______ _______ _______ _____ _____    ______ ____
ROOT
ATOM      1  S   UNL     1       4.101   4.549  18.588  0.00  0.00    +0.000 S 
ENDROOT
BRANCH   1   6
ATOM      2  C   UNL     1       0.766   9.762  19.344  0.00  0.00    +0.000 A 
ATOM      3  C   UNL     1       1.524   9.030  18.401  0.00  0.00    +0.000 A 
ATOM      4  C   UNL     1       2.164   7.850  18.804  0.00  0.00    +0.000 A 
ATOM      5  N   UNL     1       2.946   6.969  18.086  0.00  0.00    +0.000 NA
ATOM      6  C   UNL     1       3.280   6.032  18.943  0.00  0.00    +0.000 A 
ATOM      7  N   UNL     1       2.743   6.265  20.175  0.00  0.00    +0.000 N 
ATOM      8  C   UNL     1       2.026   7.431  20.120  0.00  0.00    +0.000 A 
ATOM      9  C   UNL     1       1.283   8.123  21.079  0.00  0.00    +0.000 A 
ATOM     10  C   UNL     1       0.636   9.299  20.663  0.00  0.00    +0.000 A 
ATOM     11 CL   UNL     1      -0.365  10.063  21.853  0.00  0.00    +0.000 Cl
ATOM     12  H   UNL     1       2.924   5.703  20.998  0.00  0.00    +0.000 HD
BRANCH   2  13
ATOM     13  C   UNL     1       0.103  10.985  18.825  0.00  0.00    +0.000 C 
ATOM     14  O   UNL     1       0.710  12.019  18.593  0.00  0.00    +0.000 OA
BRANCH  13  16
ATOM     15  C   UNL     1      -1.698  10.323  17.491  0.00  0.00    +0.000 C 
ATOM     16  O   UNL     1      -1.238  10.819  18.748  0.00  0.00    +0.000 OA
ENDBRANCH  13  16
ENDBRANCH   2  13
ENDBRANCH   1   6
BRANCH   1  17
ATOM     17  C   UNL     1       5.713   5.065  17.920  0.00  0.00    +0.000 C 
BRANCH  17  18
ATOM     18  C   UNL     1       5.952   4.486  16.533  0.00  0.00    +0.000 C 
ATOM     19  O   UNL     1       5.498   3.386  16.228  0.00  0.00    +0.000 OA
ATOM     20  N   UNL     1       6.709   5.273  15.683  0.00  0.00    +0.000 N 
ATOM     21  C   UNL     1       6.890   4.960  14.323  0.00  0.00    +0.000 A 
ATOM     22  C   UNL     1       7.877   5.635  13.612  0.00  0.00    +0.000 A 
ATOM     23  C   UNL     1       8.082   5.319  12.268  0.00  0.00    +0.000 A 
ATOM     24  C   UNL     1       7.286   4.353  11.664  0.00  0.00    +0.000 A 
ATOM     25  C   UNL     1       6.309   3.748  12.436  0.00  0.00    +0.000 A 
ATOM     26  N   UNL     1       6.101   4.036  13.746  0.00  0.00    +0.000 NA
ATOM     27  H   UNL     1       7.223   6.059  16.054  0.00  0.00    +0.000 HD
BRANCH  25  28
ATOM     28  C   UNL     1       5.403   2.722  11.831  0.00  0.00    +0.000 C 
ATOM     29  N   UNL     1       5.954   1.486  11.639  0.00  0.00    +0.000 N 
ATOM     30  O   UNL     1       4.241   2.968  11.526  0.00  0.00    +0.000 OA
ATOM     31  H   UNL     1       6.940   1.347  11.843  0.00  0.00    +0.000 HD
ATOM     32  H   UNL     1       5.406   0.759  11.203  0.00  0.00    +0.000 HD
ENDBRANCH  25  28
ENDBRANCH  17  18
ENDBRANCH   1  17
TORSDOF 6
ENDMDL
MODEL 3
REMARK VINA RESULT:      -7.8      6.094      8.003
REMARK  Name = 
REMARK  7 active torsions:
REMARK  status: ('A' for Active; 'I' for Inactive)
REMARK    1  A    between atoms: C_1  and  O_2
REMARK    2  A    between atoms: O_2  and  C_3
REMARK    3  A    between atoms: C_3  and  C_5
REMARK    4  A    between atoms: C_9  and  S_10
REMARK    5  A    between atoms: S_10  and  C_11
REMARK    6  A    between atoms: C_11  and  C_12
REMARK    7  A    between atoms: C_19  and  C_20
REMARK                            x       y       z     vdW  Elec       q    Type
REMARK                         _______ _______ _______ _____ _____    ______ ____
ROOT
ATOM      1  S   UNL     1       4.301   3.940  18.729  0.00  0.00    +0.000 S 
ENDROOT
BRANCH   1   6
ATOM      2  C   UNL     1       1.040   9.039  20.226  0.00  0.00    +0.000 A 
ATOM      3  C   UNL     1       1.427   7.764  20.698  0.00  0.00    +0.000 A 
ATOM      4  C   UNL     1       2.177   6.923  19.864  0.00  0.00    +0.000 A 
ATOM      5  N   UNL     1       2.673   5.655  20.089  0.00  0.00    +0.000 NA
ATOM      6  C   UNL     1       3.308   5.336  18.985  0.00  0.00    +0.000 A 
ATOM      7  N   UNL     1       3.251   6.342  18.065  0.00  0.00    +0.000 N 
ATOM      8  C   UNL     1       2.524   7.373  18.598  0.00  0.00    +0.000 A 
ATOM      9  C   UNL     1       2.165   8.627  18.097  0.00  0.00    +0.000 A 
ATOM     10  C   UNL     1       1.422   9.467  18.944  0.00  0.00    +0.000 A 
ATOM     11 CL   UNL     1       1.096  11.052  18.325  0.00  0.00    +0.000 Cl
ATOM     12  H   UNL     1       3.621   6.283  17.124  0.00  0.00    +0.000 HD
BRANCH   2  13
ATOM     13  C   UNL     1       0.269   9.872  21.182  0.00  0.00    +0.000 C 
ATOM     14  O   UNL     1      -0.702  10.534  20.851  0.00  0.00    +0.000 OA
BRANCH  13  16
ATOM     15  C   UNL     1      -0.056   9.585  23.479  0.00  0.00    +0.000 C 
ATOM     16  O   UNL     1       0.844   9.868  22.408  0.00  0.00    +0.000 OA
ENDBRANCH  13  16
ENDBRANCH   2  13
ENDBRANCH   1   6
BRANCH   1  17
ATOM     17  C   UNL     1       5.842   4.598  18.020  0.00  0.00    +0.000 C 
BRANCH  17  18
ATOM     18  C   UNL     1       6.037   4.132  16.583  0.00  0.00    +0.000 C 
ATOM     19  O   UNL     1       5.580   3.055  16.209  0.00  0.00    +0.000 OA
ATOM     20  N   UNL     1       6.759   4.990  15.774  0.00  0.00    +0.000 N 
ATOM     21  C   UNL     1       6.896   4.786  14.388  0.00  0.00    +0.000 A 
ATOM     22  C   UNL     1       7.854   5.524  13.700  0.00  0.00    +0.000 A 
ATOM     23  C   UNL     1       8.014   5.316  12.328  0.00  0.00    +0.000 A 
ATOM     24  C   UNL     1       7.204   4.393  11.677  0.00  0.00    +0.000 A 
ATOM     25  C   UNL     1       6.259   3.720  12.432  0.00  0.00    +0.000 A 
ATOM     26  N   UNL     1       6.094   3.902  13.767  0.00  0.00    +0.000 NA
ATOM     27  H   UNL     1       7.280   5.749  16.188  0.00  0.00    +0.000 HD
BRANCH  25  28
ATOM     28  C   UNL     1       5.339   2.737  11.779  0.00  0.00    +0.000 C 
ATOM     29  N   UNL     1       5.871   1.500  11.538  0.00  0.00    +0.000 N 
ATOM     30  O   UNL     1       4.183   3.014  11.478  0.00  0.00    +0.000 OA
ATOM     31  H   UNL     1       6.853   1.336  11.741  0.00  0.00    +0.000 HD
ATOM     32  H   UNL     1       5.314   0.802  11.069  0.00  0.00    +0.000 HD
ENDBRANCH  25  28
ENDBRANCH  17  18
ENDBRANCH   1  17
TORSDOF 6
ENDMDL
MODEL 4
REMARK VINA RESULT:      -7.8      1.587      1.839
REMARK  Name = 
REMARK  7 active torsions:
REMARK  status: ('A' for Active; 'I' for Inactive)
REMARK    1  A    between atoms: C_1  and  O_2
REMARK    2  A    between atoms: O_2  and  C_3
REMARK    3  A    between atoms: C_3  and  C_5
REMARK    4  A    between atoms: C_9  and  S_10
REMARK    5  A    between atoms: S_10  and  C_11
REMARK    6  A    between atoms: C_11  and  C_12
REMARK    7  A    between atoms: C_19  and  C_20
REMARK                            x       y       z     vdW  Elec       q    Type
REMARK                         _______ _______ _______ _____ _____    ______ ____
ROOT
ATOM      1  S   UNL     1       7.705   6.782  17.947  0.00  0.00    +0.000 S 
ENDROOT
BRANCH   1   6
ATOM      2  C   UNL     1       9.178  12.803  18.621  0.00  0.00    +0.000 A 
ATOM      3  C   UNL     1       8.552  11.881  17.751  0.00  0.00    +0.000 A 
ATOM      4  C   UNL     1       8.550  10.519  18.081  0.00  0.00    +0.000 A 
ATOM      5  N   UNL     1       8.011   9.439  17.411  0.00  0.00    +0.000 NA
ATOM      6  C   UNL     1       8.286   8.399  18.164  0.00  0.00    +0.000 A 
ATOM      7  N   UNL     1       8.967   8.760  19.290  0.00  0.00    +0.000 N 
ATOM      8  C   UNL     1       9.159  10.116  19.261  0.00  0.00    +0.000 A 
ATOM      9  C   UNL     1       9.783  10.996  20.150  0.00  0.00    +0.000 A 
ATOM     10  C   UNL     1       9.770  12.361  19.815  0.00  0.00    +0.000 A 
ATOM     11 CL   UNL     1      10.456  13.426  20.998  0.00  0.00    +0.000 Cl
ATOM     12  H   UNL     1       9.331   8.111  19.976  0.00  0.00    +0.000 HD
BRANCH   2  13
ATOM     13  C   UNL     1       9.111  14.226  18.207  0.00  0.00    +0.000 C 
ATOM     14  O   UNL     1       8.114  14.914  18.359  0.00  0.00    +0.000 OA
BRANCH  13  16
ATOM     15  C   UNL     1      10.943  15.678  18.194  0.00  0.00    +0.000 C 
ATOM     16  O   UNL     1      10.243  14.603  17.567  0.00  0.00    +0.000 OA
ENDBRANCH  13  16
ENDBRANCH   2  13
ENDBRANCH   1   6
BRANCH   1  17
ATOM     17  C   UNL     1       5.918   6.971  17.664  0.00  0.00    +0.000 C 
BRANCH  17  18
ATOM     18  C   UNL     1       5.135   5.802  18.246  0.00  0.00    +0.000 C 
ATOM     19  O   UNL     1       5.653   5.054  19.073  0.00  0.00    +0.000 OA
ATOM     20  N   UNL     1       3.845   5.655  17.769  0.00  0.00    +0.000 N 
ATOM     21  C   UNL     1       2.939   4.726  18.314  0.00  0.00    +0.000 A 
ATOM     22  C   UNL     1       1.772   4.445  17.611  0.00  0.00    +0.000 A 
ATOM     23  C   UNL     1       0.875   3.510  18.130  0.00  0.00    +0.000 A 
ATOM     24  C   UNL     1       1.154   2.895  19.345  0.00  0.00    +0.000 A 
ATOM     25  C   UNL     1       2.325   3.251  19.993  0.00  0.00    +0.000 A 
ATOM     26  N   UNL     1       3.213   4.151  19.500  0.00  0.00    +0.000 NA
ATOM     27  H   UNL     1       3.554   6.165  16.949  0.00  0.00    +0.000 HD
BRANCH  25  28
ATOM     28  C   UNL     1       2.664   2.644  21.318  0.00  0.00    +0.000 C 
ATOM     29  N   UNL     1       1.678   2.702  22.264  0.00  0.00    +0.000 N 
ATOM     30  O   UNL     1       3.752   2.127  21.547  0.00  0.00    +0.000 OA
ATOM     31  H   UNL     1       0.818   3.200  22.053  0.00  0.00    +0.000 HD
ATOM     32  H   UNL     1       1.855   2.341  23.189  0.00  0.00    +0.000 HD
ENDBRANCH  25  28
ENDBRANCH  17  18
ENDBRANCH   1  17
TORSDOF 6
ENDMDL
MODEL 5
REMARK VINA RESULT:      -7.7      4.979      7.512
REMARK  Name = 
REMARK  7 active torsions:
REMARK  status: ('A' for Active; 'I' for Inactive)
REMARK    1  A    between atoms: C_1  and  O_2
REMARK    2  A    between atoms: O_2  and  C_3
REMARK    3  A    between atoms: C_3  and  C_5
REMARK    4  A    between atoms: C_9  and  S_10
REMARK    5  A    between atoms: S_10  and  C_11
REMARK    6  A    between atoms: C_11  and  C_12
REMARK    7  A    between atoms: C_19  and  C_20
REMARK                            x       y       z     vdW  Elec       q    Type
REMARK                         _______ _______ _______ _____ _____    ______ ____
ROOT
ATOM      1  S   UNL     1       2.091   2.433  20.145  0.00  0.00    +0.000 S 
ENDROOT
BRANCH   1   6
ATOM      2  C   UNL     1       1.329   8.621  20.215  0.00  0.00    +0.000 A 
ATOM      3  C   UNL     1       1.115   7.445  20.971  0.00  0.00    +0.000 A 
ATOM      4  C   UNL     1       1.445   6.202  20.413  0.00  0.00    +0.000 A 
ATOM      5  N   UNL     1       1.337   4.931  20.940  0.00  0.00    +0.000 NA
ATOM      6  C   UNL     1       1.795   4.133  20.003  0.00  0.00    +0.000 A 
ATOM      7  N   UNL     1       2.199   4.832  18.903  0.00  0.00    +0.000 N 
ATOM      8  C   UNL     1       1.979   6.164  19.133  0.00  0.00    +0.000 A 
ATOM      9  C   UNL     1       2.209   7.303  18.356  0.00  0.00    +0.000 A 
ATOM     10  C   UNL     1       1.886   8.545  18.928  0.00  0.00    +0.000 A 
ATOM     11 CL   UNL     1       2.293   9.934  17.976  0.00  0.00    +0.000 Cl
ATOM     12  H   UNL     1       2.526   4.411  18.042  0.00  0.00    +0.000 HD
BRANCH   2  13
ATOM     13  C   UNL     1       0.976   9.893  20.892  0.00  0.00    +0.000 C 
ATOM     14  O   UNL     1       1.518  10.269  21.920  0.00  0.00    +0.000 OA
BRANCH  13  16
ATOM     15  C   UNL     1       0.105  11.904  20.078  0.00  0.00    +0.000 C 
ATOM     16  O   UNL     1      -0.066  10.501  20.278  0.00  0.00    +0.000 OA
ENDBRANCH  13  16
ENDBRANCH   2  13
ENDBRANCH   1   6
BRANCH   1  17
ATOM     17  C   UNL     1       3.895   2.295  20.330  0.00  0.00    +0.000 C 
BRANCH  17  18
ATOM     18  C   UNL     1       4.627   3.087  19.255  0.00  0.00    +0.000 C 
ATOM     19  O   UNL     1       4.430   2.855  18.065  0.00  0.00    +0.000 OA
ATOM     20  N   UNL     1       5.510   4.045  19.722  0.00  0.00    +0.000 N 
ATOM     21  C   UNL     1       6.146   4.965  18.868  0.00  0.00    +0.000 A 
ATOM     22  C   UNL     1       7.216   5.703  19.367  0.00  0.00    +0.000 A 
ATOM     23  C   UNL     1       7.869   6.604  18.524  0.00  0.00    +0.000 A 
ATOM     24  C   UNL     1       7.428   6.761  17.216  0.00  0.00    +0.000 A 
ATOM     25  C   UNL     1       6.341   6.007  16.808  0.00  0.00    +0.000 A 
ATOM     26  N   UNL     1       5.698   5.120  17.609  0.00  0.00    +0.000 NA
ATOM     27  H   UNL     1       5.781   4.044  20.694  0.00  0.00    +0.000 HD
BRANCH  25  28
ATOM     28  C   UNL     1       5.803   6.156  15.419  0.00  0.00    +0.000 C 
ATOM     29  N   UNL     1       6.285   5.264  14.501  0.00  0.00    +0.000 N 
ATOM     30  O   UNL     1       4.985   7.017  15.118  0.00  0.00    +0.000 OA
ATOM     31  H   UNL     1       7.013   4.612  14.779  0.00  0.00    +0.000 HD
ATOM     32  H   UNL     1       5.989   5.333  13.539  0.00  0.00    +0.000 HD
ENDBRANCH  25  28
ENDBRANCH  17  18
ENDBRANCH   1  17
TORSDOF 6
ENDMDL
MODEL 6
REMARK VINA RESULT:      -7.7      5.739      7.553
REMARK  Name = 
REMARK  7 active torsions:
REMARK  status: ('A' for Active; 'I' for Inactive)
REMARK    1  A    between atoms: C_1  and  O_2
REMARK    2  A    between atoms: O_2  and  C_3
REMARK    3  A    between atoms: C_3  and  C_5
REMARK    4  A    between atoms: C_9  and  S_10
REMARK    5  A    between atoms: S_10  and  C_11
REMARK    6  A    between atoms: C_11  and  C_12
REMARK    7  A    between atoms: C_19  and  C_20
REMARK                            x       y       z     vdW  Elec       q    Type
REMARK                         _______ _______ _______ _____ _____    ______ ____
ROOT
ATOM      1  S   UNL     1       3.530   4.576  18.461  0.00  0.00    +0.000 S 
ENDROOT
BRANCH   1   6
ATOM      2  C   UNL     1       0.936  10.159  19.450  0.00  0.00    +0.000 A 
ATOM      3  C   UNL     1       1.571   9.363  18.469  0.00  0.00    +0.000 A 
ATOM      4  C   UNL     1       2.056   8.096  18.822  0.00  0.00    +0.000 A 
ATOM      5  N   UNL     1       2.698   7.143  18.059  0.00  0.00    +0.000 NA
ATOM      6  C   UNL     1       2.922   6.143  18.880  0.00  0.00    +0.000 A 
ATOM      7  N   UNL     1       2.446   6.405  20.131  0.00  0.00    +0.000 N 
ATOM      8  C   UNL     1       1.890   7.657  20.128  0.00  0.00    +0.000 A 
ATOM      9  C   UNL     1       1.265   8.411  21.125  0.00  0.00    +0.000 A 
ATOM     10  C   UNL     1       0.773   9.675  20.759  0.00  0.00    +0.000 A 
ATOM     11 CL   UNL     1      -0.093  10.526  21.995  0.00  0.00    +0.000 Cl
ATOM     12  H   UNL     1       2.566   5.797  20.932  0.00  0.00    +0.000 HD
BRANCH   2  13
ATOM     13  C   UNL     1       0.432  11.475  18.984  0.00  0.00    +0.000 C 
ATOM     14  O   UNL     1      -0.758  11.734  18.897  0.00  0.00    +0.000 OA
BRANCH  13  16
ATOM     15  C   UNL     1       1.758  13.328  19.504  0.00  0.00    +0.000 C 
ATOM     16  O   UNL     1       1.449  12.276  18.590  0.00  0.00    +0.000 OA
ENDBRANCH  13  16
ENDBRANCH   2  13
ENDBRANCH   1   6
BRANCH   1  17
ATOM     17  C   UNL     1       5.272   4.862  18.021  0.00  0.00    +0.000 C 
BRANCH  17  18
ATOM     18  C   UNL     1       5.589   4.328  16.631  0.00  0.00    +0.000 C 
ATOM     19  O   UNL     1       5.126   3.255  16.253  0.00  0.00    +0.000 OA
ATOM     20  N   UNL     1       6.426   5.123  15.867  0.00  0.00    +0.000 N 
ATOM     21  C   UNL     1       6.692   4.855  14.512  0.00  0.00    +0.000 A 
ATOM     22  C   UNL     1       7.745   5.525  13.897  0.00  0.00    +0.000 A 
ATOM     23  C   UNL     1       8.033   5.253  12.558  0.00  0.00    +0.000 A 
ATOM     24  C   UNL     1       7.254   4.337  11.863  0.00  0.00    +0.000 A 
ATOM     25  C   UNL     1       6.209   3.733  12.543  0.00  0.00    +0.000 A 
ATOM     26  N   UNL     1       5.919   3.978  13.846  0.00  0.00    +0.000 NA
ATOM     27  H   UNL     1       6.935   5.877  16.304  0.00  0.00    +0.000 HD
BRANCH  25  28
ATOM     28  C   UNL     1       5.317   2.760  11.838  0.00  0.00    +0.000 C 
ATOM     29  N   UNL     1       5.864   1.531  11.589  0.00  0.00    +0.000 N 
ATOM     30  O   UNL     1       4.172   3.039  11.502  0.00  0.00    +0.000 OA
ATOM     31  H   UNL     1       6.839   1.367  11.823  0.00  0.00    +0.000 HD
ATOM     32  H   UNL     1       5.327   0.841  11.086  0.00  0.00    +0.000 HD
ENDBRANCH  25  28
ENDBRANCH  17  18
ENDBRANCH   1  17
TORSDOF 6
ENDMDL
MODEL 7
REMARK VINA RESULT:      -7.7      6.108      8.162
REMARK  Name = 
REMARK  7 active torsions:
REMARK  status: ('A' for Active; 'I' for Inactive)
REMARK    1  A    between atoms: C_1  and  O_2
REMARK    2  A    between atoms: O_2  and  C_3
REMARK    3  A    between atoms: C_3  and  C_5
REMARK    4  A    between atoms: C_9  and  S_10
REMARK    5  A    between atoms: S_10  and  C_11
REMARK    6  A    between atoms: C_11  and  C_12
REMARK    7  A    between atoms: C_19  and  C_20
REMARK                            x       y       z     vdW  Elec       q    Type
REMARK                         _______ _______ _______ _____ _____    ______ ____
ROOT
ATOM      1  S   UNL     1       5.085   4.644  19.688  0.00  0.00    +0.000 S 
ENDROOT
BRANCH   1   6
ATOM      2  C   UNL     1       6.116   3.874  13.587  0.00  0.00    +0.000 A 
ATOM      3  C   UNL     1       5.305   3.443  14.661  0.00  0.00    +0.000 A 
ATOM      4  C   UNL     1       5.556   3.933  15.951  0.00  0.00    +0.000 A 
ATOM      5  N   UNL     1       4.915   3.673  17.144  0.00  0.00    +0.000 NA
ATOM      6  C   UNL     1       5.547   4.400  18.036  0.00  0.00    +0.000 A 
ATOM      7  N   UNL     1       6.558   5.120  17.471  0.00  0.00    +0.000 N 
ATOM      8  C   UNL     1       6.595   4.835  16.131  0.00  0.00    +0.000 A 
ATOM      9  C   UNL     1       7.415   5.289  15.096  0.00  0.00    +0.000 A 
ATOM     10  C   UNL     1       7.149   4.801  13.806  0.00  0.00    +0.000 A 
ATOM     11 CL   UNL     1       8.117   5.476  12.537  0.00  0.00    +0.000 Cl
ATOM     12  H   UNL     1       7.211   5.698  17.986  0.00  0.00    +0.000 HD
BRANCH   2  13
ATOM     13  C   UNL     1       5.764   3.325  12.254  0.00  0.00    +0.000 C 
ATOM     14  O   UNL     1       6.496   2.567  11.636  0.00  0.00    +0.000 OA
BRANCH  13  16
ATOM     15  C   UNL     1       3.835   2.964  10.985  0.00  0.00    +0.000 C 
ATOM     16  O   UNL     1       4.603   3.850  11.800  0.00  0.00    +0.000 OA
ENDBRANCH  13  16
ENDBRANCH   2  13
ENDBRANCH   1   6
BRANCH   1  17
ATOM     17  C   UNL     1       3.308   4.259  19.729  0.00  0.00    +0.000 C 
BRANCH  17  18
ATOM     18  C   UNL     1       2.468   5.522  19.858  0.00  0.00    +0.000 C 
ATOM     19  O   UNL     1       1.616   5.619  20.738  0.00  0.00    +0.000 OA
ATOM     20  N   UNL     1       2.730   6.506  18.922  0.00  0.00    +0.000 N 
ATOM     21  C   UNL     1       2.156   7.789  18.994  0.00  0.00    +0.000 A 
ATOM     22  C   UNL     1       2.245   8.620  17.881  0.00  0.00    +0.000 A 
ATOM     23  C   UNL     1       1.662   9.887  17.933  0.00  0.00    +0.000 A 
ATOM     24  C   UNL     1       1.023  10.300  19.096  0.00  0.00    +0.000 A 
ATOM     25  C   UNL     1       1.002   9.422  20.166  0.00  0.00    +0.000 A 
ATOM     26  N   UNL     1       1.556   8.183  20.132  0.00  0.00    +0.000 NA
ATOM     27  H   UNL     1       3.284   6.288  18.107  0.00  0.00    +0.000 HD
BRANCH  25  28
ATOM     28  C   UNL     1       0.354   9.823  21.454  0.00  0.00    +0.000 C 
ATOM     29  N   UNL     1       0.858   9.230  22.579  0.00  0.00    +0.000 N 
ATOM     30  O   UNL     1      -0.568  10.630  21.504  0.00  0.00    +0.000 OA
ATOM     31  H   UNL     1       1.575   8.517  22.483  0.00  0.00    +0.000 HD
ATOM     32  H   UNL     1       0.442   9.432  23.476  0.00  0.00    +0.000 HD
ENDBRANCH  25  28
ENDBRANCH  17  18
ENDBRANCH   1  17
TORSDOF 6
ENDMDL
MODEL 8
REMARK VINA RESULT:      -7.7      7.008      9.761
REMARK  Name = 
REMARK  7 active torsions:
REMARK  status: ('A' for Active; 'I' for Inactive)
REMARK    1  A    between atoms: C_1  and  O_2
REMARK    2  A    between atoms: O_2  and  C_3
REMARK    3  A    between atoms: C_3  and  C_5
REMARK    4  A    between atoms: C_9  and  S_10
REMARK    5  A    between atoms: S_10  and  C_11
REMARK    6  A    between atoms: C_11  and  C_12
REMARK    7  A    between atoms: C_19  and  C_20
REMARK                            x       y       z     vdW  Elec       q    Type
REMARK                         _______ _______ _______ _____ _____    ______ ____
ROOT
ATOM      1  S   UNL     1       1.511   9.655  18.372  0.00  0.00    +0.000 S 
ENDROOT
BRANCH   1   6
ATOM      2  C   UNL     1      -4.417  11.590  18.375  0.00  0.00    +0.000 A 
ATOM      3  C   UNL     1      -3.497  10.759  17.695  0.00  0.00    +0.000 A 
ATOM      4  C   UNL     1      -2.158  10.735  18.107  0.00  0.00    +0.000 A 
ATOM      5  N   UNL     1      -1.086  10.018  17.618  0.00  0.00    +0.000 NA
ATOM      6  C   UNL     1      -0.070  10.364  18.374  0.00  0.00    +0.000 A 
ATOM      7  N   UNL     1      -0.440  11.263  19.331  0.00  0.00    +0.000 N 
ATOM      8  C   UNL     1      -1.775  11.528  19.181  0.00  0.00    +0.000 A 
ATOM      9  C   UNL     1      -2.653  12.359  19.881  0.00  0.00    +0.000 A 
ATOM     10  C   UNL     1      -3.996  12.367  19.467  0.00  0.00    +0.000 A 
ATOM     11 CL   UNL     1      -5.070  13.323  20.434  0.00  0.00    +0.000 Cl
ATOM     12  H   UNL     1       0.197  11.708  19.980  0.00  0.00    +0.000 HD
BRANCH   2  13
ATOM     13  C   UNL     1      -5.817  11.534  17.888  0.00  0.00    +0.000 C 
ATOM     14  O   UNL     1      -6.629  10.720  18.300  0.00  0.00    +0.000 OA
BRANCH  13  16
ATOM     15  C   UNL     1      -6.801  13.558  17.256  0.00  0.00    +0.000 C 
ATOM     16  O   UNL     1      -6.022  12.420  16.886  0.00  0.00    +0.000 OA
ENDBRANCH  13  16
ENDBRANCH   2  13
ENDBRANCH   1   6
BRANCH   1  17
ATOM     17  C   UNL     1       1.511   8.529  19.800  0.00  0.00    +0.000 C 
BRANCH  17  18
ATOM     18  C   UNL     1       2.256   7.238  19.491  0.00  0.00    +0.000 C 
ATOM     19  O   UNL     1       2.201   6.284  20.263  0.00  0.00    +0.000 OA
ATOM     20  N   UNL     1       2.985   7.241  18.314  0.00  0.00    +0.000 N 
ATOM     21  C   UNL     1       3.601   6.083  17.804  0.00  0.00    +0.000 A 
ATOM     22  C   UNL     1       4.534   6.223  16.782  0.00  0.00    +0.000 A 
ATOM     23  C   UNL     1       5.168   5.084  16.281  0.00  0.00    +0.000 A 
ATOM     24  C   UNL     1       4.842   3.837  16.798  0.00  0.00    +0.000 A 
ATOM     25  C   UNL     1       3.883   3.784  17.796  0.00  0.00    +0.000 A 
ATOM     26  N   UNL     1       3.263   4.879  18.302  0.00  0.00    +0.000 NA
ATOM     27  H   UNL     1       3.159   8.113  17.836  0.00  0.00    +0.000 HD
BRANCH  25  28
ATOM     28  C   UNL     1       3.470   2.465  18.370  0.00  0.00    +0.000 C 
ATOM     29  N   UNL     1       2.417   1.853  17.747  0.00  0.00    +0.000 N 
ATOM     30  O   UNL     1       4.033   1.960  19.335  0.00  0.00    +0.000 OA
ATOM     31  H   UNL     1       1.937   2.339  16.996  0.00  0.00    +0.000 HD
ATOM     32  H   UNL     1       2.067   0.977  18.107  0.00  0.00    +0.000 HD
ENDBRANCH  25  28
ENDBRANCH  17  18
ENDBRANCH   1  17
TORSDOF 6
ENDMDL
MODEL 9
REMARK VINA RESULT:      -7.6      6.845      9.895
REMARK  Name = 
REMARK  7 active torsions:
REMARK  status: ('A' for Active; 'I' for Inactive)
REMARK    1  A    between atoms: C_1  and  O_2
REMARK    2  A    between atoms: O_2  and  C_3
REMARK    3  A    between atoms: C_3  and  C_5
REMARK    4  A    between atoms: C_9  and  S_10
REMARK    5  A    between atoms: S_10  and  C_11
REMARK    6  A    between atoms: C_11  and  C_12
REMARK    7  A    between atoms: C_19  and  C_20
REMARK                            x       y       z     vdW  Elec       q    Type
REMARK                         _______ _______ _______ _____ _____    ______ ____
ROOT
ATOM      1  S   UNL     1       2.013  10.373  18.117  0.00  0.00    +0.000 S 
ENDROOT
BRANCH   1   6
ATOM      2  C   UNL     1       3.054   4.340  19.300  0.00  0.00    +0.000 A 
ATOM      3  C   UNL     1       3.259   5.357  18.339  0.00  0.00    +0.000 A 
ATOM      4  C   UNL     1       2.721   6.632  18.565  0.00  0.00    +0.000 A 
ATOM      5  N   UNL     1       2.784   7.775  17.796  0.00  0.00    +0.000 NA
ATOM      6  C   UNL     1       2.122   8.682  18.478  0.00  0.00    +0.000 A 
ATOM      7  N   UNL     1       1.646   8.177  19.652  0.00  0.00    +0.000 N 
ATOM      8  C   UNL     1       2.008   6.859  19.734  0.00  0.00    +0.000 A 
ATOM      9  C   UNL     1       1.787   5.882  20.708  0.00  0.00    +0.000 A 
ATOM     10  C   UNL     1       2.339   4.611  20.478  0.00  0.00    +0.000 A 
ATOM     11 CL   UNL     1       2.138   3.465  21.763  0.00  0.00    +0.000 Cl
ATOM     12  H   UNL     1       1.057   8.686  20.300  0.00  0.00    +0.000 HD
BRANCH   2  13
ATOM     13  C   UNL     1       3.678   3.029  18.992  0.00  0.00    +0.000 C 
ATOM     14  O   UNL     1       3.123   2.173  18.321  0.00  0.00    +0.000 OA
BRANCH  13  16
ATOM     15  C   UNL     1       4.918   1.808  20.552  0.00  0.00    +0.000 C 
ATOM     16  O   UNL     1       4.866   2.892  19.625  0.00  0.00    +0.000 OA
ENDBRANCH  13  16
ENDBRANCH   2  13
ENDBRANCH   1   6
BRANCH   1  17
ATOM     17  C   UNL     1       1.118  11.086  19.531  0.00  0.00    +0.000 C 
BRANCH  17  18
ATOM     18  C   UNL     1      -0.387  11.076  19.300  0.00  0.00    +0.000 C 
ATOM     19  O   UNL     1      -1.165  11.148  20.247  0.00  0.00    +0.000 OA
ATOM     20  N   UNL     1      -0.783  10.968  17.978  0.00  0.00    +0.000 N 
ATOM     21  C   UNL     1      -2.126  11.099  17.579  0.00  0.00    +0.000 A 
ATOM     22  C   UNL     1      -2.477  10.706  16.292  0.00  0.00    +0.000 A 
ATOM     23  C   UNL     1      -3.810  10.812  15.890  0.00  0.00    +0.000 A 
ATOM     24  C   UNL     1      -4.752  11.325  16.774  0.00  0.00    +0.000 A 
ATOM     25  C   UNL     1      -4.314  11.717  18.027  0.00  0.00    +0.000 A 
ATOM     26  N   UNL     1      -3.025  11.614  18.438  0.00  0.00    +0.000 NA
ATOM     27  H   UNL     1      -0.110  10.703  17.274  0.00  0.00    +0.000 HD
BRANCH  25  28
ATOM     28  C   UNL     1      -5.278  12.304  19.010  0.00  0.00    +0.000 C 
ATOM     29  N   UNL     1      -6.477  12.709  18.491  0.00  0.00    +0.000 N 
ATOM     30  O   UNL     1      -5.016  12.417  20.202  0.00  0.00    +0.000 OA
ATOM     31  H   UNL     1      -6.624  12.660  17.488  0.00  0.00    +0.000 HD
ATOM     32  H   UNL     1      -7.158  13.145  19.096  0.00  0.00    +0.000 HD
ENDBRANCH  25  28
ENDBRANCH  17  18
ENDBRANCH   1  17
TORSDOF 6
ENDMDL
