MODEL 1
REMARK VINA RESULT:      -6.9      0.000      0.000
REMARK  Name = 
REMARK  7 active torsions:
REMARK  status: ('A' for Active; 'I' for Inactive)
REMARK    1  A    between atoms: C_1  and  C_2
REMARK    2  A    between atoms: C_4  and  C_5
REMARK    3  A    between atoms: C_11  and  C_12
REMARK    4  A    between atoms: C_12  and  N_13
REMARK    5  A    between atoms: C_18  and  C_19
REMARK    6  A    between atoms: C_19  and  C_20
REMARK    7  A    between atoms: C_20  and  O_21
REMARK                            x       y       z     vdW  Elec       q    Type
REMARK                         _______ _______ _______ _____ _____    ______ ____
ROOT
ATOM      1  C   UNL     1       7.865   6.046  18.978  0.00  0.00    +0.000 C 
ATOM      2  C   UNL     1       7.014   5.321  18.019  0.00  0.00    +0.000 A 
ATOM      3  O   UNL     1       7.421   5.374  16.717  0.00  0.00    +0.000 OA
ATOM      4  C   UNL     1       6.494   4.646  16.021  0.00  0.00    +0.000 A 
ATOM      5  N   UNL     1       5.544   4.142  16.785  0.00  0.00    +0.000 NA
ATOM      6  C   UNL     1       5.875   4.541  18.077  0.00  0.00    +0.000 A 
ENDROOT
BRANCH   4   7
ATOM      7  C   UNL     1       6.584   4.430  14.550  0.00  0.00    +0.000 A 
ATOM      8  C   UNL     1       5.741   3.544  13.816  0.00  0.00    +0.000 A 
ATOM      9  C   UNL     1       6.043   3.548  12.469  0.00  0.00    +0.000 A 
ATOM     10  S   UNL     1       7.342   4.600  12.106  0.00  0.00    +0.000 S 
ATOM     11  C   UNL     1       7.495   5.070  13.744  0.00  0.00    +0.000 A 
ENDBRANCH   4   7
BRANCH   6  12
ATOM     12  C   UNL     1       5.088   4.006  19.230  0.00  0.00    +0.000 C 
BRANCH  12  13
ATOM     13  N   UNL     1       3.625   3.856  18.981  0.00  0.00    +0.000 NA
ATOM     14  C   UNL     1       3.284   2.415  19.078  0.00  0.00    +0.000 C 
ATOM     15  C   UNL     1       1.792   2.089  19.101  0.00  0.00    +0.000 C 
ATOM     16  C   UNL     1       1.064   2.898  20.153  0.00  0.00    +0.000 C 
ATOM     17  C   UNL     1       1.344   4.372  19.935  0.00  0.00    +0.000 C 
ATOM     18  C   UNL     1       2.855   4.691  19.962  0.00  0.00    +0.000 C 
BRANCH  18  19
ATOM     19  C   UNL     1       3.047   6.210  19.690  0.00  0.00    +0.000 C 
BRANCH  19  20
ATOM     20  C   UNL     1       2.558   6.672  18.316  0.00  0.00    +0.000 C 
BRANCH  20  21
ATOM     21  O   UNL     1       3.629   6.627  17.379  0.00  0.00    +0.000 OA
ATOM     22  H   UNL     1       4.244   7.348  17.592  0.00  0.00    +0.000 HD
ENDBRANCH  20  21
ENDBRANCH  19  20
ENDBRANCH  18  19
ENDBRANCH  12  13
ENDBRANCH   6  12
TORSDOF 6
ENDMDL
MODEL 2
REMARK VINA RESULT:      -6.7      1.113      1.391
REMARK  Name = 
REMARK  7 active torsions:
REMARK  status: ('A' for Active; 'I' for Inactive)
REMARK    1  A    between atoms: C_1  and  C_2
REMARK    2  A    between atoms: C_4  and  C_5
REMARK    3  A    between atoms: C_11  and  C_12
REMARK    4  A    between atoms: C_12  and  N_13
REMARK    5  A    between atoms: C_18  and  C_19
REMARK    6  A    between atoms: C_19  and  C_20
REMARK    7  A    between atoms: C_20  and  O_21
REMARK                            x       y       z     vdW  Elec       q    Type
REMARK                         _______ _______ _______ _____ _____    ______ ____
ROOT
ATOM      1  C   UNL     1       7.979   7.234  18.222  0.00  0.00    +0.000 C 
ATOM      2  C   UNL     1       7.107   6.311  17.475  0.00  0.00    +0.000 A 
ATOM      3  O   UNL     1       7.473   6.079  16.179  0.00  0.00    +0.000 OA
ATOM      4  C   UNL     1       6.535   5.211  15.691  0.00  0.00    +0.000 A 
ATOM      5  N   UNL     1       5.615   4.881  16.579  0.00  0.00    +0.000 NA
ATOM      6  C   UNL     1       5.981   5.557  17.740  0.00  0.00    +0.000 A 
ENDROOT
BRANCH   4   7
ATOM      7  C   UNL     1       6.581   4.678  14.302  0.00  0.00    +0.000 A 
ATOM      8  C   UNL     1       7.546   5.064  13.326  0.00  0.00    +0.000 A 
ATOM      9  C   UNL     1       7.354   4.406  12.127  0.00  0.00    +0.000 A 
ATOM     10  S   UNL     1       6.009   3.349  12.184  0.00  0.00    +0.000 S 
ATOM     11  C   UNL     1       5.690   3.751  13.816  0.00  0.00    +0.000 A 
ENDBRANCH   4   7
BRANCH   6  12
ATOM     12  C   UNL     1       5.237   5.284  19.008  0.00  0.00    +0.000 C 
BRANCH  12  13
ATOM     13  N   UNL     1       4.029   4.422  18.858  0.00  0.00    +0.000 NA
ATOM     14  C   UNL     1       4.213   3.216  19.703  0.00  0.00    +0.000 C 
ATOM     15  C   UNL     1       2.976   2.336  19.877  0.00  0.00    +0.000 C 
ATOM     16  C   UNL     1       1.779   3.145  20.328  0.00  0.00    +0.000 C 
ATOM     17  C   UNL     1       1.558   4.294  19.364  0.00  0.00    +0.000 C 
ATOM     18  C   UNL     1       2.802   5.200  19.236  0.00  0.00    +0.000 C 
BRANCH  18  19
ATOM     19  C   UNL     1       2.497   6.319  18.200  0.00  0.00    +0.000 C 
BRANCH  19  20
ATOM     20  C   UNL     1       2.327   7.713  18.808  0.00  0.00    +0.000 C 
BRANCH  20  21
ATOM     21  O   UNL     1       2.563   8.707  17.816  0.00  0.00    +0.000 OA
ATOM     22  H   UNL     1       2.460   8.290  16.944  0.00  0.00    +0.000 HD
ENDBRANCH  20  21
ENDBRANCH  19  20
ENDBRANCH  18  19
ENDBRANCH  12  13
ENDBRANCH   6  12
TORSDOF 6
ENDMDL
MODEL 3
REMARK VINA RESULT:      -6.7      1.058      1.110
REMARK  Name = 
REMARK  7 active torsions:
REMARK  status: ('A' for Active; 'I' for Inactive)
REMARK    1  A    between atoms: C_1  and  C_2
REMARK    2  A    between atoms: C_4  and  C_5
REMARK    3  A    between atoms: C_11  and  C_12
REMARK    4  A    between atoms: C_12  and  N_13
REMARK    5  A    between atoms: C_18  and  C_19
REMARK    6  A    between atoms: C_19  and  C_20
REMARK    7  A    between atoms: C_20  and  O_21
REMARK                            x       y       z     vdW  Elec       q    Type
REMARK                         _______ _______ _______ _____ _____    ______ ____
ROOT
ATOM      1  C   UNL     1       7.959   6.963  18.397  0.00  0.00    +0.000 C 
ATOM      2  C   UNL     1       7.057   6.099  17.615  0.00  0.00    +0.000 A 
ATOM      3  O   UNL     1       7.416   5.902  16.313  0.00  0.00    +0.000 OA
ATOM      4  C   UNL     1       6.449   5.086  15.792  0.00  0.00    +0.000 A 
ATOM      5  N   UNL     1       5.516   4.757  16.666  0.00  0.00    +0.000 NA
ATOM      6  C   UNL     1       5.904   5.376  17.852  0.00  0.00    +0.000 A 
ENDROOT
BRANCH   4   7
ATOM      7  C   UNL     1       6.478   4.603  14.384  0.00  0.00    +0.000 A 
ATOM      8  C   UNL     1       5.464   3.795  13.791  0.00  0.00    +0.000 A 
ATOM      9  C   UNL     1       5.748   3.501  12.472  0.00  0.00    +0.000 A 
ATOM     10  S   UNL     1       7.234   4.184  11.969  0.00  0.00    +0.000 S 
ATOM     11  C   UNL     1       7.495   4.891  13.505  0.00  0.00    +0.000 A 
ENDBRANCH   4   7
BRANCH   6  12
ATOM     12  C   UNL     1       5.148   5.083  19.108  0.00  0.00    +0.000 C 
BRANCH  12  13
ATOM     13  N   UNL     1       3.888   4.308  18.921  0.00  0.00    +0.000 NA
ATOM     14  C   UNL     1       4.004   3.042  19.688  0.00  0.00    +0.000 C 
ATOM     15  C   UNL     1       2.717   2.231  19.823  0.00  0.00    +0.000 C 
ATOM     16  C   UNL     1       1.577   3.082  20.339  0.00  0.00    +0.000 C 
ATOM     17  C   UNL     1       1.418   4.300  19.449  0.00  0.00    +0.000 C 
ATOM     18  C   UNL     1       2.715   5.134  19.362  0.00  0.00    +0.000 C 
BRANCH  18  19
ATOM     19  C   UNL     1       2.470   6.332  18.401  0.00  0.00    +0.000 C 
BRANCH  19  20
ATOM     20  C   UNL     1       2.223   7.667  19.106  0.00  0.00    +0.000 C 
BRANCH  20  21
ATOM     21  O   UNL     1       2.251   7.483  20.518  0.00  0.00    +0.000 OA
ATOM     22  H   UNL     1       2.555   8.313  20.923  0.00  0.00    +0.000 HD
ENDBRANCH  20  21
ENDBRANCH  19  20
ENDBRANCH  18  19
ENDBRANCH  12  13
ENDBRANCH   6  12
TORSDOF 6
ENDMDL
MODEL 4
REMARK VINA RESULT:      -6.7      1.807      2.711
REMARK  Name = 
REMARK  7 active torsions:
REMARK  status: ('A' for Active; 'I' for Inactive)
REMARK    1  A    between atoms: C_1  and  C_2
REMARK    2  A    between atoms: C_4  and  C_5
REMARK    3  A    between atoms: C_11  and  C_12
REMARK    4  A    between atoms: C_12  and  N_13
REMARK    5  A    between atoms: C_18  and  C_19
REMARK    6  A    between atoms: C_19  and  C_20
REMARK    7  A    between atoms: C_20  and  O_21
REMARK                            x       y       z     vdW  Elec       q    Type
REMARK                         _______ _______ _______ _____ _____    ______ ____
ROOT
ATOM      1  C   UNL     1       7.918   7.511  18.058  0.00  0.00    +0.000 C 
ATOM      2  C   UNL     1       7.193   6.416  17.388  0.00  0.00    +0.000 A 
ATOM      3  O   UNL     1       7.470   6.255  16.061  0.00  0.00    +0.000 OA
ATOM      4  C   UNL     1       6.695   5.203  15.657  0.00  0.00    +0.000 A 
ATOM      5  N   UNL     1       5.959   4.692  16.626  0.00  0.00    +0.000 NA
ATOM      6  C   UNL     1       6.286   5.441  17.754  0.00  0.00    +0.000 A 
ENDROOT
BRANCH   4   7
ATOM      7  C   UNL     1       6.716   4.679  14.263  0.00  0.00    +0.000 A 
ATOM      8  C   UNL     1       7.622   5.120  13.254  0.00  0.00    +0.000 A 
ATOM      9  C   UNL     1       7.419   4.458  12.059  0.00  0.00    +0.000 A 
ATOM     10  S   UNL     1       6.136   3.331  12.160  0.00  0.00    +0.000 S 
ATOM     11  C   UNL     1       5.858   3.707  13.805  0.00  0.00    +0.000 A 
ENDBRANCH   4   7
BRANCH   6  12
ATOM     12  C   UNL     1       5.746   5.027  19.086  0.00  0.00    +0.000 C 
BRANCH  12  13
ATOM     13  N   UNL     1       4.277   5.219  19.259  0.00  0.00    +0.000 NA
ATOM     14  C   UNL     1       3.845   6.321  18.363  0.00  0.00    +0.000 C 
ATOM     15  C   UNL     1       2.335   6.498  18.214  0.00  0.00    +0.000 C 
ATOM     16  C   UNL     1       1.658   5.194  17.848  0.00  0.00    +0.000 C 
ATOM     17  C   UNL     1       2.032   4.132  18.863  0.00  0.00    +0.000 C 
ATOM     18  C   UNL     1       3.560   3.933  18.966  0.00  0.00    +0.000 C 
BRANCH  18  19
ATOM     19  C   UNL     1       3.849   2.861  20.055  0.00  0.00    +0.000 C 
BRANCH  19  20
ATOM     20  C   UNL     1       2.612   2.390  20.821  0.00  0.00    +0.000 C 
BRANCH  20  21
ATOM     21  O   UNL     1       2.642   2.898  22.151  0.00  0.00    +0.000 OA
ATOM     22  H   UNL     1       2.104   2.310  22.709  0.00  0.00    +0.000 HD
ENDBRANCH  20  21
ENDBRANCH  19  20
ENDBRANCH  18  19
ENDBRANCH  12  13
ENDBRANCH   6  12
TORSDOF 6
ENDMDL
MODEL 5
REMARK VINA RESULT:      -6.4      3.713      7.028
REMARK  Name = 
REMARK  7 active torsions:
REMARK  status: ('A' for Active; 'I' for Inactive)
REMARK    1  A    between atoms: C_1  and  C_2
REMARK    2  A    between atoms: C_4  and  C_5
REMARK    3  A    between atoms: C_11  and  C_12
REMARK    4  A    between atoms: C_12  and  N_13
REMARK    5  A    between atoms: C_18  and  C_19
REMARK    6  A    between atoms: C_19  and  C_20
REMARK    7  A    between atoms: C_20  and  O_21
REMARK                            x       y       z     vdW  Elec       q    Type
REMARK                         _______ _______ _______ _____ _____    ______ ____
ROOT
ATOM      1  C   UNL     1       1.750   3.615  21.087  0.00  0.00    +0.000 C 
ATOM      2  C   UNL     1       2.152   4.938  20.580  0.00  0.00    +0.000 A 
ATOM      3  O   UNL     1       1.314   5.968  20.898  0.00  0.00    +0.000 OA
ATOM      4  C   UNL     1       1.876   7.078  20.330  0.00  0.00    +0.000 A 
ATOM      5  N   UNL     1       3.000   6.825  19.685  0.00  0.00    +0.000 NA
ATOM      6  C   UNL     1       3.209   5.459  19.858  0.00  0.00    +0.000 A 
ENDROOT
BRANCH   4   7
ATOM      7  C   UNL     1       1.280   8.437  20.462  0.00  0.00    +0.000 A 
ATOM      8  C   UNL     1       0.774   8.975  21.682  0.00  0.00    +0.000 A 
ATOM      9  C   UNL     1       0.288  10.256  21.513  0.00  0.00    +0.000 A 
ATOM     10  S   UNL     1       0.428  10.788  19.893  0.00  0.00    +0.000 S 
ATOM     11  C   UNL     1       1.158   9.317  19.413  0.00  0.00    +0.000 A 
ENDBRANCH   4   7
BRANCH   6  12
ATOM     12  C   UNL     1       4.491   4.852  19.385  0.00  0.00    +0.000 C 
BRANCH  12  13
ATOM     13  N   UNL     1       4.830   5.125  17.958  0.00  0.00    +0.000 NA
ATOM     14  C   UNL     1       6.215   5.657  17.905  0.00  0.00    +0.000 C 
ATOM     15  C   UNL     1       6.830   5.760  16.511  0.00  0.00    +0.000 C 
ATOM     16  C   UNL     1       6.714   4.453  15.755  0.00  0.00    +0.000 C 
ATOM     17  C   UNL     1       5.263   4.015  15.731  0.00  0.00    +0.000 C 
ATOM     18  C   UNL     1       4.671   3.869  17.151  0.00  0.00    +0.000 C 
BRANCH  18  19
ATOM     19  C   UNL     1       3.177   3.459  17.026  0.00  0.00    +0.000 C 
BRANCH  19  20
ATOM     20  C   UNL     1       2.817   2.156  17.741  0.00  0.00    +0.000 C 
BRANCH  20  21
ATOM     21  O   UNL     1       4.005   1.454  18.097  0.00  0.00    +0.000 OA
ATOM     22  H   UNL     1       4.765   2.010  17.855  0.00  0.00    +0.000 HD
ENDBRANCH  20  21
ENDBRANCH  19  20
ENDBRANCH  18  19
ENDBRANCH  12  13
ENDBRANCH   6  12
TORSDOF 6
ENDMDL
MODEL 6
REMARK VINA RESULT:      -6.3      1.543      2.536
REMARK  Name = 
REMARK  7 active torsions:
REMARK  status: ('A' for Active; 'I' for Inactive)
REMARK    1  A    between atoms: C_1  and  C_2
REMARK    2  A    between atoms: C_4  and  C_5
REMARK    3  A    between atoms: C_11  and  C_12
REMARK    4  A    between atoms: C_12  and  N_13
REMARK    5  A    between atoms: C_18  and  C_19
REMARK    6  A    between atoms: C_19  and  C_20
REMARK    7  A    between atoms: C_20  and  O_21
REMARK                            x       y       z     vdW  Elec       q    Type
REMARK                         _______ _______ _______ _____ _____    ______ ____
ROOT
ATOM      1  C   UNL     1       7.862   7.555  17.926  0.00  0.00    +0.000 C 
ATOM      2  C   UNL     1       7.154   6.429  17.294  0.00  0.00    +0.000 A 
ATOM      3  O   UNL     1       7.401   6.252  15.962  0.00  0.00    +0.000 OA
ATOM      4  C   UNL     1       6.648   5.171  15.597  0.00  0.00    +0.000 A 
ATOM      5  N   UNL     1       5.953   4.656  16.594  0.00  0.00    +0.000 NA
ATOM      6  C   UNL     1       6.286   5.434  17.700  0.00  0.00    +0.000 A 
ENDROOT
BRANCH   4   7
ATOM      7  C   UNL     1       6.649   4.624  14.212  0.00  0.00    +0.000 A 
ATOM      8  C   UNL     1       5.667   3.722  13.705  0.00  0.00    +0.000 A 
ATOM      9  C   UNL     1       5.912   3.385  12.389  0.00  0.00    +0.000 A 
ATOM     10  S   UNL     1       7.324   4.139  11.786  0.00  0.00    +0.000 S 
ATOM     11  C   UNL     1       7.604   4.936  13.274  0.00  0.00    +0.000 A 
ENDBRANCH   4   7
BRANCH   6  12
ATOM     12  C   UNL     1       5.794   5.027  19.052  0.00  0.00    +0.000 C 
BRANCH  12  13
ATOM     13  N   UNL     1       4.332   5.218  19.275  0.00  0.00    +0.000 NA
ATOM     14  C   UNL     1       3.890   6.389  18.477  0.00  0.00    +0.000 C 
ATOM     15  C   UNL     1       2.379   6.589  18.379  0.00  0.00    +0.000 C 
ATOM     16  C   UNL     1       1.679   5.324  17.931  0.00  0.00    +0.000 C 
ATOM     17  C   UNL     1       2.066   4.184  18.854  0.00  0.00    +0.000 C 
ATOM     18  C   UNL     1       3.595   3.964  18.904  0.00  0.00    +0.000 C 
BRANCH  18  19
ATOM     19  C   UNL     1       3.898   2.810  19.901  0.00  0.00    +0.000 C 
BRANCH  19  20
ATOM     20  C   UNL     1       4.007   1.429  19.253  0.00  0.00    +0.000 C 
BRANCH  20  21
ATOM     21  O   UNL     1       4.141   1.564  17.842  0.00  0.00    +0.000 OA
ATOM     22  H   UNL     1       4.479   2.456  17.656  0.00  0.00    +0.000 HD
ENDBRANCH  20  21
ENDBRANCH  19  20
ENDBRANCH  18  19
ENDBRANCH  12  13
ENDBRANCH   6  12
TORSDOF 6
ENDMDL
MODEL 7
REMARK VINA RESULT:      -6.3      2.949      6.459
REMARK  Name = 
REMARK  7 active torsions:
REMARK  status: ('A' for Active; 'I' for Inactive)
REMARK    1  A    between atoms: C_1  and  C_2
REMARK    2  A    between atoms: C_4  and  C_5
REMARK    3  A    between atoms: C_11  and  C_12
REMARK    4  A    between atoms: C_12  and  N_13
REMARK    5  A    between atoms: C_18  and  C_19
REMARK    6  A    between atoms: C_19  and  C_20
REMARK    7  A    between atoms: C_20  and  O_21
REMARK                            x       y       z     vdW  Elec       q    Type
REMARK                         _______ _______ _______ _____ _____    ______ ____
ROOT
ATOM      1  C   UNL     1       2.303   9.103  17.936  0.00  0.00    +0.000 C 
ATOM      2  C   UNL     1       2.704   7.686  17.988  0.00  0.00    +0.000 A 
ATOM      3  O   UNL     1       1.997   6.907  18.858  0.00  0.00    +0.000 OA
ATOM      4  C   UNL     1       2.536   5.655  18.740  0.00  0.00    +0.000 A 
ATOM      5  N   UNL     1       3.521   5.590  17.864  0.00  0.00    +0.000 NA
ATOM      6  C   UNL     1       3.627   6.880  17.350  0.00  0.00    +0.000 A 
ENDROOT
BRANCH   4   7
ATOM      7  C   UNL     1       2.027   4.487  19.510  0.00  0.00    +0.000 A 
ATOM      8  C   UNL     1       1.425   3.337  18.919  0.00  0.00    +0.000 A 
ATOM      9  C   UNL     1       1.053   2.408  19.870  0.00  0.00    +0.000 A 
ATOM     10  S   UNL     1       1.414   2.935  21.457  0.00  0.00    +0.000 S 
ATOM     11  C   UNL     1       2.087   4.398  20.881  0.00  0.00    +0.000 A 
ENDBRANCH   4   7
BRANCH   6  12
ATOM     12  C   UNL     1       4.552   7.133  16.203  0.00  0.00    +0.000 C 
BRANCH  12  13
ATOM     13  N   UNL     1       5.948   6.646  16.398  0.00  0.00    +0.000 NA
ATOM     14  C   UNL     1       6.471   7.231  17.657  0.00  0.00    +0.000 C 
ATOM     15  C   UNL     1       7.794   6.652  18.156  0.00  0.00    +0.000 C 
ATOM     16  C   UNL     1       7.744   5.141  18.231  0.00  0.00    +0.000 C 
ATOM     17  C   UNL     1       7.324   4.586  16.884  0.00  0.00    +0.000 C 
ATOM     18  C   UNL     1       5.963   5.145  16.418  0.00  0.00    +0.000 C 
BRANCH  18  19
ATOM     19  C   UNL     1       5.636   4.555  15.017  0.00  0.00    +0.000 C 
BRANCH  19  20
ATOM     20  C   UNL     1       6.860   4.326  14.128  0.00  0.00    +0.000 C 
BRANCH  20  21
ATOM     21  O   UNL     1       7.429   5.577  13.754  0.00  0.00    +0.000 OA
ATOM     22  H   UNL     1       7.477   6.134  14.549  0.00  0.00    +0.000 HD
ENDBRANCH  20  21
ENDBRANCH  19  20
ENDBRANCH  18  19
ENDBRANCH  12  13
ENDBRANCH   6  12
TORSDOF 6
ENDMDL
MODEL 8
REMARK VINA RESULT:      -6.3      1.862      2.872
REMARK  Name = 
REMARK  7 active torsions:
REMARK  status: ('A' for Active; 'I' for Inactive)
REMARK    1  A    between atoms: C_1  and  C_2
REMARK    2  A    between atoms: C_4  and  C_5
REMARK    3  A    between atoms: C_11  and  C_12
REMARK    4  A    between atoms: C_12  and  N_13
REMARK    5  A    between atoms: C_18  and  C_19
REMARK    6  A    between atoms: C_19  and  C_20
REMARK    7  A    between atoms: C_20  and  O_21
REMARK                            x       y       z     vdW  Elec       q    Type
REMARK                         _______ _______ _______ _____ _____    ______ ____
ROOT
ATOM      1  C   UNL     1       7.762   7.717  17.773  0.00  0.00    +0.000 C 
ATOM      2  C   UNL     1       7.124   6.526  17.185  0.00  0.00    +0.000 A 
ATOM      3  O   UNL     1       7.349   6.338  15.851  0.00  0.00    +0.000 OA
ATOM      4  C   UNL     1       6.670   5.195  15.529  0.00  0.00    +0.000 A 
ATOM      5  N   UNL     1       6.042   4.653  16.556  0.00  0.00    +0.000 NA
ATOM      6  C   UNL     1       6.344   5.479  17.635  0.00  0.00    +0.000 A 
ENDROOT
BRANCH   4   7
ATOM      7  C   UNL     1       6.675   4.618  14.157  0.00  0.00    +0.000 A 
ATOM      8  C   UNL     1       7.572   5.017  13.122  0.00  0.00    +0.000 A 
ATOM      9  C   UNL     1       7.355   4.310  11.956  0.00  0.00    +0.000 A 
ATOM     10  S   UNL     1       6.071   3.191  12.113  0.00  0.00    +0.000 S 
ATOM     11  C   UNL     1       5.810   3.632  13.746  0.00  0.00    +0.000 A 
ENDBRANCH   4   7
BRANCH   6  12
ATOM     12  C   UNL     1       5.919   5.068  19.009  0.00  0.00    +0.000 C 
BRANCH  12  13
ATOM     13  N   UNL     1       4.462   5.217  19.290  0.00  0.00    +0.000 NA
ATOM     14  C   UNL     1       3.932   6.301  18.426  0.00  0.00    +0.000 C 
ATOM     15  C   UNL     1       2.411   6.431  18.389  0.00  0.00    +0.000 C 
ATOM     16  C   UNL     1       1.748   5.107  18.078  0.00  0.00    +0.000 C 
ATOM     17  C   UNL     1       2.228   4.061  19.065  0.00  0.00    +0.000 C 
ATOM     18  C   UNL     1       3.765   3.909  19.056  0.00  0.00    +0.000 C 
BRANCH  18  19
ATOM     19  C   UNL     1       4.166   2.851  20.123  0.00  0.00    +0.000 C 
BRANCH  19  20
ATOM     20  C   UNL     1       4.629   1.513  19.544  0.00  0.00    +0.000 C 
BRANCH  20  21
ATOM     21  O   UNL     1       5.445   0.831  20.491  0.00  0.00    +0.000 OA
ATOM     22  H   UNL     1       5.371   1.296  21.341  0.00  0.00    +0.000 HD
ENDBRANCH  20  21
ENDBRANCH  19  20
ENDBRANCH  18  19
ENDBRANCH  12  13
ENDBRANCH   6  12
TORSDOF 6
ENDMDL
MODEL 9
REMARK VINA RESULT:      -6.2      4.219      7.377
REMARK  Name = 
REMARK  7 active torsions:
REMARK  status: ('A' for Active; 'I' for Inactive)
REMARK    1  A    between atoms: C_1  and  C_2
REMARK    2  A    between atoms: C_4  and  C_5
REMARK    3  A    between atoms: C_11  and  C_12
REMARK    4  A    between atoms: C_12  and  N_13
REMARK    5  A    between atoms: C_18  and  C_19
REMARK    6  A    between atoms: C_19  and  C_20
REMARK    7  A    between atoms: C_20  and  O_21
REMARK                            x       y       z     vdW  Elec       q    Type
REMARK                         _______ _______ _______ _____ _____    ______ ____
ROOT
ATOM      1  C   UNL     1       1.638   3.921  20.917  0.00  0.00    +0.000 C 
ATOM      2  C   UNL     1       1.924   5.316  20.540  0.00  0.00    +0.000 A 
ATOM      3  O   UNL     1       1.048   6.246  21.022  0.00  0.00    +0.000 OA
ATOM      4  C   UNL     1       1.503   7.447  20.551  0.00  0.00    +0.000 A 
ATOM      5  N   UNL     1       2.594   7.342  19.816  0.00  0.00    +0.000 NA
ATOM      6  C   UNL     1       2.897   5.983  19.821  0.00  0.00    +0.000 A 
ENDROOT
BRANCH   4   7
ATOM      7  C   UNL     1       0.836   8.740  20.871  0.00  0.00    +0.000 A 
ATOM      8  C   UNL     1       0.743   9.840  19.969  0.00  0.00    +0.000 A 
ATOM      9  C   UNL     1       0.067  10.906  20.529  0.00  0.00    +0.000 A 
ATOM     10  S   UNL     1      -0.432  10.578  22.132  0.00  0.00    +0.000 S 
ATOM     11  C   UNL     1       0.236   9.004  22.080  0.00  0.00    +0.000 A 
ENDBRANCH   4   7
BRANCH   6  12
ATOM     12  C   UNL     1       4.179   5.519  19.207  0.00  0.00    +0.000 C 
BRANCH  12  13
ATOM     13  N   UNL     1       4.163   5.407  17.720  0.00  0.00    +0.000 NA
ATOM     14  C   UNL     1       4.853   6.595  17.158  0.00  0.00    +0.000 C 
ATOM     15  C   UNL     1       5.158   6.536  15.662  0.00  0.00    +0.000 C 
ATOM     16  C   UNL     1       5.878   5.257  15.293  0.00  0.00    +0.000 C 
ATOM     17  C   UNL     1       5.072   4.069  15.780  0.00  0.00    +0.000 C 
ATOM     18  C   UNL     1       4.813   4.120  17.302  0.00  0.00    +0.000 C 
BRANCH  18  19
ATOM     19  C   UNL     1       3.949   2.891  17.701  0.00  0.00    +0.000 C 
BRANCH  19  20
ATOM     20  C   UNL     1       2.469   3.015  17.335  0.00  0.00    +0.000 C 
BRANCH  20  21
ATOM     21  O   UNL     1       1.751   1.888  17.830  0.00  0.00    +0.000 OA
ATOM     22  H   UNL     1       1.578   1.291  17.083  0.00  0.00    +0.000 HD
ENDBRANCH  20  21
ENDBRANCH  19  20
ENDBRANCH  18  19
ENDBRANCH  12  13
ENDBRANCH   6  12
TORSDOF 6
ENDMDL
