MODEL 1
REMARK VINA RESULT:      -9.1      0.000      0.000
REMARK  Name = 
REMARK  7 active torsions:
REMARK  status: ('A' for Active; 'I' for Inactive)
REMARK    1  A    between atoms: C_2  and  C_3
REMARK    2  A    between atoms: C_7  and  C_8
REMARK    3  A    between atoms: C_8  and  C_9
REMARK    4  A    between atoms: C_12  and  C_13
REMARK    5  A    between atoms: N_15  and  C_16
REMARK    6  A    between atoms: C_16  and  C_17
REMARK    7  A    between atoms: C_17  and  C_18
REMARK                            x       y       z     vdW  Elec       q    Type
REMARK                         _______ _______ _______ _____ _____    ______ ____
ROOT
ATOM      1  C   UNL     1       2.797   6.103  18.767  0.00  0.00    +0.000 C 
ATOM      2  O   UNL     1       2.080   5.111  18.834  0.00  0.00    +0.000 OA
ATOM      3  N   UNL     1       4.170   6.023  18.595  0.00  0.00    +0.000 N 
ATOM      4  H   UNL     1       4.707   6.864  18.482  0.00  0.00    +0.000 HD
ENDROOT
BRANCH   1   8
ATOM      5  C   UNL     1       0.992  10.073  19.168  0.00  0.00    +0.000 A 
ATOM      6  C   UNL     1       1.019   9.167  20.238  0.00  0.00    +0.000 A 
ATOM      7  C   UNL     1       1.616   7.892  20.097  0.00  0.00    +0.000 A 
ATOM      8  C   UNL     1       2.193   7.489  18.883  0.00  0.00    +0.000 A 
ATOM      9  C   UNL     1       2.203   8.416  17.832  0.00  0.00    +0.000 A 
ATOM     10  C   UNL     1       1.610   9.681  17.973  0.00  0.00    +0.000 A 
BRANCH   5  11
ATOM     11  C   UNL     1       0.279  11.406  19.273  0.00  0.00    +0.000 C 
BRANCH  11  16
ATOM     12  C   UNL     1      -2.758  11.041  16.960  0.00  0.00    +0.000 A 
ATOM     13  C   UNL     1      -3.786  11.522  17.773  0.00  0.00    +0.000 A 
ATOM     14  C   UNL     1      -3.501  11.955  19.064  0.00  0.00    +0.000 A 
ATOM     15  C   UNL     1      -2.188  11.926  19.542  0.00  0.00    +0.000 A 
ATOM     16  C   UNL     1      -1.136  11.461  18.736  0.00  0.00    +0.000 A 
ATOM     17  C   UNL     1      -1.438  11.010  17.439  0.00  0.00    +0.000 A 
BRANCH  12  19
ATOM     18  N   UNL     1      -3.329  10.230  14.561  0.00  0.00    +0.000 NA
ATOM     19  C   UNL     1      -3.058  10.567  15.635  0.00  0.00    +0.000 C 
ENDBRANCH  12  19
ENDBRANCH  11  16
ENDBRANCH   5  11
ENDBRANCH   1   8
BRANCH   3  20
ATOM     20  C   UNL     1       4.949   4.792  18.642  0.00  0.00    +0.000 C 
BRANCH  20  21
ATOM     21  C   UNL     1       5.012   3.928  17.381  0.00  0.00    +0.000 C 
BRANCH  21  22
ATOM     22  C   UNL     1       5.991   4.264  16.292  0.00  0.00    +0.000 A 
ATOM     23  C   UNL     1       7.265   4.722  16.578  0.00  0.00    +0.000 A 
ATOM     24  N   UNL     1       7.548   5.577  15.554  0.00  0.00    +0.000 N 
ATOM     25  C   UNL     1       7.119   4.928  14.427  0.00  0.00    +0.000 A 
ATOM     26  C   UNL     1       7.609   5.021  13.127  0.00  0.00    +0.000 A 
ATOM     27  C   UNL     1       7.006   4.202  12.184  0.00  0.00    +0.000 A 
ATOM     28  C   UNL     1       5.888   3.442  12.528  0.00  0.00    +0.000 A 
ATOM     29 CL   UNL     1       5.192   2.433  11.313  0.00  0.00    +0.000 Cl
ATOM     30  C   UNL     1       5.344   3.440  13.835  0.00  0.00    +0.000 A 
ATOM     31  C   UNL     1       6.035   4.140  14.848  0.00  0.00    +0.000 A 
ATOM     32  H   UNL     1       7.510   6.586  15.631  0.00  0.00    +0.000 HD
ENDBRANCH  21  22
ENDBRANCH  20  21
ENDBRANCH   3  20
TORSDOF 7
ENDMDL
MODEL 2
REMARK VINA RESULT:      -8.8      1.469      1.931
REMARK  Name = 
REMARK  7 active torsions:
REMARK  status: ('A' for Active; 'I' for Inactive)
REMARK    1  A    between atoms: C_2  and  C_3
REMARK    2  A    between atoms: C_7  and  C_8
REMARK    3  A    between atoms: C_8  and  C_9
REMARK    4  A    between atoms: C_12  and  C_13
REMARK    5  A    between atoms: N_15  and  C_16
REMARK    6  A    between atoms: C_16  and  C_17
REMARK    7  A    between atoms: C_17  and  C_18
REMARK                            x       y       z     vdW  Elec       q    Type
REMARK                         _______ _______ _______ _____ _____    ______ ____
ROOT
ATOM      1  C   UNL     1       2.904   5.891  18.841  0.00  0.00    +0.000 C 
ATOM      2  O   UNL     1       3.264   5.335  19.873  0.00  0.00    +0.000 OA
ATOM      3  N   UNL     1       3.015   5.295  17.594  0.00  0.00    +0.000 N 
ATOM      4  H   UNL     1       2.648   5.764  16.785  0.00  0.00    +0.000 HD
ENDROOT
BRANCH   1   8
ATOM      5  C   UNL     1       1.151   9.899  19.057  0.00  0.00    +0.000 A 
ATOM      6  C   UNL     1       1.146   9.034  20.162  0.00  0.00    +0.000 A 
ATOM      7  C   UNL     1       1.726   7.746  20.080  0.00  0.00    +0.000 A 
ATOM      8  C   UNL     1       2.318   7.289  18.892  0.00  0.00    +0.000 A 
ATOM      9  C   UNL     1       2.361   8.174  17.808  0.00  0.00    +0.000 A 
ATOM     10  C   UNL     1       1.785   9.453  17.890  0.00  0.00    +0.000 A 
BRANCH   5  11
ATOM     11  C   UNL     1       0.458  11.245  19.099  0.00  0.00    +0.000 C 
BRANCH  11  16
ATOM     12  C   UNL     1      -3.286  12.042  19.338  0.00  0.00    +0.000 A 
ATOM     13  C   UNL     1      -3.801  11.278  18.289  0.00  0.00    +0.000 A 
ATOM     14  C   UNL     1      -2.942  10.516  17.503  0.00  0.00    +0.000 A 
ATOM     15  C   UNL     1      -1.571  10.498  17.773  0.00  0.00    +0.000 A 
ATOM     16  C   UNL     1      -1.034  11.246  18.833  0.00  0.00    +0.000 A 
ATOM     17  C   UNL     1      -1.908  12.026  19.609  0.00  0.00    +0.000 A 
BRANCH  12  19
ATOM     18  N   UNL     1      -4.884  13.540  20.732  0.00  0.00    +0.000 NA
ATOM     19  C   UNL     1      -4.171  12.852  20.132  0.00  0.00    +0.000 C 
ENDBRANCH  12  19
ENDBRANCH  11  16
ENDBRANCH   5  11
ENDBRANCH   1   8
BRANCH   3  20
ATOM     20  C   UNL     1       3.709   4.043  17.323  0.00  0.00    +0.000 C 
BRANCH  20  21
ATOM     21  C   UNL     1       5.225   4.001  17.516  0.00  0.00    +0.000 C 
BRANCH  21  22
ATOM     22  C   UNL     1       6.135   4.364  16.376  0.00  0.00    +0.000 A 
ATOM     23  C   UNL     1       7.392   4.896  16.593  0.00  0.00    +0.000 A 
ATOM     24  N   UNL     1       7.582   5.741  15.541  0.00  0.00    +0.000 N 
ATOM     25  C   UNL     1       7.140   5.043  14.447  0.00  0.00    +0.000 A 
ATOM     26  C   UNL     1       7.565   5.132  13.125  0.00  0.00    +0.000 A 
ATOM     27  C   UNL     1       6.966   4.261  12.228  0.00  0.00    +0.000 A 
ATOM     28  C   UNL     1       5.908   3.450  12.639  0.00  0.00    +0.000 A 
ATOM     29 CL   UNL     1       5.215   2.376  11.479  0.00  0.00    +0.000 Cl
ATOM     30  C   UNL     1       5.424   3.449  13.969  0.00  0.00    +0.000 A 
ATOM     31  C   UNL     1       6.120   4.209  14.934  0.00  0.00    +0.000 A 
ATOM     32  H   UNL     1       7.493   6.748  15.598  0.00  0.00    +0.000 HD
ENDBRANCH  21  22
ENDBRANCH  20  21
ENDBRANCH   3  20
TORSDOF 7
ENDMDL
MODEL 3
REMARK VINA RESULT:      -8.6      0.685      1.145
REMARK  Name = 
REMARK  7 active torsions:
REMARK  status: ('A' for Active; 'I' for Inactive)
REMARK    1  A    between atoms: C_2  and  C_3
REMARK    2  A    between atoms: C_7  and  C_8
REMARK    3  A    between atoms: C_8  and  C_9
REMARK    4  A    between atoms: C_12  and  C_13
REMARK    5  A    between atoms: N_15  and  C_16
REMARK    6  A    between atoms: C_16  and  C_17
REMARK    7  A    between atoms: C_17  and  C_18
REMARK                            x       y       z     vdW  Elec       q    Type
REMARK                         _______ _______ _______ _____ _____    ______ ____
ROOT
ATOM      1  C   UNL     1       3.335   6.186  18.525  0.00  0.00    +0.000 C 
ATOM      2  O   UNL     1       4.454   6.072  19.014  0.00  0.00    +0.000 OA
ATOM      3  N   UNL     1       2.789   5.232  17.680  0.00  0.00    +0.000 N 
ATOM      4  H   UNL     1       1.844   5.339  17.355  0.00  0.00    +0.000 HD
ENDROOT
BRANCH   1   8
ATOM      5  C   UNL     1       0.945   9.767  19.330  0.00  0.00    +0.000 A 
ATOM      6  C   UNL     1       1.474   9.507  18.056  0.00  0.00    +0.000 A 
ATOM      7  C   UNL     1       2.234   8.340  17.808  0.00  0.00    +0.000 A 
ATOM      8  C   UNL     1       2.492   7.409  18.827  0.00  0.00    +0.000 A 
ATOM      9  C   UNL     1       1.923   7.652  20.084  0.00  0.00    +0.000 A 
ATOM     10  C   UNL     1       1.168   8.811  20.329  0.00  0.00    +0.000 A 
BRANCH   5  11
ATOM     11  C   UNL     1       0.205  11.052  19.636  0.00  0.00    +0.000 C 
BRANCH  11  16
ATOM     12  C   UNL     1      -2.601  10.941  17.025  0.00  0.00    +0.000 A 
ATOM     13  C   UNL     1      -3.648  11.556  17.715  0.00  0.00    +0.000 A 
ATOM     14  C   UNL     1      -3.450  11.997  19.019  0.00  0.00    +0.000 A 
ATOM     15  C   UNL     1      -2.204  11.843  19.633  0.00  0.00    +0.000 A 
ATOM     16  C   UNL     1      -1.133  11.242  18.952  0.00  0.00    +0.000 A 
ATOM     17  C   UNL     1      -1.348  10.785  17.641  0.00  0.00    +0.000 A 
BRANCH  12  19
ATOM     18  N   UNL     1      -2.956  10.031  14.620  0.00  0.00    +0.000 NA
ATOM     19  C   UNL     1      -2.815  10.460  15.685  0.00  0.00    +0.000 C 
ENDBRANCH  12  19
ENDBRANCH  11  16
ENDBRANCH   5  11
ENDBRANCH   1   8
BRANCH   3  20
ATOM     20  C   UNL     1       3.506   4.087  17.135  0.00  0.00    +0.000 C 
BRANCH  20  21
ATOM     21  C   UNL     1       5.007   3.978  17.408  0.00  0.00    +0.000 C 
BRANCH  21  22
ATOM     22  C   UNL     1       5.991   4.296  16.319  0.00  0.00    +0.000 A 
ATOM     23  C   UNL     1       7.269   4.744  16.604  0.00  0.00    +0.000 A 
ATOM     24  N   UNL     1       7.563   5.588  15.575  0.00  0.00    +0.000 N 
ATOM     25  C   UNL     1       7.130   4.934  14.451  0.00  0.00    +0.000 A 
ATOM     26  C   UNL     1       7.622   5.013  13.151  0.00  0.00    +0.000 A 
ATOM     27  C   UNL     1       7.013   4.194  12.213  0.00  0.00    +0.000 A 
ATOM     28  C   UNL     1       5.887   3.448  12.560  0.00  0.00    +0.000 A 
ATOM     29 CL   UNL     1       5.183   2.436  11.352  0.00  0.00    +0.000 Cl
ATOM     30  C   UNL     1       5.341   3.461  13.866  0.00  0.00    +0.000 A 
ATOM     31  C   UNL     1       6.036   4.161  14.875  0.00  0.00    +0.000 A 
ATOM     32  H   UNL     1       7.535   6.598  15.644  0.00  0.00    +0.000 HD
ENDBRANCH  21  22
ENDBRANCH  20  21
ENDBRANCH   3  20
TORSDOF 7
ENDMDL
MODEL 4
REMARK VINA RESULT:      -8.6      3.260     10.353
REMARK  Name = 
REMARK  7 active torsions:
REMARK  status: ('A' for Active; 'I' for Inactive)
REMARK    1  A    between atoms: C_2  and  C_3
REMARK    2  A    between atoms: C_7  and  C_8
REMARK    3  A    between atoms: C_8  and  C_9
REMARK    4  A    between atoms: C_12  and  C_13
REMARK    5  A    between atoms: N_15  and  C_16
REMARK    6  A    between atoms: C_16  and  C_17
REMARK    7  A    between atoms: C_17  and  C_18
REMARK                            x       y       z     vdW  Elec       q    Type
REMARK                         _______ _______ _______ _____ _____    ______ ____
ROOT
ATOM      1  C   UNL     1       0.938   9.403  21.425  0.00  0.00    +0.000 C 
ATOM      2  O   UNL     1       1.416   9.556  22.545  0.00  0.00    +0.000 OA
ATOM      3  N   UNL     1      -0.079  10.205  20.931  0.00  0.00    +0.000 N 
ATOM      4  H   UNL     1      -0.393  10.081  19.985  0.00  0.00    +0.000 HD
ENDROOT
BRANCH   1   8
ATOM      5  C   UNL     1       2.448   6.162  18.896  0.00  0.00    +0.000 A 
ATOM      6  C   UNL     1       1.984   5.923  20.198  0.00  0.00    +0.000 A 
ATOM      7  C   UNL     1       1.488   6.978  21.000  0.00  0.00    +0.000 A 
ATOM      8  C   UNL     1       1.452   8.298  20.523  0.00  0.00    +0.000 A 
ATOM      9  C   UNL     1       1.874   8.522  19.206  0.00  0.00    +0.000 A 
ATOM     10  C   UNL     1       2.365   7.473  18.412  0.00  0.00    +0.000 A 
BRANCH   5  11
ATOM     11  C   UNL     1       3.064   5.061  18.058  0.00  0.00    +0.000 C 
BRANCH  11  16
ATOM     12  C   UNL     1       6.520   5.183  16.401  0.00  0.00    +0.000 A 
ATOM     13  C   UNL     1       7.359   5.279  17.514  0.00  0.00    +0.000 A 
ATOM     14  C   UNL     1       6.809   5.312  18.791  0.00  0.00    +0.000 A 
ATOM     15  C   UNL     1       5.425   5.231  18.965  0.00  0.00    +0.000 A 
ATOM     16  C   UNL     1       4.564   5.118  17.862  0.00  0.00    +0.000 A 
ATOM     17  C   UNL     1       5.128   5.103  16.574  0.00  0.00    +0.000 A 
BRANCH  12  19
ATOM     18  N   UNL     1       7.592   5.171  14.037  0.00  0.00    +0.000 NA
ATOM     19  C   UNL     1       7.087   5.178  15.078  0.00  0.00    +0.000 C 
ENDBRANCH  12  19
ENDBRANCH  11  16
ENDBRANCH   5  11
ENDBRANCH   1   8
BRANCH   3  20
ATOM     20  C   UNL     1      -0.818  11.193  21.706  0.00  0.00    +0.000 C 
BRANCH  20  21
ATOM     21  C   UNL     1      -1.266  12.474  21.002  0.00  0.00    +0.000 C 
BRANCH  21  22
ATOM     22  C   UNL     1      -2.562  12.496  20.241  0.00  0.00    +0.000 A 
ATOM     23  C   UNL     1      -3.622  13.291  20.636  0.00  0.00    +0.000 A 
ATOM     24  N   UNL     1      -4.725  12.572  20.287  0.00  0.00    +0.000 N 
ATOM     25  C   UNL     1      -4.452  12.095  19.032  0.00  0.00    +0.000 A 
ATOM     26  C   UNL     1      -5.336  11.800  17.999  0.00  0.00    +0.000 A 
ATOM     27  C   UNL     1      -4.768  11.374  16.808  0.00  0.00    +0.000 A 
ATOM     28  C   UNL     1      -3.395  11.137  16.731  0.00  0.00    +0.000 A 
ATOM     29 CL   UNL     1      -2.747  10.621  15.217  0.00  0.00    +0.000 Cl
ATOM     30  C   UNL     1      -2.526  11.348  17.829  0.00  0.00    +0.000 A 
ATOM     31  C   UNL     1      -3.057  11.932  18.999  0.00  0.00    +0.000 A 
ATOM     32  H   UNL     1      -5.288  12.044  20.943  0.00  0.00    +0.000 HD
ENDBRANCH  21  22
ENDBRANCH  20  21
ENDBRANCH   3  20
TORSDOF 7
ENDMDL
MODEL 5
REMARK VINA RESULT:      -8.5      3.996      6.230
REMARK  Name = 
REMARK  7 active torsions:
REMARK  status: ('A' for Active; 'I' for Inactive)
REMARK    1  A    between atoms: C_2  and  C_3
REMARK    2  A    between atoms: C_7  and  C_8
REMARK    3  A    between atoms: C_8  and  C_9
REMARK    4  A    between atoms: C_12  and  C_13
REMARK    5  A    between atoms: N_15  and  C_16
REMARK    6  A    between atoms: C_16  and  C_17
REMARK    7  A    between atoms: C_17  and  C_18
REMARK                            x       y       z     vdW  Elec       q    Type
REMARK                         _______ _______ _______ _____ _____    ______ ____
ROOT
ATOM      1  C   UNL     1       0.328  10.187  18.336  0.00  0.00    +0.000 C 
ATOM      2  O   UNL     1       1.058  10.968  18.937  0.00  0.00    +0.000 OA
ATOM      3  N   UNL     1       0.790   8.996  17.798  0.00  0.00    +0.000 N 
ATOM      4  H   UNL     1       0.141   8.360  17.370  0.00  0.00    +0.000 HD
ENDROOT
BRANCH   1   8
ATOM      5  C   UNL     1      -3.922  11.142  17.883  0.00  0.00    +0.000 A 
ATOM      6  C   UNL     1      -3.133  11.752  18.870  0.00  0.00    +0.000 A 
ATOM      7  C   UNL     1      -1.758  11.442  18.997  0.00  0.00    +0.000 A 
ATOM      8  C   UNL     1      -1.141  10.510  18.147  0.00  0.00    +0.000 A 
ATOM      9  C   UNL     1      -1.924   9.940  17.135  0.00  0.00    +0.000 A 
ATOM     10  C   UNL     1      -3.289  10.248  17.010  0.00  0.00    +0.000 A 
BRANCH   5  11
ATOM     11  C   UNL     1      -5.413  11.395  17.790  0.00  0.00    +0.000 C 
BRANCH  11  16
ATOM     12  C   UNL     1      -7.332  11.468  21.109  0.00  0.00    +0.000 A 
ATOM     13  C   UNL     1      -7.849  10.172  21.161  0.00  0.00    +0.000 A 
ATOM     14  C   UNL     1      -7.584   9.282  20.124  0.00  0.00    +0.000 A 
ATOM     15  C   UNL     1      -6.790   9.675  19.044  0.00  0.00    +0.000 A 
ATOM     16  C   UNL     1      -6.247  10.968  18.979  0.00  0.00    +0.000 A 
ATOM     17  C   UNL     1      -6.534  11.865  20.023  0.00  0.00    +0.000 A 
BRANCH  12  19
ATOM     18  N   UNL     1      -7.917  13.124  23.020  0.00  0.00    +0.000 NA
ATOM     19  C   UNL     1      -7.628  12.397  22.168  0.00  0.00    +0.000 C 
ENDBRANCH  12  19
ENDBRANCH  11  16
ENDBRANCH   5  11
ENDBRANCH   1   8
BRANCH   3  20
ATOM     20  C   UNL     1       2.190   8.599  17.721  0.00  0.00    +0.000 C 
BRANCH  20  21
ATOM     21  C   UNL     1       2.744   7.688  18.817  0.00  0.00    +0.000 C 
BRANCH  21  22
ATOM     22  C   UNL     1       2.977   6.231  18.533  0.00  0.00    +0.000 A 
ATOM     23  C   UNL     1       3.934   5.814  17.625  0.00  0.00    +0.000 A 
ATOM     24  N   UNL     1       3.403   4.683  17.080  0.00  0.00    +0.000 N 
ATOM     25  C   UNL     1       2.892   3.987  18.144  0.00  0.00    +0.000 A 
ATOM     26  C   UNL     1       2.747   2.612  18.299  0.00  0.00    +0.000 A 
ATOM     27  C   UNL     1       2.237   2.181  19.515  0.00  0.00    +0.000 A 
ATOM     28  C   UNL     1       1.781   3.110  20.451  0.00  0.00    +0.000 A 
ATOM     29 CL   UNL     1       1.170   2.512  21.951  0.00  0.00    +0.000 Cl
ATOM     30  C   UNL     1       1.845   4.506  20.229  0.00  0.00    +0.000 A 
ATOM     31  C   UNL     1       2.504   4.970  19.070  0.00  0.00    +0.000 A 
ATOM     32  H   UNL     1       2.972   4.643  16.164  0.00  0.00    +0.000 HD
ENDBRANCH  21  22
ENDBRANCH  20  21
ENDBRANCH   3  20
TORSDOF 7
ENDMDL
MODEL 6
REMARK VINA RESULT:      -8.5      6.560      9.522
REMARK  Name = 
REMARK  7 active torsions:
REMARK  status: ('A' for Active; 'I' for Inactive)
REMARK    1  A    between atoms: C_2  and  C_3
REMARK    2  A    between atoms: C_7  and  C_8
REMARK    3  A    between atoms: C_8  and  C_9
REMARK    4  A    between atoms: C_12  and  C_13
REMARK    5  A    between atoms: N_15  and  C_16
REMARK    6  A    between atoms: C_16  and  C_17
REMARK    7  A    between atoms: C_17  and  C_18
REMARK                            x       y       z     vdW  Elec       q    Type
REMARK                         _______ _______ _______ _____ _____    ______ ____
ROOT
ATOM      1  C   UNL     1       8.162   9.101  18.150  0.00  0.00    +0.000 C 
ATOM      2  O   UNL     1       7.898   9.998  17.356  0.00  0.00    +0.000 OA
ATOM      3  N   UNL     1       9.029   9.280  19.217  0.00  0.00    +0.000 N 
ATOM      4  H   UNL     1       9.164   8.534  19.877  0.00  0.00    +0.000 HD
ENDROOT
BRANCH   1   8
ATOM      5  C   UNL     1       6.284   5.177  17.644  0.00  0.00    +0.000 A 
ATOM      6  C   UNL     1       5.842   6.301  16.929  0.00  0.00    +0.000 A 
ATOM      7  C   UNL     1       6.466   7.560  17.094  0.00  0.00    +0.000 A 
ATOM      8  C   UNL     1       7.540   7.729  17.983  0.00  0.00    +0.000 A 
ATOM      9  C   UNL     1       8.005   6.593  18.658  0.00  0.00    +0.000 A 
ATOM     10  C   UNL     1       7.385   5.343  18.493  0.00  0.00    +0.000 A 
BRANCH   5  11
ATOM     11  C   UNL     1       5.572   3.844  17.546  0.00  0.00    +0.000 C 
BRANCH  11  16
ATOM     12  C   UNL     1       2.507   3.434  19.815  0.00  0.00    +0.000 A 
ATOM     13  C   UNL     1       1.470   3.787  18.949  0.00  0.00    +0.000 A 
ATOM     14  C   UNL     1       1.761   4.163  17.641  0.00  0.00    +0.000 A 
ATOM     15  C   UNL     1       3.083   4.171  17.188  0.00  0.00    +0.000 A 
ATOM     16  C   UNL     1       4.139   3.804  18.037  0.00  0.00    +0.000 A 
ATOM     17  C   UNL     1       3.837   3.442  19.361  0.00  0.00    +0.000 A 
BRANCH  12  19
ATOM     18  N   UNL     1       1.961   2.730  22.253  0.00  0.00    +0.000 NA
ATOM     19  C   UNL     1       2.209   3.071  21.175  0.00  0.00    +0.000 C 
ENDBRANCH  12  19
ENDBRANCH  11  16
ENDBRANCH   5  11
ENDBRANCH   1   8
BRANCH   3  20
ATOM     20  C   UNL     1       9.854  10.461  19.438  0.00  0.00    +0.000 C 
BRANCH  20  21
ATOM     21  C   UNL     1      10.590  11.061  18.239  0.00  0.00    +0.000 C 
BRANCH  21  22
ATOM     22  C   UNL     1      10.469  12.530  17.946  0.00  0.00    +0.000 A 
ATOM     23  C   UNL     1      11.501  13.239  17.360  0.00  0.00    +0.000 A 
ATOM     24  N   UNL     1      11.402  14.484  17.907  0.00  0.00    +0.000 N 
ATOM     25  C   UNL     1      10.062  14.771  17.883  0.00  0.00    +0.000 A 
ATOM     26  C   UNL     1       9.437  16.010  17.779  0.00  0.00    +0.000 A 
ATOM     27  C   UNL     1       8.051  15.997  17.731  0.00  0.00    +0.000 A 
ATOM     28  C   UNL     1       7.355  14.801  17.913  0.00  0.00    +0.000 A 
ATOM     29 CL   UNL     1       5.632  14.848  17.827  0.00  0.00    +0.000 Cl
ATOM     30  C   UNL     1       8.012  13.564  18.118  0.00  0.00    +0.000 A 
ATOM     31  C   UNL     1       9.419  13.529  18.013  0.00  0.00    +0.000 A 
ATOM     32  H   UNL     1      12.004  14.830  18.644  0.00  0.00    +0.000 HD
ENDBRANCH  21  22
ENDBRANCH  20  21
ENDBRANCH   3  20
TORSDOF 7
ENDMDL
MODEL 7
REMARK VINA RESULT:      -8.5      6.907      8.735
REMARK  Name = 
REMARK  7 active torsions:
REMARK  status: ('A' for Active; 'I' for Inactive)
REMARK    1  A    between atoms: C_2  and  C_3
REMARK    2  A    between atoms: C_7  and  C_8
REMARK    3  A    between atoms: C_8  and  C_9
REMARK    4  A    between atoms: C_12  and  C_13
REMARK    5  A    between atoms: N_15  and  C_16
REMARK    6  A    between atoms: C_16  and  C_17
REMARK    7  A    between atoms: C_17  and  C_18
REMARK                            x       y       z     vdW  Elec       q    Type
REMARK                         _______ _______ _______ _____ _____    ______ ____
ROOT
ATOM      1  C   UNL     1       8.084   8.313  17.999  0.00  0.00    +0.000 C 
ATOM      2  O   UNL     1       7.412   8.231  16.976  0.00  0.00    +0.000 OA
ATOM      3  N   UNL     1       8.371   7.214  18.794  0.00  0.00    +0.000 N 
ATOM      4  H   UNL     1       8.979   7.320  19.587  0.00  0.00    +0.000 HD
ENDROOT
BRANCH   1   8
ATOM      5  C   UNL     1       9.655  12.161  19.379  0.00  0.00    +0.000 A 
ATOM      6  C   UNL     1       9.813  10.989  20.135  0.00  0.00    +0.000 A 
ATOM      7  C   UNL     1       9.310   9.751  19.671  0.00  0.00    +0.000 A 
ATOM      8  C   UNL     1       8.631   9.655  18.446  0.00  0.00    +0.000 A 
ATOM      9  C   UNL     1       8.518  10.819  17.675  0.00  0.00    +0.000 A 
ATOM     10  C   UNL     1       9.018  12.048  18.137  0.00  0.00    +0.000 A 
BRANCH   5  11
ATOM     11  C   UNL     1      10.108  13.509  19.900  0.00  0.00    +0.000 C 
BRANCH  11  16
ATOM     12  C   UNL     1       8.049  16.506  18.684  0.00  0.00    +0.000 A 
ATOM     13  C   UNL     1       8.870  17.018  17.676  0.00  0.00    +0.000 A 
ATOM     14  C   UNL     1      10.086  16.401  17.397  0.00  0.00    +0.000 A 
ATOM     15  C   UNL     1      10.478  15.264  18.108  0.00  0.00    +0.000 A 
ATOM     16  C   UNL     1       9.661  14.724  19.114  0.00  0.00    +0.000 A 
ATOM     17  C   UNL     1       8.443  15.364  19.400  0.00  0.00    +0.000 A 
BRANCH  12  19
ATOM     18  N   UNL     1       5.779  17.652  19.205  0.00  0.00    +0.000 NA
ATOM     19  C   UNL     1       6.804  17.161  18.990  0.00  0.00    +0.000 C 
ENDBRANCH  12  19
ENDBRANCH  11  16
ENDBRANCH   5  11
ENDBRANCH   1   8
BRANCH   3  20
ATOM     20  C   UNL     1       7.792   5.887  18.629  0.00  0.00    +0.000 C 
BRANCH  20  21
ATOM     21  C   UNL     1       6.473   5.582  19.340  0.00  0.00    +0.000 C 
BRANCH  21  22
ATOM     22  C   UNL     1       5.358   4.908  18.592  0.00  0.00    +0.000 A 
ATOM     23  C   UNL     1       5.522   4.462  17.293  0.00  0.00    +0.000 A 
ATOM     24  N   UNL     1       4.294   4.631  16.726  0.00  0.00    +0.000 N 
ATOM     25  C   UNL     1       3.408   4.177  17.666  0.00  0.00    +0.000 A 
ATOM     26  C   UNL     1       2.154   3.602  17.479  0.00  0.00    +0.000 A 
ATOM     27  C   UNL     1       1.491   3.187  18.624  0.00  0.00    +0.000 A 
ATOM     28  C   UNL     1       2.022   3.471  19.882  0.00  0.00    +0.000 A 
ATOM     29 CL   UNL     1       1.157   2.916  21.268  0.00  0.00    +0.000 Cl
ATOM     30  C   UNL     1       3.254   4.148  20.052  0.00  0.00    +0.000 A 
ATOM     31  C   UNL     1       4.021   4.437  18.903  0.00  0.00    +0.000 A 
ATOM     32  H   UNL     1       4.059   5.392  16.099  0.00  0.00    +0.000 HD
ENDBRANCH  21  22
ENDBRANCH  20  21
ENDBRANCH   3  20
TORSDOF 7
ENDMDL
MODEL 8
REMARK VINA RESULT:      -8.4      2.423      3.518
REMARK  Name = 
REMARK  7 active torsions:
REMARK  status: ('A' for Active; 'I' for Inactive)
REMARK    1  A    between atoms: C_2  and  C_3
REMARK    2  A    between atoms: C_7  and  C_8
REMARK    3  A    between atoms: C_8  and  C_9
REMARK    4  A    between atoms: C_12  and  C_13
REMARK    5  A    between atoms: N_15  and  C_16
REMARK    6  A    between atoms: C_16  and  C_17
REMARK    7  A    between atoms: C_17  and  C_18
REMARK                            x       y       z     vdW  Elec       q    Type
REMARK                         _______ _______ _______ _____ _____    ______ ____
ROOT
ATOM      1  C   UNL     1       2.991   5.908  18.822  0.00  0.00    +0.000 C 
ATOM      2  O   UNL     1       3.509   5.417  19.820  0.00  0.00    +0.000 OA
ATOM      3  N   UNL     1       2.939   5.246  17.606  0.00  0.00    +0.000 N 
ATOM      4  H   UNL     1       2.449   5.662  16.834  0.00  0.00    +0.000 HD
ENDROOT
BRANCH   1   8
ATOM      5  C   UNL     1       1.172   9.884  19.070  0.00  0.00    +0.000 A 
ATOM      6  C   UNL     1       1.219   9.027  20.180  0.00  0.00    +0.000 A 
ATOM      7  C   UNL     1       1.820   7.749  20.088  0.00  0.00    +0.000 A 
ATOM      8  C   UNL     1       2.382   7.295  18.884  0.00  0.00    +0.000 A 
ATOM      9  C   UNL     1       2.372   8.174  17.794  0.00  0.00    +0.000 A 
ATOM     10  C   UNL     1       1.775   9.442  17.886  0.00  0.00    +0.000 A 
BRANCH   5  11
ATOM     11  C   UNL     1       0.455  11.217  19.127  0.00  0.00    +0.000 C 
BRANCH  11  16
ATOM     12  C   UNL     1       3.042  14.046  19.206  0.00  0.00    +0.000 A 
ATOM     13  C   UNL     1       2.750  14.658  20.427  0.00  0.00    +0.000 A 
ATOM     14  C   UNL     1       1.717  14.162  21.216  0.00  0.00    +0.000 A 
ATOM     15  C   UNL     1       0.985  13.047  20.800  0.00  0.00    +0.000 A 
ATOM     16  C   UNL     1       1.273  12.407  19.584  0.00  0.00    +0.000 A 
ATOM     17  C   UNL     1       2.307  12.926  18.785  0.00  0.00    +0.000 A 
BRANCH  12  19
ATOM     18  N   UNL     1       4.972  14.974  17.738  0.00  0.00    +0.000 NA
ATOM     19  C   UNL     1       4.092  14.576  18.376  0.00  0.00    +0.000 C 
ENDBRANCH  12  19
ENDBRANCH  11  16
ENDBRANCH   5  11
ENDBRANCH   1   8
BRANCH   3  20
ATOM     20  C   UNL     1       3.621   3.994  17.304  0.00  0.00    +0.000 C 
BRANCH  20  21
ATOM     21  C   UNL     1       5.132   3.922  17.528  0.00  0.00    +0.000 C 
BRANCH  21  22
ATOM     22  C   UNL     1       6.072   4.286  16.413  0.00  0.00    +0.000 A 
ATOM     23  C   UNL     1       7.340   4.778  16.665  0.00  0.00    +0.000 A 
ATOM     24  N   UNL     1       7.572   5.641  15.636  0.00  0.00    +0.000 N 
ATOM     25  C   UNL     1       7.131   4.982  14.519  0.00  0.00    +0.000 A 
ATOM     26  C   UNL     1       7.582   5.089  13.207  0.00  0.00    +0.000 A 
ATOM     27  C   UNL     1       6.977   4.255  12.279  0.00  0.00    +0.000 A 
ATOM     28  C   UNL     1       5.889   3.465  12.652  0.00  0.00    +0.000 A 
ATOM     29 CL   UNL     1       5.189   2.438  11.455  0.00  0.00    +0.000 Cl
ATOM     30  C   UNL     1       5.382   3.447  13.973  0.00  0.00    +0.000 A 
ATOM     31  C   UNL     1       6.080   4.165  14.968  0.00  0.00    +0.000 A 
ATOM     32  H   UNL     1       7.509   6.649  15.716  0.00  0.00    +0.000 HD
ENDBRANCH  21  22
ENDBRANCH  20  21
ENDBRANCH   3  20
TORSDOF 7
ENDMDL
MODEL 9
REMARK VINA RESULT:      -8.4      7.347     10.119
REMARK  Name = 
REMARK  7 active torsions:
REMARK  status: ('A' for Active; 'I' for Inactive)
REMARK    1  A    between atoms: C_2  and  C_3
REMARK    2  A    between atoms: C_7  and  C_8
REMARK    3  A    between atoms: C_8  and  C_9
REMARK    4  A    between atoms: C_12  and  C_13
REMARK    5  A    between atoms: N_15  and  C_16
REMARK    6  A    between atoms: C_16  and  C_17
REMARK    7  A    between atoms: C_17  and  C_18
REMARK                            x       y       z     vdW  Elec       q    Type
REMARK                         _______ _______ _______ _____ _____    ______ ____
ROOT
ATOM      1  C   UNL     1       8.567   9.157  18.454  0.00  0.00    +0.000 C 
ATOM      2  O   UNL     1       9.336   9.252  19.405  0.00  0.00    +0.000 OA
ATOM      3  N   UNL     1       8.299  10.216  17.601  0.00  0.00    +0.000 N 
ATOM      4  H   UNL     1       7.711  10.071  16.799  0.00  0.00    +0.000 HD
ENDROOT
BRANCH   1   8
ATOM      5  C   UNL     1       6.444   5.418  17.620  0.00  0.00    +0.000 A 
ATOM      6  C   UNL     1       6.187   6.588  16.889  0.00  0.00    +0.000 A 
ATOM      7  C   UNL     1       6.889   7.785  17.162  0.00  0.00    +0.000 A 
ATOM      8  C   UNL     1       7.858   7.846  18.176  0.00  0.00    +0.000 A 
ATOM      9  C   UNL     1       8.141   6.663  18.871  0.00  0.00    +0.000 A 
ATOM     10  C   UNL     1       7.444   5.474  18.599  0.00  0.00    +0.000 A 
BRANCH   5  11
ATOM     11  C   UNL     1       5.640   4.153  17.402  0.00  0.00    +0.000 C 
BRANCH  11  16
ATOM     12  C   UNL     1       2.734   3.612  19.844  0.00  0.00    +0.000 A 
ATOM     13  C   UNL     1       1.658   4.125  19.116  0.00  0.00    +0.000 A 
ATOM     14  C   UNL     1       1.873   4.649  17.845  0.00  0.00    +0.000 A 
ATOM     15  C   UNL     1       3.156   4.648  17.290  0.00  0.00    +0.000 A 
ATOM     16  C   UNL     1       4.249   4.123  17.999  0.00  0.00    +0.000 A 
ATOM     17  C   UNL     1       4.024   3.611  19.288  0.00  0.00    +0.000 A 
BRANCH  12  19
ATOM     18  N   UNL     1       2.295   2.709  22.238  0.00  0.00    +0.000 NA
ATOM     19  C   UNL     1       2.515   3.095  21.170  0.00  0.00    +0.000 C 
ENDBRANCH  12  19
ENDBRANCH  11  16
ENDBRANCH   5  11
ENDBRANCH   1   8
BRANCH   3  20
ATOM     20  C   UNL     1       8.740  11.590  17.808  0.00  0.00    +0.000 C 
BRANCH  20  21
ATOM     21  C   UNL     1      10.233  11.895  17.680  0.00  0.00    +0.000 C 
BRANCH  21  22
ATOM     22  C   UNL     1      10.685  13.282  17.319  0.00  0.00    +0.000 A 
ATOM     23  C   UNL     1      11.669  13.500  16.372  0.00  0.00    +0.000 A 
ATOM     24  N   UNL     1      12.315  14.616  16.815  0.00  0.00    +0.000 N 
ATOM     25  C   UNL     1      11.314  15.469  17.202  0.00  0.00    +0.000 A 
ATOM     26  C   UNL     1      11.306  16.861  17.203  0.00  0.00    +0.000 A 
ATOM     27  C   UNL     1      10.126  17.467  17.607  0.00  0.00    +0.000 A 
ATOM     28  C   UNL     1       9.077  16.695  18.106  0.00  0.00    +0.000 A 
ATOM     29 CL   UNL     1       7.630  17.508  18.580  0.00  0.00    +0.000 Cl
ATOM     30  C   UNL     1       9.146  15.284  18.191  0.00  0.00    +0.000 A 
ATOM     31  C   UNL     1      10.271  14.635  17.638  0.00  0.00    +0.000 A 
ATOM     32  H   UNL     1      13.212  14.604  17.284  0.00  0.00    +0.000 HD
ENDBRANCH  21  22
ENDBRANCH  20  21
ENDBRANCH   3  20
TORSDOF 7
ENDMDL
