MODEL 1
REMARK VINA RESULT:      -9.4      0.000      0.000
REMARK  Name = 
REMARK  5 active torsions:
REMARK  status: ('A' for Active; 'I' for Inactive)
REMARK    1  A    between atoms: C_1  and  C_2
REMARK    2  A    between atoms: C_7  and  C_8
REMARK    3  A    between atoms: C_14  and  C_15
REMARK    4  A    between atoms: C_15  and  C_16
REMARK    5  A    between atoms: N_25  and  C_26
REMARK                            x       y       z     vdW  Elec       q    Type
REMARK                         _______ _______ _______ _____ _____    ______ ____
ROOT
ATOM      1  C   UNL     1      -5.854  13.118  23.808  0.00  0.00    +0.000 C 
ATOM      2  C   UNL     1      -4.546  12.834  23.126  0.00  0.00    +0.000 A 
ATOM      3  C   UNL     1      -3.410  12.317  23.799  0.00  0.00    +0.000 A 
ATOM      4  C   UNL     1      -2.227  11.929  23.097  0.00  0.00    +0.000 A 
ATOM      5  C   UNL     1      -2.135  12.224  21.748  0.00  0.00    +0.000 A 
ATOM      6  C   UNL     1      -3.183  12.999  21.217  0.00  0.00    +0.000 A 
ATOM      7  C   UNL     1      -4.450  13.038  21.758  0.00  0.00    +0.000 A 
ATOM      8  C   UNL     1      -5.632  13.102  20.827  0.00  0.00    +0.000 C 
ATOM      9  N   UNL     1      -2.953  13.382  19.894  0.00  0.00    +0.000 N 
ATOM     10  C   UNL     1      -2.306  12.273  19.414  0.00  0.00    +0.000 C 
ATOM     11  O   UNL     1      -2.650  11.695  18.395  0.00  0.00    +0.000 OA
ATOM     12  C   UNL     1      -1.243  11.813  20.573  0.00  0.00    +0.000 C 
ATOM     13  N   UNL     1      -0.049  12.670  20.364  0.00  0.00    +0.000 NA
ATOM     14  C   UNL     1       0.495  12.232  19.038  0.00  0.00    +0.000 C 
ATOM     15  C   UNL     1      -0.107  10.834  18.774  0.00  0.00    +0.000 C 
ATOM     16  C   UNL     1       0.839   9.755  18.461  0.00  0.00    +0.000 C 
ATOM     17  O   UNL     1       1.343   9.594  17.360  0.00  0.00    +0.000 OA
ATOM     18  N   UNL     1       1.099   9.079  19.614  0.00  0.00    +0.000 N 
ATOM     19  C   UNL     1       0.432   9.650  20.684  0.00  0.00    +0.000 C 
ATOM     20  O   UNL     1       0.701   9.563  21.870  0.00  0.00    +0.000 OA
ATOM     21  C   UNL     1      -0.758  10.434  20.110  0.00  0.00    +0.000 C 
ATOM     22  H   UNL     1      -2.234  14.110  19.941  0.00  0.00    +0.000 HD
ATOM     23  H   UNL     1       0.626  12.483  21.110  0.00  0.00    +0.000 HD
ENDROOT
BRANCH  18  24
ATOM     24  C   UNL     1       2.172   8.078  19.552  0.00  0.00    +0.000 C 
ATOM     25  C   UNL     1       2.092   7.032  20.675  0.00  0.00    +0.000 C 
ATOM     26  C   UNL     1       1.288   5.784  20.360  0.00  0.00    +0.000 C 
ATOM     27  C   UNL     1       2.096   4.734  19.604  0.00  0.00    +0.000 C 
ATOM     28  C   UNL     1       2.500   5.103  18.179  0.00  0.00    +0.000 C 
ATOM     29  C   UNL     1       3.328   6.376  18.042  0.00  0.00    +0.000 C 
ATOM     30  C   UNL     1       2.456   7.620  18.128  0.00  0.00    +0.000 C 
ENDBRANCH  18  24
BRANCH  14  31
ATOM     31  C   UNL     1       2.031  12.307  18.916  0.00  0.00    +0.000 C 
BRANCH  31  32
ATOM     32  C   UNL     1       2.531  13.671  18.567  0.00  0.00    +0.000 A 
ATOM     33  C   UNL     1       3.867  13.861  18.205  0.00  0.00    +0.000 A 
ATOM     34  C   UNL     1       4.343  15.134  17.886  0.00  0.00    +0.000 A 
ATOM     35  C   UNL     1       3.480  16.233  17.922  0.00  0.00    +0.000 A 
ATOM     36  C   UNL     1       2.147  16.054  18.295  0.00  0.00    +0.000 A 
ATOM     37  C   UNL     1       1.671  14.782  18.618  0.00  0.00    +0.000 A 
ENDBRANCH  31  32
ENDBRANCH  14  31
TORSDOF 3
ENDMDL
MODEL 2
REMARK VINA RESULT:      -8.9      2.670      8.085
REMARK  Name = 
REMARK  5 active torsions:
REMARK  status: ('A' for Active; 'I' for Inactive)
REMARK    1  A    between atoms: C_1  and  C_2
REMARK    2  A    between atoms: C_7  and  C_8
REMARK    3  A    between atoms: C_14  and  C_15
REMARK    4  A    between atoms: C_15  and  C_16
REMARK    5  A    between atoms: N_25  and  C_26
REMARK                            x       y       z     vdW  Elec       q    Type
REMARK                         _______ _______ _______ _____ _____    ______ ____
ROOT
ATOM      1  C   UNL     1       2.780   6.656  19.731  0.00  0.00    +0.000 C 
ATOM      2  C   UNL     1       1.817   7.780  19.988  0.00  0.00    +0.000 A 
ATOM      3  C   UNL     1       1.269   8.065  21.264  0.00  0.00    +0.000 A 
ATOM      4  C   UNL     1       0.465   9.223  21.501  0.00  0.00    +0.000 A 
ATOM      5  C   UNL     1       0.079   9.990  20.416  0.00  0.00    +0.000 A 
ATOM      6  C   UNL     1       0.420   9.477  19.151  0.00  0.00    +0.000 A 
ATOM      7  C   UNL     1       1.477   8.619  18.937  0.00  0.00    +0.000 A 
ATOM      8  C   UNL     1       2.297   8.780  17.685  0.00  0.00    +0.000 C 
ATOM      9  N   UNL     1      -0.127  10.222  18.103  0.00  0.00    +0.000 N 
ATOM     10  C   UNL     1      -0.056  11.487  18.623  0.00  0.00    +0.000 C 
ATOM     11  O   UNL     1       0.451  12.422  18.022  0.00  0.00    +0.000 OA
ATOM     12  C   UNL     1      -0.526  11.378  20.188  0.00  0.00    +0.000 C 
ATOM     13  N   UNL     1      -2.010  11.415  20.150  0.00  0.00    +0.000 NA
ATOM     14  C   UNL     1      -2.333  12.796  19.665  0.00  0.00    +0.000 C 
ATOM     15  C   UNL     1      -1.063  13.640  19.913  0.00  0.00    +0.000 C 
ATOM     16  C   UNL     1      -1.234  14.884  20.676  0.00  0.00    +0.000 C 
ATOM     17  O   UNL     1      -1.663  15.921  20.194  0.00  0.00    +0.000 OA
ATOM     18  N   UNL     1      -0.931  14.620  21.977  0.00  0.00    +0.000 N 
ATOM     19  C   UNL     1      -0.612  13.285  22.151  0.00  0.00    +0.000 C 
ATOM     20  O   UNL     1      -0.654  12.630  23.179  0.00  0.00    +0.000 OA
ATOM     21  C   UNL     1      -0.166  12.744  20.784  0.00  0.00    +0.000 C 
ATOM     22  H   UNL     1      -1.125   9.992  18.096  0.00  0.00    +0.000 HD
ATOM     23  H   UNL     1      -2.368  11.272  21.098  0.00  0.00    +0.000 HD
ENDROOT
BRANCH  18  24
ATOM     24  C   UNL     1      -1.223  15.689  22.941  0.00  0.00    +0.000 C 
ATOM     25  C   UNL     1      -2.629  15.586  23.553  0.00  0.00    +0.000 C 
ATOM     26  C   UNL     1      -2.735  14.781  24.835  0.00  0.00    +0.000 C 
ATOM     27  C   UNL     1      -2.385  15.596  26.077  0.00  0.00    +0.000 C 
ATOM     28  C   UNL     1      -0.926  16.024  26.204  0.00  0.00    +0.000 C 
ATOM     29  C   UNL     1      -0.386  16.861  25.049  0.00  0.00    +0.000 C 
ATOM     30  C   UNL     1      -0.038  15.994  23.847  0.00  0.00    +0.000 C 
ENDBRANCH  18  24
BRANCH  14  31
ATOM     31  C   UNL     1      -3.630  13.396  20.248  0.00  0.00    +0.000 C 
BRANCH  31  32
ATOM     32  C   UNL     1      -4.845  12.580  19.948  0.00  0.00    +0.000 A 
ATOM     33  C   UNL     1      -5.780  12.312  20.952  0.00  0.00    +0.000 A 
ATOM     34  C   UNL     1      -6.914  11.544  20.681  0.00  0.00    +0.000 A 
ATOM     35  C   UNL     1      -7.126  11.039  19.395  0.00  0.00    +0.000 A 
ATOM     36  C   UNL     1      -6.192  11.292  18.389  0.00  0.00    +0.000 A 
ATOM     37  C   UNL     1      -5.055  12.057  18.660  0.00  0.00    +0.000 A 
ENDBRANCH  31  32
ENDBRANCH  14  31
TORSDOF 3
ENDMDL
MODEL 3
REMARK VINA RESULT:      -8.8      6.243      9.275
REMARK  Name = 
REMARK  5 active torsions:
REMARK  status: ('A' for Active; 'I' for Inactive)
REMARK    1  A    between atoms: C_1  and  C_2
REMARK    2  A    between atoms: C_7  and  C_8
REMARK    3  A    between atoms: C_14  and  C_15
REMARK    4  A    between atoms: C_15  and  C_16
REMARK    5  A    between atoms: N_25  and  C_26
REMARK                            x       y       z     vdW  Elec       q    Type
REMARK                         _______ _______ _______ _____ _____    ______ ____
ROOT
ATOM      1  C   UNL     1       0.211  15.475  18.872  0.00  0.00    +0.000 C 
ATOM      2  C   UNL     1       1.640  15.377  19.323  0.00  0.00    +0.000 A 
ATOM      3  C   UNL     1       2.410  14.190  19.230  0.00  0.00    +0.000 A 
ATOM      4  C   UNL     1       3.805  14.167  19.540  0.00  0.00    +0.000 A 
ATOM      5  C   UNL     1       4.373  15.296  20.104  0.00  0.00    +0.000 A 
ATOM      6  C   UNL     1       3.479  16.332  20.435  0.00  0.00    +0.000 A 
ATOM      7  C   UNL     1       2.263  16.515  19.814  0.00  0.00    +0.000 A 
ATOM      8  C   UNL     1       1.795  17.920  19.540  0.00  0.00    +0.000 C 
ATOM      9  N   UNL     1       4.096  17.374  21.132  0.00  0.00    +0.000 N 
ATOM     10  C   UNL     1       5.328  17.389  20.532  0.00  0.00    +0.000 C 
ATOM     11  O   UNL     1       5.828  18.405  20.075  0.00  0.00    +0.000 OA
ATOM     12  C   UNL     1       5.787  15.826  20.360  0.00  0.00    +0.000 C 
ATOM     13  N   UNL     1       6.368  15.448  21.673  0.00  0.00    +0.000 NA
ATOM     14  C   UNL     1       7.607  16.284  21.785  0.00  0.00    +0.000 C 
ATOM     15  C   UNL     1       7.945  16.733  20.346  0.00  0.00    +0.000 C 
ATOM     16  C   UNL     1       9.307  16.456  19.869  0.00  0.00    +0.000 C 
ATOM     17  O   UNL     1      10.278  17.135  20.163  0.00  0.00    +0.000 OA
ATOM     18  N   UNL     1       9.273  15.293  19.161  0.00  0.00    +0.000 N 
ATOM     19  C   UNL     1       8.001  14.749  19.164  0.00  0.00    +0.000 C 
ATOM     20  O   UNL     1       7.680  13.588  18.970  0.00  0.00    +0.000 OA
ATOM     21  C   UNL     1       7.018  15.894  19.449  0.00  0.00    +0.000 C 
ATOM     22  H   UNL     1       4.264  17.010  22.075  0.00  0.00    +0.000 HD
ATOM     23  H   UNL     1       6.604  14.452  21.655  0.00  0.00    +0.000 HD
ENDROOT
BRANCH  18  24
ATOM     24  C   UNL     1      10.573  14.741  18.759  0.00  0.00    +0.000 C 
ATOM     25  C   UNL     1      11.259  13.934  19.872  0.00  0.00    +0.000 C 
ATOM     26  C   UNL     1      10.948  12.448  19.901  0.00  0.00    +0.000 C 
ATOM     27  C   UNL     1      11.821  11.642  18.943  0.00  0.00    +0.000 C 
ATOM     28  C   UNL     1      11.585  11.890  17.457  0.00  0.00    +0.000 C 
ATOM     29  C   UNL     1      11.766  13.332  16.996  0.00  0.00    +0.000 C 
ATOM     30  C   UNL     1      10.553  14.184  17.342  0.00  0.00    +0.000 C 
ENDBRANCH  18  24
BRANCH  14  31
ATOM     31  C   UNL     1       8.772  15.610  22.541  0.00  0.00    +0.000 C 
BRANCH  31  32
ATOM     32  C   UNL     1       8.409  14.285  23.126  0.00  0.00    +0.000 A 
ATOM     33  C   UNL     1       8.512  13.123  22.357  0.00  0.00    +0.000 A 
ATOM     34  C   UNL     1       8.168  11.881  22.894  0.00  0.00    +0.000 A 
ATOM     35  C   UNL     1       7.719  11.791  24.215  0.00  0.00    +0.000 A 
ATOM     36  C   UNL     1       7.601  12.948  24.987  0.00  0.00    +0.000 A 
ATOM     37  C   UNL     1       7.942  14.190  24.449  0.00  0.00    +0.000 A 
ENDBRANCH  31  32
ENDBRANCH  14  31
TORSDOF 3
ENDMDL
MODEL 4
REMARK VINA RESULT:      -8.8      1.756      7.252
REMARK  Name = 
REMARK  5 active torsions:
REMARK  status: ('A' for Active; 'I' for Inactive)
REMARK    1  A    between atoms: C_1  and  C_2
REMARK    2  A    between atoms: C_7  and  C_8
REMARK    3  A    between atoms: C_14  and  C_15
REMARK    4  A    between atoms: C_15  and  C_16
REMARK    5  A    between atoms: N_25  and  C_26
REMARK                            x       y       z     vdW  Elec       q    Type
REMARK                         _______ _______ _______ _____ _____    ______ ____
ROOT
ATOM      1  C   UNL     1       3.097   5.778  17.853  0.00  0.00    +0.000 C 
ATOM      2  C   UNL     1       2.487   7.040  18.393  0.00  0.00    +0.000 A 
ATOM      3  C   UNL     1       2.199   8.175  17.593  0.00  0.00    +0.000 A 
ATOM      4  C   UNL     1       1.494   9.305  18.110  0.00  0.00    +0.000 A 
ATOM      5  C   UNL     1       1.235   9.355  19.469  0.00  0.00    +0.000 A 
ATOM      6  C   UNL     1       1.809   8.328  20.240  0.00  0.00    +0.000 A 
ATOM      7  C   UNL     1       2.137   7.088  19.735  0.00  0.00    +0.000 A 
ATOM      8  C   UNL     1       1.911   5.874  20.594  0.00  0.00    +0.000 C 
ATOM      9  N   UNL     1       1.632   8.522  21.613  0.00  0.00    +0.000 N 
ATOM     10  C   UNL     1       0.385   9.089  21.633  0.00  0.00    +0.000 C 
ATOM     11  O   UNL     1      -0.520   8.673  22.340  0.00  0.00    +0.000 OA
ATOM     12  C   UNL     1       0.343  10.174  20.407  0.00  0.00    +0.000 C 
ATOM     13  N   UNL     1       0.973  11.402  20.955  0.00  0.00    +0.000 NA
ATOM     14  C   UNL     1       0.020  11.865  22.015  0.00  0.00    +0.000 C 
ATOM     15  C   UNL     1      -1.328  11.180  21.701  0.00  0.00    +0.000 C 
ATOM     16  C   UNL     1      -2.504  12.055  21.586  0.00  0.00    +0.000 C 
ATOM     17  O   UNL     1      -3.111  12.502  22.546  0.00  0.00    +0.000 OA
ATOM     18  N   UNL     1      -2.694  12.327  20.265  0.00  0.00    +0.000 N 
ATOM     19  C   UNL     1      -1.710  11.737  19.491  0.00  0.00    +0.000 C 
ATOM     20  O   UNL     1      -1.348  12.050  18.370  0.00  0.00    +0.000 OA
ATOM     21  C   UNL     1      -1.136  10.566  20.303  0.00  0.00    +0.000 C 
ATOM     22  H   UNL     1       2.273   9.279  21.867  0.00  0.00    +0.000 HD
ATOM     23  H   UNL     1       1.047  12.097  20.207  0.00  0.00    +0.000 HD
ENDROOT
BRANCH  18  24
ATOM     24  C   UNL     1      -3.707  13.342  19.952  0.00  0.00    +0.000 C 
ATOM     25  C   UNL     1      -5.085  12.745  19.625  0.00  0.00    +0.000 C 
ATOM     26  C   UNL     1      -6.026  12.569  20.803  0.00  0.00    +0.000 C 
ATOM     27  C   UNL     1      -6.793  13.843  21.144  0.00  0.00    +0.000 C 
ATOM     28  C   UNL     1      -5.959  14.995  21.696  0.00  0.00    +0.000 C 
ATOM     29  C   UNL     1      -4.828  15.476  20.794  0.00  0.00    +0.000 C 
ATOM     30  C   UNL     1      -3.621  14.551  20.874  0.00  0.00    +0.000 C 
ENDBRANCH  18  24
BRANCH  14  31
ATOM     31  C   UNL     1      -0.058  13.397  22.185  0.00  0.00    +0.000 C 
BRANCH  31  32
ATOM     32  C   UNL     1       0.725  14.147  21.158  0.00  0.00    +0.000 A 
ATOM     33  C   UNL     1       2.107  14.297  21.296  0.00  0.00    +0.000 A 
ATOM     34  C   UNL     1       2.845  15.003  20.345  0.00  0.00    +0.000 A 
ATOM     35  C   UNL     1       2.203  15.564  19.237  0.00  0.00    +0.000 A 
ATOM     36  C   UNL     1       0.820  15.429  19.096  0.00  0.00    +0.000 A 
ATOM     37  C   UNL     1       0.081  14.726  20.050  0.00  0.00    +0.000 A 
ENDBRANCH  31  32
ENDBRANCH  14  31
TORSDOF 3
ENDMDL
MODEL 5
REMARK VINA RESULT:      -8.8      3.005      8.188
REMARK  Name = 
REMARK  5 active torsions:
REMARK  status: ('A' for Active; 'I' for Inactive)
REMARK    1  A    between atoms: C_1  and  C_2
REMARK    2  A    between atoms: C_7  and  C_8
REMARK    3  A    between atoms: C_14  and  C_15
REMARK    4  A    between atoms: C_15  and  C_16
REMARK    5  A    between atoms: N_25  and  C_26
REMARK                            x       y       z     vdW  Elec       q    Type
REMARK                         _______ _______ _______ _____ _____    ______ ____
ROOT
ATOM      1  C   UNL     1       2.450   6.993  19.900  0.00  0.00    +0.000 C 
ATOM      2  C   UNL     1       1.548   8.152  20.215  0.00  0.00    +0.000 A 
ATOM      3  C   UNL     1       1.166   8.510  21.533  0.00  0.00    +0.000 A 
ATOM      4  C   UNL     1       0.421   9.698  21.808  0.00  0.00    +0.000 A 
ATOM      5  C   UNL     1      -0.079  10.424  20.742  0.00  0.00    +0.000 A 
ATOM      6  C   UNL     1       0.095   9.845  19.471  0.00  0.00    +0.000 A 
ATOM      7  C   UNL     1       1.100   8.950  19.173  0.00  0.00    +0.000 A 
ATOM      8  C   UNL     1       1.764   9.032  17.825  0.00  0.00    +0.000 C 
ATOM      9  N   UNL     1      -0.561  10.554  18.461  0.00  0.00    +0.000 N 
ATOM     10  C   UNL     1      -0.402  11.840  18.907  0.00  0.00    +0.000 C 
ATOM     11  O   UNL     1       0.047  12.733  18.204  0.00  0.00    +0.000 OA
ATOM     12  C   UNL     1      -0.679  11.816  20.521  0.00  0.00    +0.000 C 
ATOM     13  N   UNL     1      -2.155  11.889  20.660  0.00  0.00    +0.000 NA
ATOM     14  C   UNL     1      -2.508  13.254  20.151  0.00  0.00    +0.000 C 
ATOM     15  C   UNL     1      -1.200  14.075  20.202  0.00  0.00    +0.000 C 
ATOM     16  C   UNL     1      -1.251  15.357  20.919  0.00  0.00    +0.000 C 
ATOM     17  O   UNL     1      -1.715  16.382  20.442  0.00  0.00    +0.000 OA
ATOM     18  N   UNL     1      -0.797  15.146  22.185  0.00  0.00    +0.000 N 
ATOM     19  C   UNL     1      -0.487  13.812  22.384  0.00  0.00    +0.000 C 
ATOM     20  O   UNL     1      -0.417  13.207  23.440  0.00  0.00    +0.000 OA
ATOM     21  C   UNL     1      -0.222  13.198  21.001  0.00  0.00    +0.000 C 
ATOM     22  H   UNL     1      -1.557  10.350  18.587  0.00  0.00    +0.000 HD
ATOM     23  H   UNL     1      -2.399  11.800  21.650  0.00  0.00    +0.000 HD
ENDROOT
BRANCH  18  24
ATOM     24  C   UNL     1      -0.948  16.266  23.123  0.00  0.00    +0.000 C 
ATOM     25  C   UNL     1      -2.146  16.105  24.072  0.00  0.00    +0.000 C 
ATOM     26  C   UNL     1      -1.860  15.403  25.387  0.00  0.00    +0.000 C 
ATOM     27  C   UNL     1      -1.299  16.344  26.450  0.00  0.00    +0.000 C 
ATOM     28  C   UNL     1       0.099  16.894  26.182  0.00  0.00    +0.000 C 
ATOM     29  C   UNL     1       0.259  17.671  24.880  0.00  0.00    +0.000 C 
ATOM     30  C   UNL     1       0.386  16.736  23.685  0.00  0.00    +0.000 C 
ENDBRANCH  18  24
BRANCH  14  31
ATOM     31  C   UNL     1      -3.712  13.914  20.857  0.00  0.00    +0.000 C 
BRANCH  31  32
ATOM     32  C   UNL     1      -4.975  13.128  20.727  0.00  0.00    +0.000 A 
ATOM     33  C   UNL     1      -5.317  12.537  19.508  0.00  0.00    +0.000 A 
ATOM     34  C   UNL     1      -6.500  11.808  19.377  0.00  0.00    +0.000 A 
ATOM     35  C   UNL     1      -7.354  11.659  20.473  0.00  0.00    +0.000 A 
ATOM     36  C   UNL     1      -7.028  12.256  21.692  0.00  0.00    +0.000 A 
ATOM     37  C   UNL     1      -5.847  12.988  21.823  0.00  0.00    +0.000 A 
ENDBRANCH  31  32
ENDBRANCH  14  31
TORSDOF 3
ENDMDL
MODEL 6
REMARK VINA RESULT:      -8.6      1.989      5.899
REMARK  Name = 
REMARK  5 active torsions:
REMARK  status: ('A' for Active; 'I' for Inactive)
REMARK    1  A    between atoms: C_1  and  C_2
REMARK    2  A    between atoms: C_7  and  C_8
REMARK    3  A    between atoms: C_14  and  C_15
REMARK    4  A    between atoms: C_15  and  C_16
REMARK    5  A    between atoms: N_25  and  C_26
REMARK                            x       y       z     vdW  Elec       q    Type
REMARK                         _______ _______ _______ _____ _____    ______ ____
ROOT
ATOM      1  C   UNL     1      -6.933  14.297  23.814  0.00  0.00    +0.000 C 
ATOM      2  C   UNL     1      -5.714  14.036  22.976  0.00  0.00    +0.000 A 
ATOM      3  C   UNL     1      -5.469  14.670  21.732  0.00  0.00    +0.000 A 
ATOM      4  C   UNL     1      -4.237  14.503  21.027  0.00  0.00    +0.000 A 
ATOM      5  C   UNL     1      -3.332  13.566  21.495  0.00  0.00    +0.000 A 
ATOM      6  C   UNL     1      -3.774  12.771  22.568  0.00  0.00    +0.000 A 
ATOM      7  C   UNL     1      -4.747  13.166  23.460  0.00  0.00    +0.000 A 
ATOM      8  C   UNL     1      -4.591  12.798  24.911  0.00  0.00    +0.000 C 
ATOM      9  N   UNL     1      -2.872  11.753  22.891  0.00  0.00    +0.000 N 
ATOM     10  C   UNL     1      -1.679  12.384  22.654  0.00  0.00    +0.000 C 
ATOM     11  O   UNL     1      -0.774  12.416  23.473  0.00  0.00    +0.000 OA
ATOM     12  C   UNL     1      -1.859  13.221  21.258  0.00  0.00    +0.000 C 
ATOM     13  N   UNL     1      -1.615  12.230  20.180  0.00  0.00    +0.000 NA
ATOM     14  C   UNL     1      -0.166  11.877  20.322  0.00  0.00    +0.000 C 
ATOM     15  C   UNL     1       0.470  13.021  21.142  0.00  0.00    +0.000 C 
ATOM     16  C   UNL     1       1.654  13.671  20.563  0.00  0.00    +0.000 C 
ATOM     17  O   UNL     1       2.778  13.197  20.610  0.00  0.00    +0.000 OA
ATOM     18  N   UNL     1       1.238  14.793  19.912  0.00  0.00    +0.000 N 
ATOM     19  C   UNL     1      -0.138  14.919  19.974  0.00  0.00    +0.000 C 
ATOM     20  O   UNL     1      -0.869  15.551  19.229  0.00  0.00    +0.000 OA
ATOM     21  C   UNL     1      -0.613  14.112  21.191  0.00  0.00    +0.000 C 
ATOM     22  H   UNL     1      -2.961  11.061  22.141  0.00  0.00    +0.000 HD
ATOM     23  H   UNL     1      -1.790  12.677  19.275  0.00  0.00    +0.000 HD
ENDROOT
BRANCH  18  24
ATOM     24  C   UNL     1       2.248  15.484  19.100  0.00  0.00    +0.000 C 
ATOM     25  C   UNL     1       2.939  16.637  19.845  0.00  0.00    +0.000 C 
ATOM     26  C   UNL     1       4.201  16.272  20.606  0.00  0.00    +0.000 C 
ATOM     27  C   UNL     1       5.444  16.260  19.720  0.00  0.00    +0.000 C 
ATOM     28  C   UNL     1       5.497  15.161  18.662  0.00  0.00    +0.000 C 
ATOM     29  C   UNL     1       4.337  15.149  17.671  0.00  0.00    +0.000 C 
ATOM     30  C   UNL     1       3.092  14.519  18.279  0.00  0.00    +0.000 C 
ENDBRANCH  18  24
BRANCH  14  31
ATOM     31  C   UNL     1       0.553  11.557  18.994  0.00  0.00    +0.000 C 
BRANCH  31  32
ATOM     32  C   UNL     1       1.153  10.189  18.961  0.00  0.00    +0.000 A 
ATOM     33  C   UNL     1       1.099   9.368  20.091  0.00  0.00    +0.000 A 
ATOM     34  C   UNL     1       1.663   8.092  20.070  0.00  0.00    +0.000 A 
ATOM     35  C   UNL     1       2.287   7.622  18.911  0.00  0.00    +0.000 A 
ATOM     36  C   UNL     1       2.356   8.439  17.782  0.00  0.00    +0.000 A 
ATOM     37  C   UNL     1       1.795   9.718  17.803  0.00  0.00    +0.000 A 
ENDBRANCH  31  32
ENDBRANCH  14  31
TORSDOF 3
ENDMDL
MODEL 7
REMARK VINA RESULT:      -8.6      2.523      7.709
REMARK  Name = 
REMARK  5 active torsions:
REMARK  status: ('A' for Active; 'I' for Inactive)
REMARK    1  A    between atoms: C_1  and  C_2
REMARK    2  A    between atoms: C_7  and  C_8
REMARK    3  A    between atoms: C_14  and  C_15
REMARK    4  A    between atoms: C_15  and  C_16
REMARK    5  A    between atoms: N_25  and  C_26
REMARK                            x       y       z     vdW  Elec       q    Type
REMARK                         _______ _______ _______ _____ _____    ______ ____
ROOT
ATOM      1  C   UNL     1       2.126   7.879  17.856  0.00  0.00    +0.000 C 
ATOM      2  C   UNL     1       1.409   8.954  18.622  0.00  0.00    +0.000 A 
ATOM      3  C   UNL     1       0.687  10.006  18.004  0.00  0.00    +0.000 A 
ATOM      4  C   UNL     1      -0.097  10.932  18.760  0.00  0.00    +0.000 A 
ATOM      5  C   UNL     1      -0.010  10.895  20.141  0.00  0.00    +0.000 A 
ATOM      6  C   UNL     1       0.951  10.014  20.671  0.00  0.00    +0.000 A 
ATOM      7  C   UNL     1       1.406   8.895  20.008  0.00  0.00    +0.000 A 
ATOM      8  C   UNL     1       1.677   7.644  20.801  0.00  0.00    +0.000 C 
ATOM      9  N   UNL     1       1.087  10.135  22.056  0.00  0.00    +0.000 N 
ATOM     10  C   UNL     1      -0.208  10.397  22.419  0.00  0.00    +0.000 C 
ATOM     11  O   UNL     1      -0.791   9.768  23.288  0.00  0.00    +0.000 OA
ATOM     12  C   UNL     1      -0.795  11.465  21.325  0.00  0.00    +0.000 C 
ATOM     13  N   UNL     1      -0.334  12.795  21.798  0.00  0.00    +0.000 NA
ATOM     14  C   UNL     1      -1.067  13.005  23.088  0.00  0.00    +0.000 C 
ATOM     15  C   UNL     1      -2.266  12.031  23.057  0.00  0.00    +0.000 C 
ATOM     16  C   UNL     1      -3.595  12.611  23.295  0.00  0.00    +0.000 C 
ATOM     17  O   UNL     1      -4.025  12.887  24.404  0.00  0.00    +0.000 OA
ATOM     18  N   UNL     1      -4.167  12.857  22.083  0.00  0.00    +0.000 N 
ATOM     19  C   UNL     1      -3.304  12.526  21.053  0.00  0.00    +0.000 C 
ATOM     20  O   UNL     1      -3.314  12.937  19.905  0.00  0.00    +0.000 OA
ATOM     21  C   UNL     1      -2.301  11.506  21.611  0.00  0.00    +0.000 C 
ATOM     22  H   UNL     1       1.589  11.016  22.205  0.00  0.00    +0.000 HD
ATOM     23  H   UNL     1      -0.605  13.503  21.110  0.00  0.00    +0.000 HD
ENDROOT
BRANCH  18  24
ATOM     24  C   UNL     1      -5.424  13.615  22.101  0.00  0.00    +0.000 C 
ATOM     25  C   UNL     1      -5.225  15.124  21.893  0.00  0.00    +0.000 C 
ATOM     26  C   UNL     1      -5.277  15.607  20.455  0.00  0.00    +0.000 C 
ATOM     27  C   UNL     1      -6.702  15.849  19.963  0.00  0.00    +0.000 C 
ATOM     28  C   UNL     1      -7.575  14.606  19.813  0.00  0.00    +0.000 C 
ATOM     29  C   UNL     1      -7.758  13.777  21.079  0.00  0.00    +0.000 C 
ATOM     30  C   UNL     1      -6.542  12.903  21.353  0.00  0.00    +0.000 C 
ENDBRANCH  18  24
BRANCH  14  31
ATOM     31  C   UNL     1      -1.435  14.473  23.389  0.00  0.00    +0.000 C 
BRANCH  31  32
ATOM     32  C   UNL     1      -0.889  15.436  22.387  0.00  0.00    +0.000 A 
ATOM     33  C   UNL     1      -1.651  15.806  21.275  0.00  0.00    +0.000 A 
ATOM     34  C   UNL     1      -1.145  16.700  20.331  0.00  0.00    +0.000 A 
ATOM     35  C   UNL     1       0.135  17.238  20.493  0.00  0.00    +0.000 A 
ATOM     36  C   UNL     1       0.908  16.866  21.594  0.00  0.00    +0.000 A 
ATOM     37  C   UNL     1       0.404  15.969  22.537  0.00  0.00    +0.000 A 
ENDBRANCH  31  32
ENDBRANCH  14  31
TORSDOF 3
ENDMDL
MODEL 8
REMARK VINA RESULT:      -8.5      2.740      8.311
REMARK  Name = 
REMARK  5 active torsions:
REMARK  status: ('A' for Active; 'I' for Inactive)
REMARK    1  A    between atoms: C_1  and  C_2
REMARK    2  A    between atoms: C_7  and  C_8
REMARK    3  A    between atoms: C_14  and  C_15
REMARK    4  A    between atoms: C_15  and  C_16
REMARK    5  A    between atoms: N_25  and  C_26
REMARK                            x       y       z     vdW  Elec       q    Type
REMARK                         _______ _______ _______ _____ _____    ______ ____
ROOT
ATOM      1  C   UNL     1       2.970   6.701  19.256  0.00  0.00    +0.000 C 
ATOM      2  C   UNL     1       1.926   7.715  19.628  0.00  0.00    +0.000 A 
ATOM      3  C   UNL     1       1.165   7.653  20.822  0.00  0.00    +0.000 A 
ATOM      4  C   UNL     1       0.279   8.705  21.211  0.00  0.00    +0.000 A 
ATOM      5  C   UNL     1       0.039   9.730  20.312  0.00  0.00    +0.000 A 
ATOM      6  C   UNL     1       0.606   9.569  19.034  0.00  0.00    +0.000 A 
ATOM      7  C   UNL     1       1.723   8.800  18.788  0.00  0.00    +0.000 A 
ATOM      8  C   UNL     1       2.727   9.287  17.778  0.00  0.00    +0.000 C 
ATOM      9  N   UNL     1       0.203  10.561  18.137  0.00  0.00    +0.000 N 
ATOM     10  C   UNL     1       0.128  11.646  18.971  0.00  0.00    +0.000 C 
ATOM     11  O   UNL     1       0.681  12.707  18.728  0.00  0.00    +0.000 OA
ATOM     12  C   UNL     1      -0.585  11.128  20.352  0.00  0.00    +0.000 C 
ATOM     13  N   UNL     1      -2.043  11.169  20.073  0.00  0.00    +0.000 NA
ATOM     14  C   UNL     1      -2.348  12.628  19.915  0.00  0.00    +0.000 C 
ATOM     15  C   UNL     1      -1.177  13.381  20.584  0.00  0.00    +0.000 C 
ATOM     16  C   UNL     1      -1.528  14.380  21.603  0.00  0.00    +0.000 C 
ATOM     17  O   UNL     1      -1.921  15.505  21.340  0.00  0.00    +0.000 OA
ATOM     18  N   UNL     1      -1.429  13.784  22.823  0.00  0.00    +0.000 N 
ATOM     19  C   UNL     1      -1.080  12.451  22.697  0.00  0.00    +0.000 C 
ATOM     20  O   UNL     1      -1.258  11.549  23.498  0.00  0.00    +0.000 OA
ATOM     21  C   UNL     1      -0.392  12.290  21.333  0.00  0.00    +0.000 C 
ATOM     22  H   UNL     1      -0.769  10.339  17.902  0.00  0.00    +0.000 HD
ATOM     23  H   UNL     1      -2.544  10.781  20.876  0.00  0.00    +0.000 HD
ENDROOT
BRANCH  18  24
ATOM     24  C   UNL     1      -1.925  14.561  23.966  0.00  0.00    +0.000 C 
ATOM     25  C   UNL     1      -0.860  15.481  24.582  0.00  0.00    +0.000 C 
ATOM     26  C   UNL     1      -0.789  16.886  24.012  0.00  0.00    +0.000 C 
ATOM     27  C   UNL     1      -1.803  17.835  24.647  0.00  0.00    +0.000 C 
ATOM     28  C   UNL     1      -3.269  17.544  24.342  0.00  0.00    +0.000 C 
ATOM     29  C   UNL     1      -3.760  16.157  24.743  0.00  0.00    +0.000 C 
ATOM     30  C   UNL     1      -3.330  15.101  23.735  0.00  0.00    +0.000 C 
ENDBRANCH  18  24
BRANCH  14  31
ATOM     31  C   UNL     1      -3.750  13.050  20.404  0.00  0.00    +0.000 C 
BRANCH  31  32
ATOM     32  C   UNL     1      -4.856  12.273  19.768  0.00  0.00    +0.000 A 
ATOM     33  C   UNL     1      -5.982  11.910  20.513  0.00  0.00    +0.000 A 
ATOM     34  C   UNL     1      -7.016  11.178  19.928  0.00  0.00    +0.000 A 
ATOM     35  C   UNL     1      -6.934  10.803  18.584  0.00  0.00    +0.000 A 
ATOM     36  C   UNL     1      -5.809  11.151  17.835  0.00  0.00    +0.000 A 
ATOM     37  C   UNL     1      -4.772  11.880  18.420  0.00  0.00    +0.000 A 
ENDBRANCH  31  32
ENDBRANCH  14  31
TORSDOF 3
ENDMDL
MODEL 9
REMARK VINA RESULT:      -8.4      3.251      8.467
REMARK  Name = 
REMARK  5 active torsions:
REMARK  status: ('A' for Active; 'I' for Inactive)
REMARK    1  A    between atoms: C_1  and  C_2
REMARK    2  A    between atoms: C_7  and  C_8
REMARK    3  A    between atoms: C_14  and  C_15
REMARK    4  A    between atoms: C_15  and  C_16
REMARK    5  A    between atoms: N_25  and  C_26
REMARK                            x       y       z     vdW  Elec       q    Type
REMARK                         _______ _______ _______ _____ _____    ______ ____
ROOT
ATOM      1  C   UNL     1       2.039   7.378  20.384  0.00  0.00    +0.000 C 
ATOM      2  C   UNL     1       1.150   8.547  20.696  0.00  0.00    +0.000 A 
ATOM      3  C   UNL     1       0.871   8.987  22.015  0.00  0.00    +0.000 A 
ATOM      4  C   UNL     1       0.133  10.184  22.273  0.00  0.00    +0.000 A 
ATOM      5  C   UNL     1      -0.461  10.835  21.206  0.00  0.00    +0.000 A 
ATOM      6  C   UNL     1      -0.382  10.175  19.965  0.00  0.00    +0.000 A 
ATOM      7  C   UNL     1       0.608   9.272  19.645  0.00  0.00    +0.000 A 
ATOM      8  C   UNL     1       1.160   9.271  18.244  0.00  0.00    +0.000 C 
ATOM      9  N   UNL     1      -1.127  10.811  18.969  0.00  0.00    +0.000 N 
ATOM     10  C   UNL     1      -0.950  12.125  19.316  0.00  0.00    +0.000 C 
ATOM     11  O   UNL     1      -0.572  12.973  18.523  0.00  0.00    +0.000 OA
ATOM     12  C   UNL     1      -1.096  12.204  20.945  0.00  0.00    +0.000 C 
ATOM     13  N   UNL     1      -2.557  12.274  21.199  0.00  0.00    +0.000 NA
ATOM     14  C   UNL     1      -2.968  13.599  20.633  0.00  0.00    +0.000 C 
ATOM     15  C   UNL     1      -1.673  14.433  20.524  0.00  0.00    +0.000 C 
ATOM     16  C   UNL     1      -1.684  15.758  21.158  0.00  0.00    +0.000 C 
ATOM     17  O   UNL     1      -2.199  16.745  20.656  0.00  0.00    +0.000 OA
ATOM     18  N   UNL     1      -1.126  15.635  22.395  0.00  0.00    +0.000 N 
ATOM     19  C   UNL     1      -0.782  14.320  22.653  0.00  0.00    +0.000 C 
ATOM     20  O   UNL     1      -0.619  13.785  23.737  0.00  0.00    +0.000 OA
ATOM     21  C   UNL     1      -0.621  13.618  21.296  0.00  0.00    +0.000 C 
ATOM     22  H   UNL     1      -2.107  10.607  19.187  0.00  0.00    +0.000 HD
ATOM     23  H   UNL     1      -2.719  12.247  22.209  0.00  0.00    +0.000 HD
ENDROOT
BRANCH  18  24
ATOM     24  C   UNL     1      -1.217  16.812  23.268  0.00  0.00    +0.000 C 
ATOM     25  C   UNL     1      -2.293  16.679  24.356  0.00  0.00    +0.000 C 
ATOM     26  C   UNL     1      -1.833  16.081  25.673  0.00  0.00    +0.000 C 
ATOM     27  C   UNL     1      -1.195  17.113  26.600  0.00  0.00    +0.000 C 
ATOM     28  C   UNL     1       0.140  17.689  26.138  0.00  0.00    +0.000 C 
ATOM     29  C   UNL     1       0.121  18.377  24.777  0.00  0.00    +0.000 C 
ATOM     30  C   UNL     1       0.152  17.365  23.640  0.00  0.00    +0.000 C 
ENDBRANCH  18  24
BRANCH  14  31
ATOM     31  C   UNL     1      -4.121  14.293  21.390  0.00  0.00    +0.000 C 
BRANCH  31  32
ATOM     32  C   UNL     1      -5.370  13.476  21.442  0.00  0.00    +0.000 A 
ATOM     33  C   UNL     1      -6.034  13.278  22.656  0.00  0.00    +0.000 A 
ATOM     34  C   UNL     1      -7.198  12.509  22.713  0.00  0.00    +0.000 A 
ATOM     35  C   UNL     1      -7.713  11.933  21.549  0.00  0.00    +0.000 A 
ATOM     36  C   UNL     1      -7.051  12.115  20.334  0.00  0.00    +0.000 A 
ATOM     37  C   UNL     1      -5.885  12.881  20.276  0.00  0.00    +0.000 A 
ENDBRANCH  31  32
ENDBRANCH  14  31
TORSDOF 3
ENDMDL
