MODEL 1
REMARK VINA RESULT:      -8.1      0.000      0.000
REMARK  Name = 
REMARK  12 active torsions:
REMARK  status: ('A' for Active; 'I' for Inactive)
REMARK    1  A    between atoms: C_1  and  C_2
REMARK    2  A    between atoms: C_2  and  N_3
REMARK    3  A    between atoms: N_3  and  C_4
REMARK    4  A    between atoms: N_3  and  C_6
REMARK    5  A    between atoms: C_4  and  C_5
REMARK    6  A    between atoms: C_6  and  C_7
REMARK    7  A    between atoms: C_7  and  N_8
REMARK    8  A    between atoms: C_9  and  C_11
REMARK    9  A    between atoms: C_15  and  N_16
REMARK   10  A    between atoms: N_16  and  C_17
REMARK   11  A    between atoms: C_27  and  S_28
REMARK   12  A    between atoms: S_28  and  C_29
REMARK                            x       y       z     vdW  Elec       q    Type
REMARK                         _______ _______ _______ _____ _____    ______ ____
ROOT
ATOM      1  C   UNL     1       0.533   9.211  20.616  0.00  0.00    +0.000 A 
ATOM      2  C   UNL     1       0.333   9.886  19.403  0.00  0.00    +0.000 A 
ATOM      3  C   UNL     1       1.051   9.521  18.264  0.00  0.00    +0.000 A 
ATOM      4  C   UNL     1       1.984   8.486  18.317  0.00  0.00    +0.000 A 
ATOM      5  C   UNL     1       2.203   7.803  19.503  0.00  0.00    +0.000 A 
ATOM      6  C   UNL     1       1.503   8.177  20.667  0.00  0.00    +0.000 A 
ENDROOT
BRANCH   1   8
ATOM      7  N   UNL     1      -0.479  10.805  22.221  0.00  0.00    +0.000 N 
ATOM      8  C   UNL     1      -0.291   9.484  21.841  0.00  0.00    +0.000 C 
ATOM      9  O   UNL     1      -0.803   8.549  22.451  0.00  0.00    +0.000 OA
ATOM     10  H   UNL     1      -0.079  11.573  21.702  0.00  0.00    +0.000 HD
BRANCH   7  11
ATOM     11  C   UNL     1      -1.506  11.180  23.181  0.00  0.00    +0.000 C 
BRANCH  11  12
ATOM     12  C   UNL     1      -2.154  12.553  22.885  0.00  0.00    +0.000 C 
BRANCH  12  13
ATOM     13  N   UNL     1      -3.324  12.546  21.968  0.00  0.00    +0.000 NA
BRANCH  13  15
ATOM     14  C   UNL     1      -4.752  14.613  22.235  0.00  0.00    +0.000 C 
ATOM     15  C   UNL     1      -4.513  13.149  22.601  0.00  0.00    +0.000 C 
ENDBRANCH  13  15
BRANCH  13  16
ATOM     16  C   UNL     1      -2.973  13.170  20.672  0.00  0.00    +0.000 C 
ATOM     17  C   UNL     1      -2.535  12.233  19.547  0.00  0.00    +0.000 C 
ENDBRANCH  13  16
ENDBRANCH  12  13
ENDBRANCH  11  12
ENDBRANCH   7  11
ENDBRANCH   1   8
BRANCH   5  18
ATOM     18  N   UNL     1       3.238   6.825  19.455  0.00  0.00    +0.000 N 
ATOM     19  H   UNL     1       3.290   6.476  20.423  0.00  0.00    +0.000 HD
BRANCH  18  20
ATOM     20  C   UNL     1       3.184   5.651  18.679  0.00  0.00    +0.000 A 
ATOM     21  C   UNL     1       2.481   4.492  19.014  0.00  0.00    +0.000 A 
ATOM     22  C   UNL     1       1.712   4.423  20.180  0.00  0.00    +0.000 A 
ATOM     23  C   UNL     1       0.806   3.392  20.388  0.00  0.00    +0.000 A 
ATOM     24  C   UNL     1       0.634   2.467  19.376  0.00  0.00    +0.000 A 
ATOM     25  C   UNL     1       1.504   2.461  18.265  0.00  0.00    +0.000 A 
ATOM     26  C   UNL     1       2.529   3.409  18.104  0.00  0.00    +0.000 A 
ATOM     27  N   UNL     1       3.507   3.274  17.154  0.00  0.00    +0.000 NA
ATOM     28  C   UNL     1       4.280   4.379  17.032  0.00  0.00    +0.000 A 
ATOM     29  S   UNL     1       5.968   4.465  16.635  0.00  0.00    +0.000 S 
ATOM     30  C   UNL     1       5.950   6.172  16.995  0.00  0.00    +0.000 A 
ATOM     31  N   UNL     1       4.757   6.676  17.158  0.00  0.00    +0.000 NA
ATOM     32  C   UNL     1       3.988   5.621  17.554  0.00  0.00    +0.000 A 
BRANCH  30  33
ATOM     33  S   UNL     1       7.329   7.202  17.348  0.00  0.00    +0.000 S 
ATOM     34  C   UNL     1       8.001   6.424  18.865  0.00  0.00    +0.000 C 
ENDBRANCH  30  33
ENDBRANCH  18  20
ENDBRANCH   5  18
TORSDOF 9
ENDMDL
MODEL 2
REMARK VINA RESULT:      -8.0      0.829      1.099
REMARK  Name = 
REMARK  12 active torsions:
REMARK  status: ('A' for Active; 'I' for Inactive)
REMARK    1  A    between atoms: C_1  and  C_2
REMARK    2  A    between atoms: C_2  and  N_3
REMARK    3  A    between atoms: N_3  and  C_4
REMARK    4  A    between atoms: N_3  and  C_6
REMARK    5  A    between atoms: C_4  and  C_5
REMARK    6  A    between atoms: C_6  and  C_7
REMARK    7  A    between atoms: C_7  and  N_8
REMARK    8  A    between atoms: C_9  and  C_11
REMARK    9  A    between atoms: C_15  and  N_16
REMARK   10  A    between atoms: N_16  and  C_17
REMARK   11  A    between atoms: C_27  and  S_28
REMARK   12  A    between atoms: S_28  and  C_29
REMARK                            x       y       z     vdW  Elec       q    Type
REMARK                         _______ _______ _______ _____ _____    ______ ____
ROOT
ATOM      1  C   UNL     1       0.572   9.279  20.568  0.00  0.00    +0.000 A 
ATOM      2  C   UNL     1       0.361   9.912  19.335  0.00  0.00    +0.000 A 
ATOM      3  C   UNL     1       1.057   9.498  18.198  0.00  0.00    +0.000 A 
ATOM      4  C   UNL     1       1.979   8.456  18.275  0.00  0.00    +0.000 A 
ATOM      5  C   UNL     1       2.209   7.813  19.481  0.00  0.00    +0.000 A 
ATOM      6  C   UNL     1       1.531   8.237  20.641  0.00  0.00    +0.000 A 
ENDROOT
BRANCH   1   8
ATOM      7  N   UNL     1      -0.399  10.942  22.128  0.00  0.00    +0.000 N 
ATOM      8  C   UNL     1      -0.230   9.606  21.794  0.00  0.00    +0.000 C 
ATOM      9  O   UNL     1      -0.740   8.699  22.447  0.00  0.00    +0.000 OA
ATOM     10  H   UNL     1      -0.000  11.685  21.574  0.00  0.00    +0.000 HD
BRANCH   7  11
ATOM     11  C   UNL     1      -1.408  11.362  23.089  0.00  0.00    +0.000 C 
BRANCH  11  12
ATOM     12  C   UNL     1      -2.510  12.255  22.474  0.00  0.00    +0.000 C 
BRANCH  12  13
ATOM     13  N   UNL     1      -2.408  13.713  22.748  0.00  0.00    +0.000 NA
BRANCH  13  15
ATOM     14  C   UNL     1      -1.546  15.132  24.652  0.00  0.00    +0.000 C 
ATOM     15  C   UNL     1      -1.275  14.018  23.642  0.00  0.00    +0.000 C 
ENDBRANCH  13  15
BRANCH  13  16
ATOM     16  C   UNL     1      -2.377  14.480  21.483  0.00  0.00    +0.000 C 
ATOM     17  C   UNL     1      -1.668  13.830  20.295  0.00  0.00    +0.000 C 
ENDBRANCH  13  16
ENDBRANCH  12  13
ENDBRANCH  11  12
ENDBRANCH   7  11
ENDBRANCH   1   8
BRANCH   5  18
ATOM     18  N   UNL     1       3.232   6.822  19.452  0.00  0.00    +0.000 N 
ATOM     19  H   UNL     1       3.266   6.477  20.423  0.00  0.00    +0.000 HD
BRANCH  18  20
ATOM     20  C   UNL     1       3.174   5.644  18.682  0.00  0.00    +0.000 A 
ATOM     21  C   UNL     1       2.464   4.490  19.021  0.00  0.00    +0.000 A 
ATOM     22  C   UNL     1       1.692   4.431  20.186  0.00  0.00    +0.000 A 
ATOM     23  C   UNL     1       0.781   3.405  20.396  0.00  0.00    +0.000 A 
ATOM     24  C   UNL     1       0.606   2.476  19.389  0.00  0.00    +0.000 A 
ATOM     25  C   UNL     1       1.478   2.461  18.279  0.00  0.00    +0.000 A 
ATOM     26  C   UNL     1       2.509   3.403  18.116  0.00  0.00    +0.000 A 
ATOM     27  N   UNL     1       3.488   3.258  17.169  0.00  0.00    +0.000 NA
ATOM     28  C   UNL     1       4.266   4.359  17.043  0.00  0.00    +0.000 A 
ATOM     29  S   UNL     1       5.956   4.435  16.649  0.00  0.00    +0.000 S 
ATOM     30  C   UNL     1       5.945   6.144  17.001  0.00  0.00    +0.000 A 
ATOM     31  N   UNL     1       4.755   6.655  17.159  0.00  0.00    +0.000 NA
ATOM     32  C   UNL     1       3.979   5.605  17.558  0.00  0.00    +0.000 A 
BRANCH  30  33
ATOM     33  S   UNL     1       7.329   7.168  17.352  0.00  0.00    +0.000 S 
ATOM     34  C   UNL     1       7.996   6.392  18.872  0.00  0.00    +0.000 C 
ENDBRANCH  30  33
ENDBRANCH  18  20
ENDBRANCH   5  18
TORSDOF 9
ENDMDL
MODEL 3
REMARK VINA RESULT:      -7.8      0.891      1.338
REMARK  Name = 
REMARK  12 active torsions:
REMARK  status: ('A' for Active; 'I' for Inactive)
REMARK    1  A    between atoms: C_1  and  C_2
REMARK    2  A    between atoms: C_2  and  N_3
REMARK    3  A    between atoms: N_3  and  C_4
REMARK    4  A    between atoms: N_3  and  C_6
REMARK    5  A    between atoms: C_4  and  C_5
REMARK    6  A    between atoms: C_6  and  C_7
REMARK    7  A    between atoms: C_7  and  N_8
REMARK    8  A    between atoms: C_9  and  C_11
REMARK    9  A    between atoms: C_15  and  N_16
REMARK   10  A    between atoms: N_16  and  C_17
REMARK   11  A    between atoms: C_27  and  S_28
REMARK   12  A    between atoms: S_28  and  C_29
REMARK                            x       y       z     vdW  Elec       q    Type
REMARK                         _______ _______ _______ _____ _____    ______ ____
ROOT
ATOM      1  C   UNL     1       0.633   9.432  20.666  0.00  0.00    +0.000 A 
ATOM      2  C   UNL     1       0.292   9.970  19.416  0.00  0.00    +0.000 A 
ATOM      3  C   UNL     1       0.876   9.475  18.250  0.00  0.00    +0.000 A 
ATOM      4  C   UNL     1       1.813   8.445  18.311  0.00  0.00    +0.000 A 
ATOM      5  C   UNL     1       2.170   7.895  19.533  0.00  0.00    +0.000 A 
ATOM      6  C   UNL     1       1.606   8.402  20.720  0.00  0.00    +0.000 A 
ENDROOT
BRANCH   1   8
ATOM      7  N   UNL     1      -0.701  11.070  21.962  0.00  0.00    +0.000 N 
ATOM      8  C   UNL     1      -0.047   9.847  21.938  0.00  0.00    +0.000 C 
ATOM      9  O   UNL     1      -0.039   9.091  22.907  0.00  0.00    +0.000 OA
ATOM     10  H   UNL     1      -0.728  11.677  21.156  0.00  0.00    +0.000 HD
BRANCH   7  11
ATOM     11  C   UNL     1      -1.643  11.407  23.019  0.00  0.00    +0.000 C 
BRANCH  11  12
ATOM     12  C   UNL     1      -2.600  12.563  22.645  0.00  0.00    +0.000 C 
BRANCH  12  13
ATOM     13  N   UNL     1      -3.238  13.284  23.778  0.00  0.00    +0.000 NA
BRANCH  13  15
ATOM     14  C   UNL     1      -2.053  15.068  25.118  0.00  0.00    +0.000 C 
ATOM     15  C   UNL     1      -2.801  14.692  23.840  0.00  0.00    +0.000 C 
ENDBRANCH  13  15
BRANCH  13  16
ATOM     16  C   UNL     1      -4.710  13.131  23.730  0.00  0.00    +0.000 C 
ATOM     17  C   UNL     1      -5.342  12.928  22.353  0.00  0.00    +0.000 C 
ENDBRANCH  13  16
ENDBRANCH  12  13
ENDBRANCH  11  12
ENDBRANCH   7  11
ENDBRANCH   1   8
BRANCH   5  18
ATOM     18  N   UNL     1       3.197   6.909  19.475  0.00  0.00    +0.000 N 
ATOM     19  H   UNL     1       3.245   6.549  20.440  0.00  0.00    +0.000 HD
BRANCH  18  20
ATOM     20  C   UNL     1       3.134   5.744  18.686  0.00  0.00    +0.000 A 
ATOM     21  C   UNL     1       2.420   4.588  19.008  0.00  0.00    +0.000 A 
ATOM     22  C   UNL     1       1.647   4.514  20.171  0.00  0.00    +0.000 A 
ATOM     23  C   UNL     1       0.732   3.488  20.366  0.00  0.00    +0.000 A 
ATOM     24  C   UNL     1       0.554   2.576  19.344  0.00  0.00    +0.000 A 
ATOM     25  C   UNL     1       1.426   2.574  18.234  0.00  0.00    +0.000 A 
ATOM     26  C   UNL     1       2.460   3.514  18.086  0.00  0.00    +0.000 A 
ATOM     27  N   UNL     1       3.439   3.381  17.137  0.00  0.00    +0.000 NA
ATOM     28  C   UNL     1       4.222   4.480  17.028  0.00  0.00    +0.000 A 
ATOM     29  S   UNL     1       5.912   4.555  16.635  0.00  0.00    +0.000 S 
ATOM     30  C   UNL     1       5.908   6.259  17.013  0.00  0.00    +0.000 A 
ATOM     31  N   UNL     1       4.719   6.772  17.180  0.00  0.00    +0.000 NA
ATOM     32  C   UNL     1       3.940   5.719  17.563  0.00  0.00    +0.000 A 
BRANCH  30  33
ATOM     33  S   UNL     1       7.296   7.272  17.380  0.00  0.00    +0.000 S 
ATOM     34  C   UNL     1       8.005   6.424  18.841  0.00  0.00    +0.000 C 
ENDBRANCH  30  33
ENDBRANCH  18  20
ENDBRANCH   5  18
TORSDOF 9
ENDMDL
MODEL 4
REMARK VINA RESULT:      -7.8      0.730      1.099
REMARK  Name = 
REMARK  12 active torsions:
REMARK  status: ('A' for Active; 'I' for Inactive)
REMARK    1  A    between atoms: C_1  and  C_2
REMARK    2  A    between atoms: C_2  and  N_3
REMARK    3  A    between atoms: N_3  and  C_4
REMARK    4  A    between atoms: N_3  and  C_6
REMARK    5  A    between atoms: C_4  and  C_5
REMARK    6  A    between atoms: C_6  and  C_7
REMARK    7  A    between atoms: C_7  and  N_8
REMARK    8  A    between atoms: C_9  and  C_11
REMARK    9  A    between atoms: C_15  and  N_16
REMARK   10  A    between atoms: N_16  and  C_17
REMARK   11  A    between atoms: C_27  and  S_28
REMARK   12  A    between atoms: S_28  and  C_29
REMARK                            x       y       z     vdW  Elec       q    Type
REMARK                         _______ _______ _______ _____ _____    ______ ____
ROOT
ATOM      1  C   UNL     1       0.672   9.657  20.221  0.00  0.00    +0.000 A 
ATOM      2  C   UNL     1       0.417  10.063  18.903  0.00  0.00    +0.000 A 
ATOM      3  C   UNL     1       1.021   9.404  17.831  0.00  0.00    +0.000 A 
ATOM      4  C   UNL     1       1.893   8.341  18.055  0.00  0.00    +0.000 A 
ATOM      5  C   UNL     1       2.164   7.919  19.348  0.00  0.00    +0.000 A 
ATOM      6  C   UNL     1       1.580   8.590  20.440  0.00  0.00    +0.000 A 
ENDROOT
BRANCH   1   8
ATOM      7  N   UNL     1      -0.016  11.632  21.551  0.00  0.00    +0.000 N 
ATOM      8  C   UNL     1      -0.037  10.252  21.403  0.00  0.00    +0.000 C 
ATOM      9  O   UNL     1      -0.641   9.520  22.183  0.00  0.00    +0.000 OA
ATOM     10  H   UNL     1       0.459  12.232  20.894  0.00  0.00    +0.000 HD
BRANCH   7  11
ATOM     11  C   UNL     1      -0.926  12.311  22.461  0.00  0.00    +0.000 C 
BRANCH  11  12
ATOM     12  C   UNL     1      -2.248  12.755  21.793  0.00  0.00    +0.000 C 
BRANCH  12  13
ATOM     13  N   UNL     1      -3.502  12.264  22.422  0.00  0.00    +0.000 NA
BRANCH  13  15
ATOM     14  C   UNL     1      -4.507  12.546  24.722  0.00  0.00    +0.000 C 
ATOM     15  C   UNL     1      -3.336  12.055  23.873  0.00  0.00    +0.000 C 
ENDBRANCH  13  15
BRANCH  13  16
ATOM     16  C   UNL     1      -4.636  13.153  22.086  0.00  0.00    +0.000 C 
ATOM     17  C   UNL     1      -4.318  14.406  21.270  0.00  0.00    +0.000 C 
ENDBRANCH  13  16
ENDBRANCH  12  13
ENDBRANCH  11  12
ENDBRANCH   7  11
ENDBRANCH   1   8
BRANCH   5  18
ATOM     18  N   UNL     1       3.133   6.880  19.454  0.00  0.00    +0.000 N 
ATOM     19  H   UNL     1       3.029   6.547  20.424  0.00  0.00    +0.000 HD
BRANCH  18  20
ATOM     20  C   UNL     1       3.114   5.697  18.690  0.00  0.00    +0.000 A 
ATOM     21  C   UNL     1       2.427   4.529  19.026  0.00  0.00    +0.000 A 
ATOM     22  C   UNL     1       1.638   4.459  20.180  0.00  0.00    +0.000 A 
ATOM     23  C   UNL     1       0.748   3.413  20.383  0.00  0.00    +0.000 A 
ATOM     24  C   UNL     1       0.611   2.474  19.379  0.00  0.00    +0.000 A 
ATOM     25  C   UNL     1       1.500   2.472  18.283  0.00  0.00    +0.000 A 
ATOM     26  C   UNL     1       2.510   3.437  18.129  0.00  0.00    +0.000 A 
ATOM     27  N   UNL     1       3.507   3.310  17.198  0.00  0.00    +0.000 NA
ATOM     28  C   UNL     1       4.261   4.427  17.077  0.00  0.00    +0.000 A 
ATOM     29  S   UNL     1       5.955   4.540  16.708  0.00  0.00    +0.000 S 
ATOM     30  C   UNL     1       5.899   6.251  17.048  0.00  0.00    +0.000 A 
ATOM     31  N   UNL     1       4.695   6.735  17.186  0.00  0.00    +0.000 NA
ATOM     32  C   UNL     1       3.938   5.669  17.580  0.00  0.00    +0.000 A 
BRANCH  30  33
ATOM     33  S   UNL     1       7.253   7.310  17.414  0.00  0.00    +0.000 S 
ATOM     34  C   UNL     1       8.001   6.476  18.864  0.00  0.00    +0.000 C 
ENDBRANCH  30  33
ENDBRANCH  18  20
ENDBRANCH   5  18
TORSDOF 9
ENDMDL
MODEL 5
REMARK VINA RESULT:      -7.8      1.136      1.355
REMARK  Name = 
REMARK  12 active torsions:
REMARK  status: ('A' for Active; 'I' for Inactive)
REMARK    1  A    between atoms: C_1  and  C_2
REMARK    2  A    between atoms: C_2  and  N_3
REMARK    3  A    between atoms: N_3  and  C_4
REMARK    4  A    between atoms: N_3  and  C_6
REMARK    5  A    between atoms: C_4  and  C_5
REMARK    6  A    between atoms: C_6  and  C_7
REMARK    7  A    between atoms: C_7  and  N_8
REMARK    8  A    between atoms: C_9  and  C_11
REMARK    9  A    between atoms: C_15  and  N_16
REMARK   10  A    between atoms: N_16  and  C_17
REMARK   11  A    between atoms: C_27  and  S_28
REMARK   12  A    between atoms: S_28  and  C_29
REMARK                            x       y       z     vdW  Elec       q    Type
REMARK                         _______ _______ _______ _____ _____    ______ ____
ROOT
ATOM      1  C   UNL     1       0.575   9.303  20.532  0.00  0.00    +0.000 A 
ATOM      2  C   UNL     1       0.354   9.914  19.290  0.00  0.00    +0.000 A 
ATOM      3  C   UNL     1       1.042   9.480  18.156  0.00  0.00    +0.000 A 
ATOM      4  C   UNL     1       1.966   8.441  18.245  0.00  0.00    +0.000 A 
ATOM      5  C   UNL     1       2.206   7.820  19.461  0.00  0.00    +0.000 A 
ATOM      6  C   UNL     1       1.535   8.264  20.618  0.00  0.00    +0.000 A 
ENDROOT
BRANCH   1   8
ATOM      7  N   UNL     1      -0.384  10.992  22.073  0.00  0.00    +0.000 N 
ATOM      8  C   UNL     1      -0.220   9.651  21.758  0.00  0.00    +0.000 C 
ATOM      9  O   UNL     1      -0.728   8.755  22.428  0.00  0.00    +0.000 OA
ATOM     10  H   UNL     1       0.014  11.726  21.506  0.00  0.00    +0.000 HD
BRANCH   7  11
ATOM     11  C   UNL     1      -1.386  11.429  23.034  0.00  0.00    +0.000 C 
BRANCH  11  12
ATOM     12  C   UNL     1      -1.567  12.965  23.078  0.00  0.00    +0.000 C 
BRANCH  12  13
ATOM     13  N   UNL     1      -0.998  13.730  21.938  0.00  0.00    +0.000 NA
BRANCH  13  15
ATOM     14  C   UNL     1      -3.294  14.785  21.886  0.00  0.00    +0.000 C 
ATOM     15  C   UNL     1      -2.059  14.332  21.107  0.00  0.00    +0.000 C 
ENDBRANCH  13  15
BRANCH  13  16
ATOM     16  C   UNL     1      -0.001  14.713  22.415  0.00  0.00    +0.000 C 
ATOM     17  C   UNL     1       0.976  15.270  21.378  0.00  0.00    +0.000 C 
ENDBRANCH  13  16
ENDBRANCH  12  13
ENDBRANCH  11  12
ENDBRANCH   7  11
ENDBRANCH   1   8
BRANCH   5  18
ATOM     18  N   UNL     1       3.230   6.830  19.443  0.00  0.00    +0.000 N 
ATOM     19  H   UNL     1       3.258   6.489  20.415  0.00  0.00    +0.000 HD
BRANCH  18  20
ATOM     20  C   UNL     1       3.180   5.650  18.675  0.00  0.00    +0.000 A 
ATOM     21  C   UNL     1       2.477   4.493  19.017  0.00  0.00    +0.000 A 
ATOM     22  C   UNL     1       1.704   4.433  20.181  0.00  0.00    +0.000 A 
ATOM     23  C   UNL     1       0.799   3.402  20.394  0.00  0.00    +0.000 A 
ATOM     24  C   UNL     1       0.630   2.470  19.389  0.00  0.00    +0.000 A 
ATOM     25  C   UNL     1       1.503   2.456  18.280  0.00  0.00    +0.000 A 
ATOM     26  C   UNL     1       2.528   3.404  18.115  0.00  0.00    +0.000 A 
ATOM     27  N   UNL     1       3.509   3.262  17.170  0.00  0.00    +0.000 NA
ATOM     28  C   UNL     1       4.281   4.367  17.041  0.00  0.00    +0.000 A 
ATOM     29  S   UNL     1       5.971   4.451  16.648  0.00  0.00    +0.000 S 
ATOM     30  C   UNL     1       5.950   6.161  16.995  0.00  0.00    +0.000 A 
ATOM     31  N   UNL     1       4.756   6.666  17.152  0.00  0.00    +0.000 NA
ATOM     32  C   UNL     1       3.987   5.613  17.553  0.00  0.00    +0.000 A 
BRANCH  30  33
ATOM     33  S   UNL     1       7.328   7.195  17.345  0.00  0.00    +0.000 S 
ATOM     34  C   UNL     1       8.006   6.417  18.858  0.00  0.00    +0.000 C 
ENDBRANCH  30  33
ENDBRANCH  18  20
ENDBRANCH   5  18
TORSDOF 9
ENDMDL
MODEL 6
REMARK VINA RESULT:      -7.6      0.909      1.393
REMARK  Name = 
REMARK  12 active torsions:
REMARK  status: ('A' for Active; 'I' for Inactive)
REMARK    1  A    between atoms: C_1  and  C_2
REMARK    2  A    between atoms: C_2  and  N_3
REMARK    3  A    between atoms: N_3  and  C_4
REMARK    4  A    between atoms: N_3  and  C_6
REMARK    5  A    between atoms: C_4  and  C_5
REMARK    6  A    between atoms: C_6  and  C_7
REMARK    7  A    between atoms: C_7  and  N_8
REMARK    8  A    between atoms: C_9  and  C_11
REMARK    9  A    between atoms: C_15  and  N_16
REMARK   10  A    between atoms: N_16  and  C_17
REMARK   11  A    between atoms: C_27  and  S_28
REMARK   12  A    between atoms: S_28  and  C_29
REMARK                            x       y       z     vdW  Elec       q    Type
REMARK                         _______ _______ _______ _____ _____    ______ ____
ROOT
ATOM      1  C   UNL     1       0.657   9.559  20.194  0.00  0.00    +0.000 A 
ATOM      2  C   UNL     1       0.495  10.025  18.881  0.00  0.00    +0.000 A 
ATOM      3  C   UNL     1       1.167   9.410  17.825  0.00  0.00    +0.000 A 
ATOM      4  C   UNL     1       2.017   8.331  18.060  0.00  0.00    +0.000 A 
ATOM      5  C   UNL     1       2.197   7.851  19.347  0.00  0.00    +0.000 A 
ATOM      6  C   UNL     1       1.544   8.477  20.427  0.00  0.00    +0.000 A 
ENDROOT
BRANCH   1   8
ATOM      7  N   UNL     1      -0.527  11.435  21.300  0.00  0.00    +0.000 N 
ATOM      8  C   UNL     1      -0.128  10.107  21.351  0.00  0.00    +0.000 C 
ATOM      9  O   UNL     1      -0.426   9.370  22.287  0.00  0.00    +0.000 OA
ATOM     10  H   UNL     1      -0.303  12.030  20.517  0.00  0.00    +0.000 HD
BRANCH   7  11
ATOM     11  C   UNL     1      -1.545  11.957  22.200  0.00  0.00    +0.000 C 
BRANCH  11  12
ATOM     12  C   UNL     1      -1.865  13.452  21.966  0.00  0.00    +0.000 C 
BRANCH  12  13
ATOM     13  N   UNL     1      -3.117  13.963  22.583  0.00  0.00    +0.000 NA
BRANCH  13  15
ATOM     14  C   UNL     1      -5.376  12.869  22.295  0.00  0.00    +0.000 C 
ATOM     15  C   UNL     1      -4.013  12.861  22.985  0.00  0.00    +0.000 C 
ENDBRANCH  13  15
BRANCH  13  16
ATOM     16  C   UNL     1      -2.809  14.897  23.689  0.00  0.00    +0.000 C 
ATOM     17  C   UNL     1      -3.234  14.471  25.095  0.00  0.00    +0.000 C 
ENDBRANCH  13  16
ENDBRANCH  12  13
ENDBRANCH  11  12
ENDBRANCH   7  11
ENDBRANCH   1   8
BRANCH   5  18
ATOM     18  N   UNL     1       3.152   6.801  19.472  0.00  0.00    +0.000 N 
ATOM     19  H   UNL     1       3.013   6.457  20.434  0.00  0.00    +0.000 HD
BRANCH  18  20
ATOM     20  C   UNL     1       3.147   5.627  18.694  0.00  0.00    +0.000 A 
ATOM     21  C   UNL     1       2.440   4.461  18.994  0.00  0.00    +0.000 A 
ATOM     22  C   UNL     1       1.617   4.384  20.122  0.00  0.00    +0.000 A 
ATOM     23  C   UNL     1       0.712   3.343  20.285  0.00  0.00    +0.000 A 
ATOM     24  C   UNL     1       0.598   2.418  19.266  0.00  0.00    +0.000 A 
ATOM     25  C   UNL     1       1.520   2.421  18.197  0.00  0.00    +0.000 A 
ATOM     26  C   UNL     1       2.542   3.380  18.087  0.00  0.00    +0.000 A 
ATOM     27  N   UNL     1       3.566   3.255  17.185  0.00  0.00    +0.000 NA
ATOM     28  C   UNL     1       4.333   4.367  17.100  0.00  0.00    +0.000 A 
ATOM     29  S   UNL     1       6.038   4.470  16.784  0.00  0.00    +0.000 S 
ATOM     30  C   UNL     1       5.985   6.177  17.144  0.00  0.00    +0.000 A 
ATOM     31  N   UNL     1       4.781   6.670  17.251  0.00  0.00    +0.000 NA
ATOM     32  C   UNL     1       4.004   5.606  17.608  0.00  0.00    +0.000 A 
BRANCH  30  33
ATOM     33  S   UNL     1       7.336   7.220  17.564  0.00  0.00    +0.000 S 
ATOM     34  C   UNL     1       8.094   6.308  18.961  0.00  0.00    +0.000 C 
ENDBRANCH  30  33
ENDBRANCH  18  20
ENDBRANCH   5  18
TORSDOF 9
ENDMDL
MODEL 7
REMARK VINA RESULT:      -7.4      2.309      3.277
REMARK  Name = 
REMARK  12 active torsions:
REMARK  status: ('A' for Active; 'I' for Inactive)
REMARK    1  A    between atoms: C_1  and  C_2
REMARK    2  A    between atoms: C_2  and  N_3
REMARK    3  A    between atoms: N_3  and  C_4
REMARK    4  A    between atoms: N_3  and  C_6
REMARK    5  A    between atoms: C_4  and  C_5
REMARK    6  A    between atoms: C_6  and  C_7
REMARK    7  A    between atoms: C_7  and  N_8
REMARK    8  A    between atoms: C_9  and  C_11
REMARK    9  A    between atoms: C_15  and  N_16
REMARK   10  A    between atoms: N_16  and  C_17
REMARK   11  A    between atoms: C_27  and  S_28
REMARK   12  A    between atoms: S_28  and  C_29
REMARK                            x       y       z     vdW  Elec       q    Type
REMARK                         _______ _______ _______ _____ _____    ______ ____
ROOT
ATOM      1  C   UNL     1       0.540   9.461  19.621  0.00  0.00    +0.000 A 
ATOM      2  C   UNL     1      -0.050   9.214  20.868  0.00  0.00    +0.000 A 
ATOM      3  C   UNL     1       0.463   8.227  21.710  0.00  0.00    +0.000 A 
ATOM      4  C   UNL     1       1.563   7.466  21.319  0.00  0.00    +0.000 A 
ATOM      5  C   UNL     1       2.165   7.687  20.090  0.00  0.00    +0.000 A 
ATOM      6  C   UNL     1       1.642   8.664  19.220  0.00  0.00    +0.000 A 
ENDROOT
BRANCH   1   8
ATOM      7  N   UNL     1      -1.202  10.573  18.252  0.00  0.00    +0.000 N 
ATOM      8  C   UNL     1       0.102  10.584  18.726  0.00  0.00    +0.000 C 
ATOM      9  O   UNL     1       0.885  11.494  18.464  0.00  0.00    +0.000 OA
ATOM     10  H   UNL     1      -1.850   9.838  18.491  0.00  0.00    +0.000 HD
BRANCH   7  11
ATOM     11  C   UNL     1      -1.804  11.757  17.658  0.00  0.00    +0.000 C 
BRANCH  11  12
ATOM     12  C   UNL     1      -3.328  11.861  17.902  0.00  0.00    +0.000 C 
BRANCH  12  13
ATOM     13  N   UNL     1      -4.205  11.539  16.746  0.00  0.00    +0.000 NA
BRANCH  13  15
ATOM     14  C   UNL     1      -3.457  10.349  14.647  0.00  0.00    +0.000 C 
ATOM     15  C   UNL     1      -3.833  10.254  16.125  0.00  0.00    +0.000 C 
ENDBRANCH  13  15
BRANCH  13  16
ATOM     16  C   UNL     1      -5.630  11.607  17.138  0.00  0.00    +0.000 C 
ATOM     17  C   UNL     1      -6.274  12.994  17.176  0.00  0.00    +0.000 C 
ENDBRANCH  13  16
ENDBRANCH  12  13
ENDBRANCH  11  12
ENDBRANCH   7  11
ENDBRANCH   1   8
BRANCH   5  18
ATOM     18  N   UNL     1       3.226   6.793  19.767  0.00  0.00    +0.000 N 
ATOM     19  H   UNL     1       3.453   6.347  20.668  0.00  0.00    +0.000 HD
BRANCH  18  20
ATOM     20  C   UNL     1       3.104   5.707  18.878  0.00  0.00    +0.000 A 
ATOM     21  C   UNL     1       2.432   4.512  19.148  0.00  0.00    +0.000 A 
ATOM     22  C   UNL     1       1.768   4.314  20.363  0.00  0.00    +0.000 A 
ATOM     23  C   UNL     1       0.884   3.259  20.539  0.00  0.00    +0.000 A 
ATOM     24  C   UNL     1       0.623   2.445  19.453  0.00  0.00    +0.000 A 
ATOM     25  C   UNL     1       1.392   2.564  18.276  0.00  0.00    +0.000 A 
ATOM     26  C   UNL     1       2.400   3.532  18.128  0.00  0.00    +0.000 A 
ATOM     27  N   UNL     1       3.291   3.507  17.088  0.00  0.00    +0.000 NA
ATOM     28  C   UNL     1       4.050   4.626  17.016  0.00  0.00    +0.000 A 
ATOM     29  S   UNL     1       5.697   4.768  16.485  0.00  0.00    +0.000 S 
ATOM     30  C   UNL     1       5.711   6.428  17.024  0.00  0.00    +0.000 A 
ATOM     31  N   UNL     1       4.538   6.901  17.344  0.00  0.00    +0.000 NA
ATOM     32  C   UNL     1       3.805   5.803  17.690  0.00  0.00    +0.000 A 
BRANCH  30  33
ATOM     33  S   UNL     1       7.117   7.427  17.363  0.00  0.00    +0.000 S 
ATOM     34  C   UNL     1       7.924   6.492  18.716  0.00  0.00    +0.000 C 
ENDBRANCH  30  33
ENDBRANCH  18  20
ENDBRANCH   5  18
TORSDOF 9
ENDMDL
MODEL 8
REMARK VINA RESULT:      -7.4      1.977      2.750
REMARK  Name = 
REMARK  12 active torsions:
REMARK  status: ('A' for Active; 'I' for Inactive)
REMARK    1  A    between atoms: C_1  and  C_2
REMARK    2  A    between atoms: C_2  and  N_3
REMARK    3  A    between atoms: N_3  and  C_4
REMARK    4  A    between atoms: N_3  and  C_6
REMARK    5  A    between atoms: C_4  and  C_5
REMARK    6  A    between atoms: C_6  and  C_7
REMARK    7  A    between atoms: C_7  and  N_8
REMARK    8  A    between atoms: C_9  and  C_11
REMARK    9  A    between atoms: C_15  and  N_16
REMARK   10  A    between atoms: N_16  and  C_17
REMARK   11  A    between atoms: C_27  and  S_28
REMARK   12  A    between atoms: S_28  and  C_29
REMARK                            x       y       z     vdW  Elec       q    Type
REMARK                         _______ _______ _______ _____ _____    ______ ____
ROOT
ATOM      1  C   UNL     1       0.341   9.501  19.520  0.00  0.00    +0.000 A 
ATOM      2  C   UNL     1      -0.198   9.299  20.798  0.00  0.00    +0.000 A 
ATOM      3  C   UNL     1       0.386   8.383  21.675  0.00  0.00    +0.000 A 
ATOM      4  C   UNL     1       1.506   7.650  21.288  0.00  0.00    +0.000 A 
ATOM      5  C   UNL     1       2.059   7.828  20.029  0.00  0.00    +0.000 A 
ATOM      6  C   UNL     1       1.465   8.732  19.126  0.00  0.00    +0.000 A 
ENDROOT
BRANCH   1   8
ATOM      7  N   UNL     1      -1.372  10.312  17.922  0.00  0.00    +0.000 N 
ATOM      8  C   UNL     1      -0.175  10.553  18.581  0.00  0.00    +0.000 C 
ATOM      9  O   UNL     1       0.447  11.604  18.443  0.00  0.00    +0.000 OA
ATOM     10  H   UNL     1      -1.894   9.459  18.058  0.00  0.00    +0.000 HD
BRANCH   7  11
ATOM     11  C   UNL     1      -2.102  11.382  17.258  0.00  0.00    +0.000 C 
BRANCH  11  12
ATOM     12  C   UNL     1      -3.624  11.122  17.163  0.00  0.00    +0.000 C 
BRANCH  12  13
ATOM     13  N   UNL     1      -4.487  11.920  18.073  0.00  0.00    +0.000 NA
BRANCH  13  15
ATOM     14  C   UNL     1      -7.008  11.916  17.901  0.00  0.00    +0.000 C 
ATOM     15  C   UNL     1      -5.742  11.212  18.389  0.00  0.00    +0.000 C 
ENDBRANCH  13  15
BRANCH  13  16
ATOM     16  C   UNL     1      -3.733  12.334  19.277  0.00  0.00    +0.000 C 
ATOM     17  C   UNL     1      -4.539  12.566  20.556  0.00  0.00    +0.000 C 
ENDBRANCH  13  16
ENDBRANCH  12  13
ENDBRANCH  11  12
ENDBRANCH   7  11
ENDBRANCH   1   8
BRANCH   5  18
ATOM     18  N   UNL     1       3.148   6.964  19.719  0.00  0.00    +0.000 N 
ATOM     19  H   UNL     1       3.394   6.544  20.627  0.00  0.00    +0.000 HD
BRANCH  18  20
ATOM     20  C   UNL     1       3.059   5.857  18.853  0.00  0.00    +0.000 A 
ATOM     21  C   UNL     1       2.393   4.662  19.134  0.00  0.00    +0.000 A 
ATOM     22  C   UNL     1       1.700   4.485  20.336  0.00  0.00    +0.000 A 
ATOM     23  C   UNL     1       0.822   3.424  20.513  0.00  0.00    +0.000 A 
ATOM     24  C   UNL     1       0.597   2.582  19.441  0.00  0.00    +0.000 A 
ATOM     25  C   UNL     1       1.394   2.683  18.281  0.00  0.00    +0.000 A 
ATOM     26  C   UNL     1       2.396   3.658  18.136  0.00  0.00    +0.000 A 
ATOM     27  N   UNL     1       3.313   3.618  17.119  0.00  0.00    +0.000 NA
ATOM     28  C   UNL     1       4.063   4.743  17.040  0.00  0.00    +0.000 A 
ATOM     29  S   UNL     1       5.722   4.891  16.547  0.00  0.00    +0.000 S 
ATOM     30  C   UNL     1       5.705   6.562  17.048  0.00  0.00    +0.000 A 
ATOM     31  N   UNL     1       4.519   7.031  17.327  0.00  0.00    +0.000 NA
ATOM     32  C   UNL     1       3.789   5.933  17.681  0.00  0.00    +0.000 A 
BRANCH  30  33
ATOM     33  S   UNL     1       7.092   7.584  17.399  0.00  0.00    +0.000 S 
ATOM     34  C   UNL     1       7.974   6.597  18.666  0.00  0.00    +0.000 C 
ENDBRANCH  30  33
ENDBRANCH  18  20
ENDBRANCH   5  18
TORSDOF 9
ENDMDL
MODEL 9
REMARK VINA RESULT:      -7.4      3.411      9.648
REMARK  Name = 
REMARK  12 active torsions:
REMARK  status: ('A' for Active; 'I' for Inactive)
REMARK    1  A    between atoms: C_1  and  C_2
REMARK    2  A    between atoms: C_2  and  N_3
REMARK    3  A    between atoms: N_3  and  C_4
REMARK    4  A    between atoms: N_3  and  C_6
REMARK    5  A    between atoms: C_4  and  C_5
REMARK    6  A    between atoms: C_6  and  C_7
REMARK    7  A    between atoms: C_7  and  N_8
REMARK    8  A    between atoms: C_9  and  C_11
REMARK    9  A    between atoms: C_15  and  N_16
REMARK   10  A    between atoms: N_16  and  C_17
REMARK   11  A    between atoms: C_27  and  S_28
REMARK   12  A    between atoms: S_28  and  C_29
REMARK                            x       y       z     vdW  Elec       q    Type
REMARK                         _______ _______ _______ _____ _____    ______ ____
ROOT
ATOM      1  C   UNL     1       0.861   9.205  20.192  0.00  0.00    +0.000 A 
ATOM      2  C   UNL     1       0.740   8.610  21.456  0.00  0.00    +0.000 A 
ATOM      3  C   UNL     1      -0.038   9.208  22.447  0.00  0.00    +0.000 A 
ATOM      4  C   UNL     1      -0.697  10.411  22.199  0.00  0.00    +0.000 A 
ATOM      5  C   UNL     1      -0.594  11.022  20.959  0.00  0.00    +0.000 A 
ATOM      6  C   UNL     1       0.207  10.441  19.957  0.00  0.00    +0.000 A 
ENDROOT
BRANCH   1   8
ATOM      7  N   UNL     1       2.268   7.365  19.308  0.00  0.00    +0.000 N 
ATOM      8  C   UNL     1       1.589   8.548  19.054  0.00  0.00    +0.000 C 
ATOM      9  O   UNL     1       1.540   9.047  17.932  0.00  0.00    +0.000 OA
ATOM     10  H   UNL     1       2.284   6.945  20.225  0.00  0.00    +0.000 HD
BRANCH   7  11
ATOM     11  C   UNL     1       2.720   6.503  18.227  0.00  0.00    +0.000 C 
BRANCH  11  12
ATOM     12  C   UNL     1       2.087   5.092  18.258  0.00  0.00    +0.000 C 
BRANCH  12  13
ATOM     13  N   UNL     1       2.399   4.255  19.446  0.00  0.00    +0.000 NA
BRANCH  13  15
ATOM     14  C   UNL     1       1.372   2.920  21.330  0.00  0.00    +0.000 C 
ATOM     15  C   UNL     1       1.194   3.995  20.257  0.00  0.00    +0.000 C 
ENDBRANCH  13  15
BRANCH  13  16
ATOM     16  C   UNL     1       3.108   3.020  19.041  0.00  0.00    +0.000 C 
ATOM     17  C   UNL     1       2.673   2.369  17.728  0.00  0.00    +0.000 C 
ENDBRANCH  13  16
ENDBRANCH  12  13
ENDBRANCH  11  12
ENDBRANCH   7  11
ENDBRANCH   1   8
BRANCH   5  18
ATOM     18  N   UNL     1      -1.243  12.286  20.852  0.00  0.00    +0.000 N 
ATOM     19  H   UNL     1      -0.906  12.658  19.952  0.00  0.00    +0.000 HD
BRANCH  18  20
ATOM     20  C   UNL     1      -2.639  12.457  20.783  0.00  0.00    +0.000 A 
ATOM     21  C   UNL     1      -3.492  12.590  21.881  0.00  0.00    +0.000 A 
ATOM     22  C   UNL     1      -2.994  12.601  23.188  0.00  0.00    +0.000 A 
ATOM     23  C   UNL     1      -3.785  12.996  24.259  0.00  0.00    +0.000 A 
ATOM     24  C   UNL     1      -5.063  13.445  23.989  0.00  0.00    +0.000 A 
ATOM     25  C   UNL     1      -5.606  13.306  22.694  0.00  0.00    +0.000 A 
ATOM     26  C   UNL     1      -4.872  12.769  21.622  0.00  0.00    +0.000 A 
ATOM     27  N   UNL     1      -5.460  12.426  20.433  0.00  0.00    +0.000 NA
ATOM     28  C   UNL     1      -4.560  12.114  19.471  0.00  0.00    +0.000 A 
ATOM     29  S   UNL     1      -4.723  10.952  18.190  0.00  0.00    +0.000 S 
ATOM     30  C   UNL     1      -3.041  11.181  17.789  0.00  0.00    +0.000 A 
ATOM     31  N   UNL     1      -2.476  12.194  18.387  0.00  0.00    +0.000 NA
ATOM     32  C   UNL     1      -3.207  12.374  19.525  0.00  0.00    +0.000 A 
BRANCH  30  33
ATOM     33  S   UNL     1      -2.012  10.105  16.855  0.00  0.00    +0.000 S 
ATOM     34  C   UNL     1      -2.818  10.148  15.210  0.00  0.00    +0.000 C 
ENDBRANCH  30  33
ENDBRANCH  18  20
ENDBRANCH   5  18
TORSDOF 9
ENDMDL
