MODEL 1
REMARK VINA RESULT:      -6.3      0.000      0.000
REMARK  Name = 
REMARK  15 active torsions:
REMARK  status: ('A' for Active; 'I' for Inactive)
REMARK    1  A    between atoms: C_1  and  C_2
REMARK    2  A    between atoms: C_2  and  C_3
REMARK    3  A    between atoms: C_3  and  C_4
REMARK    4  A    between atoms: C_4  and  C_5
REMARK    5  A    between atoms: C_5  and  C_6
REMARK    6  A    between atoms: C_6  and  C_7
REMARK    7  A    between atoms: C_7  and  C_8
REMARK    8  A    between atoms: C_8  and  C_9
REMARK    9  A    between atoms: C_9  and  C_10
REMARK   10  A    between atoms: C_10  and  C_11
REMARK   11  A    between atoms: C_11  and  C_12
REMARK   12  A    between atoms: C_12  and  C_13
REMARK   13  A    between atoms: C_14  and  O_15
REMARK   14  A    between atoms: O_15  and  C_16
REMARK   15  A    between atoms: C_16  and  C_17
REMARK                            x       y       z     vdW  Elec       q    Type
REMARK                         _______ _______ _______ _____ _____    ______ ____
ROOT
ATOM      1  C   UNL     1       0.514  10.109  21.322  0.00  0.00    +0.000 C 
ATOM      2  C   UNL     1       0.431  10.808  20.179  0.00  0.00    +0.000 C 
ATOM      3  C   UNL     1      -0.499  11.965  20.041  0.00  0.00    +0.000 C 
ATOM      4  O   UNL     1      -0.399  12.761  19.118  0.00  0.00    +0.000 OA
ATOM      5  C   UNL     1      -1.511  12.149  21.098  0.00  0.00    +0.000 A 
ATOM      6  C   UNL     1      -2.565  13.047  20.907  0.00  0.00    +0.000 A 
ATOM      7  C   UNL     1      -3.479  13.279  21.938  0.00  0.00    +0.000 A 
ATOM      8  C   UNL     1      -3.330  12.635  23.166  0.00  0.00    +0.000 A 
ATOM      9  C   UNL     1      -2.284  11.730  23.353  0.00  0.00    +0.000 A 
ATOM     10  C   UNL     1      -1.384  11.476  22.309  0.00  0.00    +0.000 A 
ATOM     11  C   UNL     1      -0.302  10.500  22.503  0.00  0.00    +0.000 C 
ATOM     12  O   UNL     1      -0.084  10.036  23.614  0.00  0.00    +0.000 OA
ENDROOT
BRANCH   1  13
ATOM     13  C   UNL     1       1.489   8.979  21.527  0.00  0.00    +0.000 C 
BRANCH  13  14
ATOM     14  C   UNL     1       0.926   7.607  21.135  0.00  0.00    +0.000 C 
BRANCH  14  15
ATOM     15  C   UNL     1       2.037   6.572  20.910  0.00  0.00    +0.000 C 
BRANCH  15  16
ATOM     16  C   UNL     1       1.724   5.524  19.837  0.00  0.00    +0.000 C 
BRANCH  16  17
ATOM     17  C   UNL     1       1.002   4.313  20.418  0.00  0.00    +0.000 C 
BRANCH  17  18
ATOM     18  C   UNL     1       1.885   3.534  21.380  0.00  0.00    +0.000 C 
BRANCH  18  19
ATOM     19  C   UNL     1       2.927   2.749  20.591  0.00  0.00    +0.000 C 
BRANCH  19  20
ATOM     20  C   UNL     1       2.291   2.067  19.391  0.00  0.00    +0.000 C 
BRANCH  20  21
ATOM     21  C   UNL     1       3.209   2.144  18.178  0.00  0.00    +0.000 C 
BRANCH  21  22
ATOM     22  C   UNL     1       2.715   3.209  17.209  0.00  0.00    +0.000 C 
BRANCH  22  24
ATOM     23  C   UNL     1       4.995   4.027  17.845  0.00  0.00    +0.000 C 
ATOM     24  C   UNL     1       3.722   4.347  17.083  0.00  0.00    +0.000 C 
ENDBRANCH  22  24
ENDBRANCH  21  22
ENDBRANCH  20  21
ENDBRANCH  19  20
ENDBRANCH  18  19
ENDBRANCH  17  18
ENDBRANCH  16  17
ENDBRANCH  15  16
ENDBRANCH  14  15
ENDBRANCH  13  14
ENDBRANCH   1  13
BRANCH   2  25
ATOM     25  O   UNL     1       1.341  10.553  19.128  0.00  0.00    +0.000 OA
BRANCH  25  26
ATOM     26  C   UNL     1       0.889   9.712  18.147  0.00  0.00    +0.000 C 
ATOM     27  C   UNL     1       1.982   8.745  17.781  0.00  0.00    +0.000 C 
ATOM     28  O   UNL     1      -0.245   9.667  17.693  0.00  0.00    +0.000 OA
ENDBRANCH  25  26
ENDBRANCH   2  25
TORSDOF 13
ENDMDL
MODEL 2
REMARK VINA RESULT:      -6.2      5.717      8.856
REMARK  Name = 
REMARK  15 active torsions:
REMARK  status: ('A' for Active; 'I' for Inactive)
REMARK    1  A    between atoms: C_1  and  C_2
REMARK    2  A    between atoms: C_2  and  C_3
REMARK    3  A    between atoms: C_3  and  C_4
REMARK    4  A    between atoms: C_4  and  C_5
REMARK    5  A    between atoms: C_5  and  C_6
REMARK    6  A    between atoms: C_6  and  C_7
REMARK    7  A    between atoms: C_7  and  C_8
REMARK    8  A    between atoms: C_8  and  C_9
REMARK    9  A    between atoms: C_9  and  C_10
REMARK   10  A    between atoms: C_10  and  C_11
REMARK   11  A    between atoms: C_11  and  C_12
REMARK   12  A    between atoms: C_12  and  C_13
REMARK   13  A    between atoms: C_14  and  O_15
REMARK   14  A    between atoms: O_15  and  C_16
REMARK   15  A    between atoms: C_16  and  C_17
REMARK                            x       y       z     vdW  Elec       q    Type
REMARK                         _______ _______ _______ _____ _____    ______ ____
ROOT
ATOM      1  C   UNL     1       4.898   5.488  18.148  0.00  0.00    +0.000 C 
ATOM      2  C   UNL     1       4.429   4.948  19.284  0.00  0.00    +0.000 C 
ATOM      3  C   UNL     1       3.209   5.482  19.953  0.00  0.00    +0.000 C 
ATOM      4  O   UNL     1       2.628   4.850  20.824  0.00  0.00    +0.000 OA
ATOM      5  C   UNL     1       2.692   6.779  19.480  0.00  0.00    +0.000 A 
ATOM      6  C   UNL     1       1.717   7.455  20.220  0.00  0.00    +0.000 A 
ATOM      7  C   UNL     1       1.170   8.645  19.733  0.00  0.00    +0.000 A 
ATOM      8  C   UNL     1       1.578   9.150  18.498  0.00  0.00    +0.000 A 
ATOM      9  C   UNL     1       2.559   8.482  17.764  0.00  0.00    +0.000 A 
ATOM     10  C   UNL     1       3.127   7.303  18.267  0.00  0.00    +0.000 A 
ATOM     11  C   UNL     1       4.180   6.620  17.503  0.00  0.00    +0.000 C 
ATOM     12  O   UNL     1       4.445   6.979  16.363  0.00  0.00    +0.000 OA
ENDROOT
BRANCH   1  13
ATOM     13  C   UNL     1       6.084   4.936  17.402  0.00  0.00    +0.000 C 
BRANCH  13  14
ATOM     14  C   UNL     1       7.412   5.111  18.150  0.00  0.00    +0.000 C 
BRANCH  14  15
ATOM     15  C   UNL     1       7.738   6.589  18.407  0.00  0.00    +0.000 C 
BRANCH  15  16
ATOM     16  C   UNL     1       7.638   7.487  17.170  0.00  0.00    +0.000 C 
BRANCH  16  17
ATOM     17  C   UNL     1       7.976   8.939  17.491  0.00  0.00    +0.000 C 
BRANCH  17  18
ATOM     18  C   UNL     1       8.624   9.081  18.859  0.00  0.00    +0.000 C 
BRANCH  18  19
ATOM     19  C   UNL     1       9.311  10.439  18.956  0.00  0.00    +0.000 C 
BRANCH  19  20
ATOM     20  C   UNL     1       9.491  10.848  20.409  0.00  0.00    +0.000 C 
BRANCH  20  21
ATOM     21  C   UNL     1      10.663  11.809  20.557  0.00  0.00    +0.000 C 
BRANCH  21  22
ATOM     22  C   UNL     1      10.219  13.234  20.257  0.00  0.00    +0.000 C 
BRANCH  22  24
ATOM     23  C   UNL     1      10.984  15.543  19.660  0.00  0.00    +0.000 C 
ATOM     24  C   UNL     1      11.390  14.085  19.779  0.00  0.00    +0.000 C 
ENDBRANCH  22  24
ENDBRANCH  21  22
ENDBRANCH  20  21
ENDBRANCH  19  20
ENDBRANCH  18  19
ENDBRANCH  17  18
ENDBRANCH  16  17
ENDBRANCH  15  16
ENDBRANCH  14  15
ENDBRANCH  13  14
ENDBRANCH   1  13
BRANCH   2  25
ATOM     25  O   UNL     1       5.001   3.758  19.788  0.00  0.00    +0.000 OA
BRANCH  25  26
ATOM     26  C   UNL     1       4.150   2.691  19.889  0.00  0.00    +0.000 C 
ATOM     27  C   UNL     1       3.763   2.234  18.509  0.00  0.00    +0.000 C 
ATOM     28  O   UNL     1       3.818   2.119  20.917  0.00  0.00    +0.000 OA
ENDBRANCH  25  26
ENDBRANCH   2  25
TORSDOF 13
ENDMDL
MODEL 3
REMARK VINA RESULT:      -6.1      4.940      8.135
REMARK  Name = 
REMARK  15 active torsions:
REMARK  status: ('A' for Active; 'I' for Inactive)
REMARK    1  A    between atoms: C_1  and  C_2
REMARK    2  A    between atoms: C_2  and  C_3
REMARK    3  A    between atoms: C_3  and  C_4
REMARK    4  A    between atoms: C_4  and  C_5
REMARK    5  A    between atoms: C_5  and  C_6
REMARK    6  A    between atoms: C_6  and  C_7
REMARK    7  A    between atoms: C_7  and  C_8
REMARK    8  A    between atoms: C_8  and  C_9
REMARK    9  A    between atoms: C_9  and  C_10
REMARK   10  A    between atoms: C_10  and  C_11
REMARK   11  A    between atoms: C_11  and  C_12
REMARK   12  A    between atoms: C_12  and  C_13
REMARK   13  A    between atoms: C_14  and  O_15
REMARK   14  A    between atoms: O_15  and  C_16
REMARK   15  A    between atoms: C_16  and  C_17
REMARK                            x       y       z     vdW  Elec       q    Type
REMARK                         _______ _______ _______ _____ _____    ______ ____
ROOT
ATOM      1  C   UNL     1       3.786   5.322  18.209  0.00  0.00    +0.000 C 
ATOM      2  C   UNL     1       3.138   4.837  19.279  0.00  0.00    +0.000 C 
ATOM      3  C   UNL     1       2.100   5.637  19.989  0.00  0.00    +0.000 C 
ATOM      4  O   UNL     1       1.328   5.123  20.786  0.00  0.00    +0.000 OA
ATOM      5  C   UNL     1       2.000   7.068  19.647  0.00  0.00    +0.000 A 
ATOM      6  C   UNL     1       1.235   7.926  20.444  0.00  0.00    +0.000 A 
ATOM      7  C   UNL     1       1.076   9.264  20.077  0.00  0.00    +0.000 A 
ATOM      8  C   UNL     1       1.660   9.744  18.904  0.00  0.00    +0.000 A 
ATOM      9  C   UNL     1       2.433   8.892  18.114  0.00  0.00    +0.000 A 
ATOM     10  C   UNL     1       2.614   7.555  18.498  0.00  0.00    +0.000 A 
ATOM     11  C   UNL     1       3.454   6.671  17.677  0.00  0.00    +0.000 C 
ATOM     12  O   UNL     1       3.854   7.044  16.583  0.00  0.00    +0.000 OA
ENDROOT
BRANCH   1  13
ATOM     13  C   UNL     1       4.790   4.521  17.421  0.00  0.00    +0.000 C 
BRANCH  13  14
ATOM     14  C   UNL     1       6.176   4.463  18.076  0.00  0.00    +0.000 C 
BRANCH  14  15
ATOM     15  C   UNL     1       7.297   4.796  17.083  0.00  0.00    +0.000 C 
BRANCH  15  16
ATOM     16  C   UNL     1       7.398   6.279  16.711  0.00  0.00    +0.000 C 
BRANCH  16  17
ATOM     17  C   UNL     1       7.136   7.185  17.909  0.00  0.00    +0.000 C 
BRANCH  17  18
ATOM     18  C   UNL     1       8.357   8.017  18.268  0.00  0.00    +0.000 C 
BRANCH  18  19
ATOM     19  C   UNL     1       8.130   9.463  17.840  0.00  0.00    +0.000 C 
BRANCH  19  20
ATOM     20  C   UNL     1       9.128  10.388  18.517  0.00  0.00    +0.000 C 
BRANCH  20  21
ATOM     21  C   UNL     1       8.991  11.809  17.987  0.00  0.00    +0.000 C 
BRANCH  21  22
ATOM     22  C   UNL     1       9.784  12.775  18.857  0.00  0.00    +0.000 C 
BRANCH  22  24
ATOM     23  C   UNL     1      11.295  13.090  16.884  0.00  0.00    +0.000 C 
ATOM     24  C   UNL     1      10.543  13.786  18.004  0.00  0.00    +0.000 C 
ENDBRANCH  22  24
ENDBRANCH  21  22
ENDBRANCH  20  21
ENDBRANCH  19  20
ENDBRANCH  18  19
ENDBRANCH  17  18
ENDBRANCH  16  17
ENDBRANCH  15  16
ENDBRANCH  14  15
ENDBRANCH  13  14
ENDBRANCH   1  13
BRANCH   2  25
ATOM     25  O   UNL     1       3.321   3.489  19.664  0.00  0.00    +0.000 OA
BRANCH  25  26
ATOM     26  C   UNL     1       2.621   2.567  18.933  0.00  0.00    +0.000 C 
ATOM     27  C   UNL     1       3.515   1.397  18.625  0.00  0.00    +0.000 C 
ATOM     28  O   UNL     1       1.433   2.615  18.647  0.00  0.00    +0.000 OA
ENDBRANCH  25  26
ENDBRANCH   2  25
TORSDOF 13
ENDMDL
MODEL 4
REMARK VINA RESULT:      -6.1      6.022      9.796
REMARK  Name = 
REMARK  15 active torsions:
REMARK  status: ('A' for Active; 'I' for Inactive)
REMARK    1  A    between atoms: C_1  and  C_2
REMARK    2  A    between atoms: C_2  and  C_3
REMARK    3  A    between atoms: C_3  and  C_4
REMARK    4  A    between atoms: C_4  and  C_5
REMARK    5  A    between atoms: C_5  and  C_6
REMARK    6  A    between atoms: C_6  and  C_7
REMARK    7  A    between atoms: C_7  and  C_8
REMARK    8  A    between atoms: C_8  and  C_9
REMARK    9  A    between atoms: C_9  and  C_10
REMARK   10  A    between atoms: C_10  and  C_11
REMARK   11  A    between atoms: C_11  and  C_12
REMARK   12  A    between atoms: C_12  and  C_13
REMARK   13  A    between atoms: C_14  and  O_15
REMARK   14  A    between atoms: O_15  and  C_16
REMARK   15  A    between atoms: C_16  and  C_17
REMARK                            x       y       z     vdW  Elec       q    Type
REMARK                         _______ _______ _______ _____ _____    ______ ____
ROOT
ATOM      1  C   UNL     1       4.877   5.707  17.599  0.00  0.00    +0.000 C 
ATOM      2  C   UNL     1       5.078   4.418  17.282  0.00  0.00    +0.000 C 
ATOM      3  C   UNL     1       4.137   3.351  17.727  0.00  0.00    +0.000 C 
ATOM      4  O   UNL     1       4.158   2.232  17.237  0.00  0.00    +0.000 OA
ATOM      5  C   UNL     1       3.134   3.717  18.745  0.00  0.00    +0.000 A 
ATOM      6  C   UNL     1       2.395   2.720  19.388  0.00  0.00    +0.000 A 
ATOM      7  C   UNL     1       1.390   3.070  20.294  0.00  0.00    +0.000 A 
ATOM      8  C   UNL     1       1.106   4.412  20.542  0.00  0.00    +0.000 A 
ATOM      9  C   UNL     1       1.850   5.408  19.908  0.00  0.00    +0.000 A 
ATOM     10  C   UNL     1       2.876   5.056  19.020  0.00  0.00    +0.000 A 
ATOM     11  C   UNL     1       3.676   6.110  18.379  0.00  0.00    +0.000 C 
ATOM     12  O   UNL     1       3.346   7.283  18.484  0.00  0.00    +0.000 OA
ENDROOT
BRANCH   1  13
ATOM     13  C   UNL     1       5.763   6.822  17.111  0.00  0.00    +0.000 C 
BRANCH  13  14
ATOM     14  C   UNL     1       7.052   6.982  17.928  0.00  0.00    +0.000 C 
BRANCH  14  15
ATOM     15  C   UNL     1       7.877   8.193  17.472  0.00  0.00    +0.000 C 
BRANCH  15  16
ATOM     16  C   UNL     1       8.553   8.967  18.608  0.00  0.00    +0.000 C 
BRANCH  16  17
ATOM     17  C   UNL     1       9.190  10.262  18.115  0.00  0.00    +0.000 C 
BRANCH  17  18
ATOM     18  C   UNL     1       9.006  11.399  19.107  0.00  0.00    +0.000 C 
BRANCH  18  19
ATOM     19  C   UNL     1       9.962  11.210  20.279  0.00  0.00    +0.000 C 
BRANCH  19  20
ATOM     20  C   UNL     1      11.276  11.931  20.022  0.00  0.00    +0.000 C 
BRANCH  20  21
ATOM     21  C   UNL     1      11.072  13.441  20.030  0.00  0.00    +0.000 C 
BRANCH  21  22
ATOM     22  C   UNL     1      10.259  13.857  21.248  0.00  0.00    +0.000 C 
BRANCH  22  24
ATOM     23  C   UNL     1       7.783  14.229  21.322  0.00  0.00    +0.000 C 
ATOM     24  C   UNL     1       9.116  14.786  20.853  0.00  0.00    +0.000 C 
ENDBRANCH  22  24
ENDBRANCH  21  22
ENDBRANCH  20  21
ENDBRANCH  19  20
ENDBRANCH  18  19
ENDBRANCH  17  18
ENDBRANCH  16  17
ENDBRANCH  15  16
ENDBRANCH  14  15
ENDBRANCH  13  14
ENDBRANCH   1  13
BRANCH   2  25
ATOM     25  O   UNL     1       6.112   4.065  16.385  0.00  0.00    +0.000 OA
BRANCH  25  26
ATOM     26  C   UNL     1       5.893   4.391  15.074  0.00  0.00    +0.000 C 
ATOM     27  C   UNL     1       7.177   4.881  14.464  0.00  0.00    +0.000 C 
ATOM     28  O   UNL     1       4.856   4.229  14.447  0.00  0.00    +0.000 OA
ENDBRANCH  25  26
ENDBRANCH   2  25
TORSDOF 13
ENDMDL
MODEL 5
REMARK VINA RESULT:      -6.1      3.635      8.719
REMARK  Name = 
REMARK  15 active torsions:
REMARK  status: ('A' for Active; 'I' for Inactive)
REMARK    1  A    between atoms: C_1  and  C_2
REMARK    2  A    between atoms: C_2  and  C_3
REMARK    3  A    between atoms: C_3  and  C_4
REMARK    4  A    between atoms: C_4  and  C_5
REMARK    5  A    between atoms: C_5  and  C_6
REMARK    6  A    between atoms: C_6  and  C_7
REMARK    7  A    between atoms: C_7  and  C_8
REMARK    8  A    between atoms: C_8  and  C_9
REMARK    9  A    between atoms: C_9  and  C_10
REMARK   10  A    between atoms: C_10  and  C_11
REMARK   11  A    between atoms: C_11  and  C_12
REMARK   12  A    between atoms: C_12  and  C_13
REMARK   13  A    between atoms: C_14  and  O_15
REMARK   14  A    between atoms: O_15  and  C_16
REMARK   15  A    between atoms: C_16  and  C_17
REMARK                            x       y       z     vdW  Elec       q    Type
REMARK                         _______ _______ _______ _____ _____    ______ ____
ROOT
ATOM      1  C   UNL     1       4.363   4.165  17.321  0.00  0.00    +0.000 C 
ATOM      2  C   UNL     1       5.176   3.952  18.367  0.00  0.00    +0.000 C 
ATOM      3  C   UNL     1       4.670   3.358  19.637  0.00  0.00    +0.000 C 
ATOM      4  O   UNL     1       5.432   2.920  20.488  0.00  0.00    +0.000 OA
ATOM      5  C   UNL     1       3.208   3.261  19.803  0.00  0.00    +0.000 A 
ATOM      6  C   UNL     1       2.665   2.955  21.055  0.00  0.00    +0.000 A 
ATOM      7  C   UNL     1       1.285   2.787  21.194  0.00  0.00    +0.000 A 
ATOM      8  C   UNL     1       0.448   2.899  20.084  0.00  0.00    +0.000 A 
ATOM      9  C   UNL     1       0.989   3.216  18.837  0.00  0.00    +0.000 A 
ATOM     10  C   UNL     1       2.370   3.412  18.702  0.00  0.00    +0.000 A 
ATOM     11  C   UNL     1       2.929   3.773  17.392  0.00  0.00    +0.000 C 
ATOM     12  O   UNL     1       2.225   3.740  16.392  0.00  0.00    +0.000 OA
ENDROOT
BRANCH   1  13
ATOM     13  C   UNL     1       4.846   4.697  15.997  0.00  0.00    +0.000 C 
BRANCH  13  14
ATOM     14  C   UNL     1       5.185   6.193  16.027  0.00  0.00    +0.000 C 
BRANCH  14  15
ATOM     15  C   UNL     1       3.987   7.047  16.466  0.00  0.00    +0.000 C 
BRANCH  15  16
ATOM     16  C   UNL     1       3.944   7.358  17.965  0.00  0.00    +0.000 C 
BRANCH  16  17
ATOM     17  C   UNL     1       2.514   7.497  18.477  0.00  0.00    +0.000 C 
BRANCH  17  18
ATOM     18  C   UNL     1       1.747   8.578  17.733  0.00  0.00    +0.000 C 
BRANCH  18  19
ATOM     19  C   UNL     1       1.361   9.687  18.705  0.00  0.00    +0.000 C 
BRANCH  19  20
ATOM     20  C   UNL     1      -0.077  10.124  18.478  0.00  0.00    +0.000 C 
BRANCH  20  21
ATOM     21  C   UNL     1      -0.712  10.585  19.784  0.00  0.00    +0.000 C 
BRANCH  21  22
ATOM     22  C   UNL     1       0.332  10.630  20.891  0.00  0.00    +0.000 C 
BRANCH  22  24
ATOM     23  C   UNL     1      -0.258   9.472  23.033  0.00  0.00    +0.000 C 
ATOM     24  C   UNL     1      -0.325  10.778  22.260  0.00  0.00    +0.000 C 
ENDBRANCH  22  24
ENDBRANCH  21  22
ENDBRANCH  20  21
ENDBRANCH  19  20
ENDBRANCH  18  19
ENDBRANCH  17  18
ENDBRANCH  16  17
ENDBRANCH  15  16
ENDBRANCH  14  15
ENDBRANCH  13  14
ENDBRANCH   1  13
BRANCH   2  25
ATOM     25  O   UNL     1       6.569   4.148  18.230  0.00  0.00    +0.000 OA
BRANCH  25  26
ATOM     26  C   UNL     1       7.079   5.237  18.885  0.00  0.00    +0.000 C 
ATOM     27  C   UNL     1       7.585   6.230  17.875  0.00  0.00    +0.000 C 
ATOM     28  O   UNL     1       7.052   5.439  20.090  0.00  0.00    +0.000 OA
ENDBRANCH  25  26
ENDBRANCH   2  25
TORSDOF 13
ENDMDL
MODEL 6
REMARK VINA RESULT:      -6.0      1.427      2.304
REMARK  Name = 
REMARK  15 active torsions:
REMARK  status: ('A' for Active; 'I' for Inactive)
REMARK    1  A    between atoms: C_1  and  C_2
REMARK    2  A    between atoms: C_2  and  C_3
REMARK    3  A    between atoms: C_3  and  C_4
REMARK    4  A    between atoms: C_4  and  C_5
REMARK    5  A    between atoms: C_5  and  C_6
REMARK    6  A    between atoms: C_6  and  C_7
REMARK    7  A    between atoms: C_7  and  C_8
REMARK    8  A    between atoms: C_8  and  C_9
REMARK    9  A    between atoms: C_9  and  C_10
REMARK   10  A    between atoms: C_10  and  C_11
REMARK   11  A    between atoms: C_11  and  C_12
REMARK   12  A    between atoms: C_12  and  C_13
REMARK   13  A    between atoms: C_14  and  O_15
REMARK   14  A    between atoms: O_15  and  C_16
REMARK   15  A    between atoms: C_16  and  C_17
REMARK                            x       y       z     vdW  Elec       q    Type
REMARK                         _______ _______ _______ _____ _____    ______ ____
ROOT
ATOM      1  C   UNL     1       0.563  10.098  21.350  0.00  0.00    +0.000 C 
ATOM      2  C   UNL     1       0.495  10.844  20.236  0.00  0.00    +0.000 C 
ATOM      3  C   UNL     1      -0.423  12.013  20.138  0.00  0.00    +0.000 C 
ATOM      4  O   UNL     1      -0.309  12.845  19.249  0.00  0.00    +0.000 OA
ATOM      5  C   UNL     1      -1.442  12.163  21.194  0.00  0.00    +0.000 A 
ATOM      6  C   UNL     1      -2.487  13.078  21.032  0.00  0.00    +0.000 A 
ATOM      7  C   UNL     1      -3.407  13.277  22.065  0.00  0.00    +0.000 A 
ATOM      8  C   UNL     1      -3.273  12.582  23.267  0.00  0.00    +0.000 A 
ATOM      9  C   UNL     1      -2.237  11.661  23.425  0.00  0.00    +0.000 A 
ATOM     10  C   UNL     1      -1.330  11.442  22.378  0.00  0.00    +0.000 A 
ATOM     11  C   UNL     1      -0.259  10.449  22.540  0.00  0.00    +0.000 C 
ATOM     12  O   UNL     1      -0.053   9.938  23.633  0.00  0.00    +0.000 OA
ENDROOT
BRANCH   1  13
ATOM     13  C   UNL     1       1.526   8.952  21.517  0.00  0.00    +0.000 C 
BRANCH  13  14
ATOM     14  C   UNL     1       0.922   7.588  21.160  0.00  0.00    +0.000 C 
BRANCH  14  15
ATOM     15  C   UNL     1       1.856   6.761  20.265  0.00  0.00    +0.000 C 
BRANCH  15  16
ATOM     16  C   UNL     1       2.072   5.318  20.732  0.00  0.00    +0.000 C 
BRANCH  16  17
ATOM     17  C   UNL     1       3.073   4.578  19.851  0.00  0.00    +0.000 C 
BRANCH  17  18
ATOM     18  C   UNL     1       3.495   5.409  18.650  0.00  0.00    +0.000 C 
BRANCH  18  19
ATOM     19  C   UNL     1       5.006   5.605  18.673  0.00  0.00    +0.000 C 
BRANCH  19  20
ATOM     20  C   UNL     1       5.444   6.549  17.566  0.00  0.00    +0.000 C 
BRANCH  20  21
ATOM     21  C   UNL     1       6.853   6.213  17.095  0.00  0.00    +0.000 C 
BRANCH  21  22
ATOM     22  C   UNL     1       6.912   4.777  16.592  0.00  0.00    +0.000 C 
BRANCH  22  24
ATOM     23  C   UNL     1       5.951   3.886  14.457  0.00  0.00    +0.000 C 
ATOM     24  C   UNL     1       7.050   4.732  15.074  0.00  0.00    +0.000 C 
ENDBRANCH  22  24
ENDBRANCH  21  22
ENDBRANCH  20  21
ENDBRANCH  19  20
ENDBRANCH  18  19
ENDBRANCH  17  18
ENDBRANCH  16  17
ENDBRANCH  15  16
ENDBRANCH  14  15
ENDBRANCH  13  14
ENDBRANCH   1  13
BRANCH   2  25
ATOM     25  O   UNL     1       1.411  10.623  19.183  0.00  0.00    +0.000 OA
BRANCH  25  26
ATOM     26  C   UNL     1       0.960   9.823  18.167  0.00  0.00    +0.000 C 
ATOM     27  C   UNL     1       2.094   8.967  17.672  0.00  0.00    +0.000 C 
ATOM     28  O   UNL     1      -0.192   9.729  17.772  0.00  0.00    +0.000 OA
ENDBRANCH  25  26
ENDBRANCH   2  25
TORSDOF 13
ENDMDL
MODEL 7
REMARK VINA RESULT:      -6.0      3.261      8.589
REMARK  Name = 
REMARK  15 active torsions:
REMARK  status: ('A' for Active; 'I' for Inactive)
REMARK    1  A    between atoms: C_1  and  C_2
REMARK    2  A    between atoms: C_2  and  C_3
REMARK    3  A    between atoms: C_3  and  C_4
REMARK    4  A    between atoms: C_4  and  C_5
REMARK    5  A    between atoms: C_5  and  C_6
REMARK    6  A    between atoms: C_6  and  C_7
REMARK    7  A    between atoms: C_7  and  C_8
REMARK    8  A    between atoms: C_8  and  C_9
REMARK    9  A    between atoms: C_9  and  C_10
REMARK   10  A    between atoms: C_10  and  C_11
REMARK   11  A    between atoms: C_11  and  C_12
REMARK   12  A    between atoms: C_12  and  C_13
REMARK   13  A    between atoms: C_14  and  O_15
REMARK   14  A    between atoms: O_15  and  C_16
REMARK   15  A    between atoms: C_16  and  C_17
REMARK                            x       y       z     vdW  Elec       q    Type
REMARK                         _______ _______ _______ _____ _____    ______ ____
ROOT
ATOM      1  C   UNL     1       3.444   6.534  18.210  0.00  0.00    +0.000 C 
ATOM      2  C   UNL     1       4.055   5.556  17.524  0.00  0.00    +0.000 C 
ATOM      3  C   UNL     1       3.975   4.133  17.959  0.00  0.00    +0.000 C 
ATOM      4  O   UNL     1       4.296   3.216  17.217  0.00  0.00    +0.000 OA
ATOM      5  C   UNL     1       3.434   3.868  19.305  0.00  0.00    +0.000 A 
ATOM      6  C   UNL     1       3.565   2.597  19.874  0.00  0.00    +0.000 A 
ATOM      7  C   UNL     1       2.984   2.324  21.115  0.00  0.00    +0.000 A 
ATOM      8  C   UNL     1       2.254   3.309  21.779  0.00  0.00    +0.000 A 
ATOM      9  C   UNL     1       2.133   4.581  21.218  0.00  0.00    +0.000 A 
ATOM     10  C   UNL     1       2.739   4.862  19.986  0.00  0.00    +0.000 A 
ATOM     11  C   UNL     1       2.632   6.212  19.414  0.00  0.00    +0.000 C 
ATOM     12  O   UNL     1       1.883   7.038  19.920  0.00  0.00    +0.000 OA
ENDROOT
BRANCH   1  13
ATOM     13  C   UNL     1       3.441   7.974  17.766  0.00  0.00    +0.000 C 
BRANCH  13  14
ATOM     14  C   UNL     1       2.032   8.564  17.615  0.00  0.00    +0.000 C 
BRANCH  14  15
ATOM     15  C   UNL     1       1.958  10.013  18.116  0.00  0.00    +0.000 C 
BRANCH  15  16
ATOM     16  C   UNL     1       0.543  10.503  18.438  0.00  0.00    +0.000 C 
BRANCH  16  17
ATOM     17  C   UNL     1       0.481  11.218  19.784  0.00  0.00    +0.000 C 
BRANCH  17  18
ATOM     18  C   UNL     1      -0.947  11.562  20.178  0.00  0.00    +0.000 C 
BRANCH  18  19
ATOM     19  C   UNL     1      -1.892  11.190  19.041  0.00  0.00    +0.000 C 
BRANCH  19  20
ATOM     20  C   UNL     1      -3.176  11.999  19.122  0.00  0.00    +0.000 C 
BRANCH  20  21
ATOM     21  C   UNL     1      -4.149  11.577  18.029  0.00  0.00    +0.000 C 
BRANCH  21  22
ATOM     22  C   UNL     1      -3.500  10.545  17.116  0.00  0.00    +0.000 C 
BRANCH  22  24
ATOM     23  C   UNL     1      -2.939   9.939  14.751  0.00  0.00    +0.000 C 
ATOM     24  C   UNL     1      -3.615  10.957  15.652  0.00  0.00    +0.000 C 
ENDBRANCH  22  24
ENDBRANCH  21  22
ENDBRANCH  20  21
ENDBRANCH  19  20
ENDBRANCH  18  19
ENDBRANCH  17  18
ENDBRANCH  16  17
ENDBRANCH  15  16
ENDBRANCH  14  15
ENDBRANCH  13  14
ENDBRANCH   1  13
BRANCH   2  25
ATOM     25  O   UNL     1       4.664   5.841  16.280  0.00  0.00    +0.000 OA
BRANCH  25  26
ATOM     26  C   UNL     1       6.020   6.026  16.316  0.00  0.00    +0.000 C 
ATOM     27  C   UNL     1       6.685   4.982  15.462  0.00  0.00    +0.000 C 
ATOM     28  O   UNL     1       6.615   6.942  16.865  0.00  0.00    +0.000 OA
ENDBRANCH  25  26
ENDBRANCH   2  25
TORSDOF 13
ENDMDL
MODEL 8
REMARK VINA RESULT:      -6.0      2.928      9.337
REMARK  Name = 
REMARK  15 active torsions:
REMARK  status: ('A' for Active; 'I' for Inactive)
REMARK    1  A    between atoms: C_1  and  C_2
REMARK    2  A    between atoms: C_2  and  C_3
REMARK    3  A    between atoms: C_3  and  C_4
REMARK    4  A    between atoms: C_4  and  C_5
REMARK    5  A    between atoms: C_5  and  C_6
REMARK    6  A    between atoms: C_6  and  C_7
REMARK    7  A    between atoms: C_7  and  C_8
REMARK    8  A    between atoms: C_8  and  C_9
REMARK    9  A    between atoms: C_9  and  C_10
REMARK   10  A    between atoms: C_10  and  C_11
REMARK   11  A    between atoms: C_11  and  C_12
REMARK   12  A    between atoms: C_12  and  C_13
REMARK   13  A    between atoms: C_14  and  O_15
REMARK   14  A    between atoms: O_15  and  C_16
REMARK   15  A    between atoms: C_16  and  C_17
REMARK                            x       y       z     vdW  Elec       q    Type
REMARK                         _______ _______ _______ _____ _____    ______ ____
ROOT
ATOM      1  C   UNL     1       3.242   6.315  18.008  0.00  0.00    +0.000 C 
ATOM      2  C   UNL     1       2.764   5.061  17.979  0.00  0.00    +0.000 C 
ATOM      3  C   UNL     1       3.516   3.957  17.318  0.00  0.00    +0.000 C 
ATOM      4  O   UNL     1       3.230   2.783  17.508  0.00  0.00    +0.000 OA
ATOM      5  C   UNL     1       4.663   4.334  16.470  0.00  0.00    +0.000 A 
ATOM      6  C   UNL     1       5.249   3.385  15.626  0.00  0.00    +0.000 A 
ATOM      7  C   UNL     1       6.383   3.720  14.882  0.00  0.00    +0.000 A 
ATOM      8  C   UNL     1       6.947   4.991  14.995  0.00  0.00    +0.000 A 
ATOM      9  C   UNL     1       6.355   5.941  15.829  0.00  0.00    +0.000 A 
ATOM     10  C   UNL     1       5.201   5.613  16.554  0.00  0.00    +0.000 A 
ATOM     11  C   UNL     1       4.566   6.628  17.407  0.00  0.00    +0.000 C 
ATOM     12  O   UNL     1       5.128   7.695  17.617  0.00  0.00    +0.000 OA
ENDROOT
BRANCH   1  13
ATOM     13  C   UNL     1       2.549   7.444  18.725  0.00  0.00    +0.000 C 
BRANCH  13  14
ATOM     14  C   UNL     1       1.875   8.447  17.779  0.00  0.00    +0.000 C 
BRANCH  14  15
ATOM     15  C   UNL     1       1.410   9.710  18.516  0.00  0.00    +0.000 C 
BRANCH  15  16
ATOM     16  C   UNL     1       0.856   9.458  19.923  0.00  0.00    +0.000 C 
BRANCH  16  17
ATOM     17  C   UNL     1       0.780  10.741  20.743  0.00  0.00    +0.000 C 
BRANCH  17  18
ATOM     18  C   UNL     1      -0.264  10.650  21.845  0.00  0.00    +0.000 C 
BRANCH  18  19
ATOM     19  C   UNL     1      -0.717  12.053  22.232  0.00  0.00    +0.000 C 
BRANCH  19  20
ATOM     20  C   UNL     1      -2.134  12.314  21.746  0.00  0.00    +0.000 C 
BRANCH  20  21
ATOM     21  C   UNL     1      -2.119  13.005  20.389  0.00  0.00    +0.000 C 
BRANCH  21  22
ATOM     22  C   UNL     1      -2.861  12.163  19.360  0.00  0.00    +0.000 C 
BRANCH  22  24
ATOM     23  C   UNL     1      -2.247  10.172  17.970  0.00  0.00    +0.000 C 
ATOM     24  C   UNL     1      -1.905  11.612  18.308  0.00  0.00    +0.000 C 
ENDBRANCH  22  24
ENDBRANCH  21  22
ENDBRANCH  20  21
ENDBRANCH  19  20
ENDBRANCH  18  19
ENDBRANCH  17  18
ENDBRANCH  16  17
ENDBRANCH  15  16
ENDBRANCH  14  15
ENDBRANCH  13  14
ENDBRANCH   1  13
BRANCH   2  25
ATOM     25  O   UNL     1       1.601   4.732  18.712  0.00  0.00    +0.000 OA
BRANCH  25  26
ATOM     26  C   UNL     1       1.818   4.228  19.966  0.00  0.00    +0.000 C 
ATOM     27  C   UNL     1       0.897   3.061  20.197  0.00  0.00    +0.000 C 
ATOM     28  O   UNL     1       2.681   4.585  20.755  0.00  0.00    +0.000 OA
ENDBRANCH  25  26
ENDBRANCH   2  25
TORSDOF 13
ENDMDL
MODEL 9
REMARK VINA RESULT:      -6.0      3.503      9.400
REMARK  Name = 
REMARK  15 active torsions:
REMARK  status: ('A' for Active; 'I' for Inactive)
REMARK    1  A    between atoms: C_1  and  C_2
REMARK    2  A    between atoms: C_2  and  C_3
REMARK    3  A    between atoms: C_3  and  C_4
REMARK    4  A    between atoms: C_4  and  C_5
REMARK    5  A    between atoms: C_5  and  C_6
REMARK    6  A    between atoms: C_6  and  C_7
REMARK    7  A    between atoms: C_7  and  C_8
REMARK    8  A    between atoms: C_8  and  C_9
REMARK    9  A    between atoms: C_9  and  C_10
REMARK   10  A    between atoms: C_10  and  C_11
REMARK   11  A    between atoms: C_11  and  C_12
REMARK   12  A    between atoms: C_12  and  C_13
REMARK   13  A    between atoms: C_14  and  O_15
REMARK   14  A    between atoms: O_15  and  C_16
REMARK   15  A    between atoms: C_16  and  C_17
REMARK                            x       y       z     vdW  Elec       q    Type
REMARK                         _______ _______ _______ _____ _____    ______ ____
ROOT
ATOM      1  C   UNL     1       2.641   6.205  18.103  0.00  0.00    +0.000 C 
ATOM      2  C   UNL     1       2.453   4.893  18.314  0.00  0.00    +0.000 C 
ATOM      3  C   UNL     1       3.428   3.878  17.823  0.00  0.00    +0.000 C 
ATOM      4  O   UNL     1       3.411   2.724  18.227  0.00  0.00    +0.000 OA
ATOM      5  C   UNL     1       4.459   4.336  16.873  0.00  0.00    +0.000 A 
ATOM      6  C   UNL     1       5.238   3.402  16.182  0.00  0.00    +0.000 A 
ATOM      7  C   UNL     1       6.266   3.836  15.341  0.00  0.00    +0.000 A 
ATOM      8  C   UNL     1       6.534   5.198  15.206  0.00  0.00    +0.000 A 
ATOM      9  C   UNL     1       5.750   6.131  15.886  0.00  0.00    +0.000 A 
ATOM     10  C   UNL     1       4.701   5.696  16.708  0.00  0.00    +0.000 A 
ATOM     11  C   UNL     1       3.861   6.685  17.398  0.00  0.00    +0.000 C 
ATOM     12  O   UNL     1       4.173   7.868  17.394  0.00  0.00    +0.000 OA
ENDROOT
BRANCH   1  13
ATOM     13  C   UNL     1       1.719   7.266  18.642  0.00  0.00    +0.000 C 
BRANCH  13  14
ATOM     14  C   UNL     1       2.028   7.668  20.090  0.00  0.00    +0.000 C 
BRANCH  14  15
ATOM     15  C   UNL     1       1.123   8.808  20.577  0.00  0.00    +0.000 C 
BRANCH  15  16
ATOM     16  C   UNL     1       0.927   9.941  19.565  0.00  0.00    +0.000 C 
BRANCH  16  17
ATOM     17  C   UNL     1      -0.546  10.173  19.248  0.00  0.00    +0.000 C 
BRANCH  17  18
ATOM     18  C   UNL     1      -0.855   9.941  17.778  0.00  0.00    +0.000 C 
BRANCH  18  19
ATOM     19  C   UNL     1      -2.365   9.885  17.578  0.00  0.00    +0.000 C 
BRANCH  19  20
ATOM     20  C   UNL     1      -2.720  10.062  16.111  0.00  0.00    +0.000 C 
BRANCH  20  21
ATOM     21  C   UNL     1      -3.888  11.027  15.952  0.00  0.00    +0.000 C 
BRANCH  21  22
ATOM     22  C   UNL     1      -4.383  11.485  17.317  0.00  0.00    +0.000 C 
BRANCH  22  24
ATOM     23  C   UNL     1      -6.783  11.612  18.024  0.00  0.00    +0.000 C 
ATOM     24  C   UNL     1      -5.689  12.262  17.195  0.00  0.00    +0.000 C 
ENDBRANCH  22  24
ENDBRANCH  21  22
ENDBRANCH  20  21
ENDBRANCH  19  20
ENDBRANCH  18  19
ENDBRANCH  17  18
ENDBRANCH  16  17
ENDBRANCH  15  16
ENDBRANCH  14  15
ENDBRANCH  13  14
ENDBRANCH   1  13
BRANCH   2  25
ATOM     25  O   UNL     1       1.396   4.456  19.145  0.00  0.00    +0.000 OA
BRANCH  25  26
ATOM     26  C   UNL     1       1.754   4.100  20.417  0.00  0.00    +0.000 C 
ATOM     27  C   UNL     1       1.038   2.833  20.796  0.00  0.00    +0.000 C 
ATOM     28  O   UNL     1       2.591   4.649  21.118  0.00  0.00    +0.000 OA
ENDBRANCH  25  26
ENDBRANCH   2  25
TORSDOF 13
ENDMDL
