MODEL 1
REMARK VINA RESULT:      -8.4      0.000      0.000
REMARK  Name = 
REMARK  10 active torsions:
REMARK  status: ('A' for Active; 'I' for Inactive)
REMARK    1  A    between atoms: C_2  and  C_20
REMARK    2  A    between atoms: N_3  and  C_4
REMARK    3  A    between atoms: C_4  and  C_5
REMARK    4  A    between atoms: C_9  and  C_10
REMARK    5  A    between atoms: C_10  and  O_11
REMARK    6  A    between atoms: C_10  and  C_12
REMARK    7  A    between atoms: C_12  and  C_13
REMARK    8  A    between atoms: C_13  and  C_14
REMARK    9  A    between atoms: C_23  and  O_24
REMARK   10  A    between atoms: O_24  and  C_25
REMARK                            x       y       z     vdW  Elec       q    Type
REMARK                         _______ _______ _______ _____ _____    ______ ____
ROOT
ATOM      1  C   UNL     1       2.661   6.563  19.623  0.00  0.00    +0.000 C 
ENDROOT
BRANCH   1   2
ATOM      2  C   UNL     1       2.126   5.127  19.678  0.00  0.00    +0.000 C 
ATOM      3  C   UNL     1       1.900   4.629  21.108  0.00  0.00    +0.000 C 
ATOM      4  C   UNL     1       1.865   3.110  21.012  0.00  0.00    +0.000 C 
ATOM      5  C   UNL     1       2.428   2.746  19.641  0.00  0.00    +0.000 C 
ATOM      6  C   UNL     1       3.023   4.036  19.051  0.00  0.00    +0.000 C 
BRANCH   6   7
ATOM      7  C   UNL     1       3.062   4.053  17.504  0.00  0.00    +0.000 C 
BRANCH   7   8
ATOM      8  O   UNL     1       2.018   3.228  16.973  0.00  0.00    +0.000 OA
ATOM      9  H   UNL     1       2.300   2.909  16.100  0.00  0.00    +0.000 HD
ENDBRANCH   7   8
BRANCH   7  10
ATOM     10  C   UNL     1       4.421   3.604  16.932  0.00  0.00    +0.000 C 
BRANCH  10  11
ATOM     11  C   UNL     1       5.132   4.721  16.157  0.00  0.00    +0.000 C 
BRANCH  11  12
ATOM     12  C   UNL     1       6.143   5.459  17.008  0.00  0.00    +0.000 A 
ATOM     13  C   UNL     1       6.424   6.813  16.772  0.00  0.00    +0.000 A 
ATOM     14  C   UNL     1       7.353   7.497  17.561  0.00  0.00    +0.000 A 
ATOM     15  C   UNL     1       8.013   6.832  18.591  0.00  0.00    +0.000 A 
ATOM     16  C   UNL     1       7.747   5.485  18.832  0.00  0.00    +0.000 A 
ATOM     17  C   UNL     1       6.819   4.800  18.044  0.00  0.00    +0.000 A 
ENDBRANCH  11  12
ENDBRANCH  10  11
ENDBRANCH   7  10
ENDBRANCH   6   7
ENDBRANCH   1   2
BRANCH   1  20
ATOM     18  O   UNL     1       1.561   9.042  18.856  0.00  0.00    +0.000 OA
ATOM     19  C   UNL     1       1.423   8.670  20.019  0.00  0.00    +0.000 C 
ATOM     20  N   UNL     1       1.960   7.496  20.495  0.00  0.00    +0.000 N 
ATOM     21  H   UNL     1       1.840   7.239  21.464  0.00  0.00    +0.000 HD
BRANCH  19  22
ATOM     22  C   UNL     1       0.673   9.534  20.979  0.00  0.00    +0.000 A 
ATOM     23  C   UNL     1       0.111   9.071  22.174  0.00  0.00    +0.000 A 
ATOM     24  C   UNL     1      -0.575   9.963  23.011  0.00  0.00    +0.000 A 
ATOM     25  C   UNL     1      -0.707  11.317  22.674  0.00  0.00    +0.000 A 
ATOM     26  C   UNL     1      -0.202  11.762  21.457  0.00  0.00    +0.000 A 
ATOM     27  C   UNL     1       0.496  10.878  20.626  0.00  0.00    +0.000 A 
BRANCH  25  28
ATOM     28  O   UNL     1      -1.393  12.068  23.578  0.00  0.00    +0.000 OA
BRANCH  28  29
ATOM     29  C   UNL     1      -2.577  12.746  23.177  0.00  0.00    +0.000 C 
ATOM     30  F   UNL     1      -2.365  13.955  22.619  0.00  0.00    +0.000 F 
ATOM     31  F   UNL     1      -3.261  11.975  22.302  0.00  0.00    +0.000 F 
ATOM     32  F   UNL     1      -3.352  12.929  24.270  0.00  0.00    +0.000 F 
ENDBRANCH  28  29
ENDBRANCH  25  28
ENDBRANCH  19  22
ENDBRANCH   1  20
TORSDOF 10
ENDMDL
MODEL 2
REMARK VINA RESULT:      -8.1      1.298      1.983
REMARK  Name = 
REMARK  10 active torsions:
REMARK  status: ('A' for Active; 'I' for Inactive)
REMARK    1  A    between atoms: C_2  and  C_20
REMARK    2  A    between atoms: N_3  and  C_4
REMARK    3  A    between atoms: C_4  and  C_5
REMARK    4  A    between atoms: C_9  and  C_10
REMARK    5  A    between atoms: C_10  and  O_11
REMARK    6  A    between atoms: C_10  and  C_12
REMARK    7  A    between atoms: C_12  and  C_13
REMARK    8  A    between atoms: C_13  and  C_14
REMARK    9  A    between atoms: C_23  and  O_24
REMARK   10  A    between atoms: O_24  and  C_25
REMARK                            x       y       z     vdW  Elec       q    Type
REMARK                         _______ _______ _______ _____ _____    ______ ____
ROOT
ATOM      1  C   UNL     1       2.964   6.007  19.567  0.00  0.00    +0.000 C 
ENDROOT
BRANCH   1   2
ATOM      2  C   UNL     1       2.125   4.733  19.726  0.00  0.00    +0.000 C 
ATOM      3  C   UNL     1       1.751   4.445  21.182  0.00  0.00    +0.000 C 
ATOM      4  C   UNL     1       1.385   2.968  21.227  0.00  0.00    +0.000 C 
ATOM      5  C   UNL     1       1.897   2.352  19.927  0.00  0.00    +0.000 C 
ATOM      6  C   UNL     1       2.779   3.416  19.251  0.00  0.00    +0.000 C 
BRANCH   6   7
ATOM      7  C   UNL     1       2.868   3.267  17.713  0.00  0.00    +0.000 C 
BRANCH   7   8
ATOM      8  O   UNL     1       2.306   2.015  17.304  0.00  0.00    +0.000 OA
ATOM      9  H   UNL     1       1.822   2.157  16.474  0.00  0.00    +0.000 HD
ENDBRANCH   7   8
BRANCH   7  10
ATOM     10  C   UNL     1       4.310   3.387  17.182  0.00  0.00    +0.000 C 
BRANCH  10  11
ATOM     11  C   UNL     1       4.591   4.754  16.543  0.00  0.00    +0.000 C 
BRANCH  11  12
ATOM     12  C   UNL     1       5.754   5.467  17.198  0.00  0.00    +0.000 A 
ATOM     13  C   UNL     1       6.516   4.832  18.190  0.00  0.00    +0.000 A 
ATOM     14  C   UNL     1       7.593   5.488  18.792  0.00  0.00    +0.000 A 
ATOM     15  C   UNL     1       7.916   6.787  18.411  0.00  0.00    +0.000 A 
ATOM     16  C   UNL     1       7.164   7.432  17.431  0.00  0.00    +0.000 A 
ATOM     17  C   UNL     1       6.086   6.778  16.829  0.00  0.00    +0.000 A 
ENDBRANCH  11  12
ENDBRANCH  10  11
ENDBRANCH   7  10
ENDBRANCH   6   7
ENDBRANCH   1   2
BRANCH   1  20
ATOM     18  O   UNL     1       2.443   8.139  17.798  0.00  0.00    +0.000 OA
ATOM     19  C   UNL     1       2.014   8.208  18.948  0.00  0.00    +0.000 C 
ATOM     20  N   UNL     1       2.254   7.236  19.892  0.00  0.00    +0.000 N 
ATOM     21  H   UNL     1       1.900   7.343  20.831  0.00  0.00    +0.000 HD
BRANCH  19  22
ATOM     22  C   UNL     1       1.228   9.407  19.364  0.00  0.00    +0.000 A 
ATOM     23  C   UNL     1       1.104  10.568  18.593  0.00  0.00    +0.000 A 
ATOM     24  C   UNL     1       0.341  11.643  19.072  0.00  0.00    +0.000 A 
ATOM     25  C   UNL     1      -0.307  11.575  20.313  0.00  0.00    +0.000 A 
ATOM     26  C   UNL     1      -0.132  10.446  21.105  0.00  0.00    +0.000 A 
ATOM     27  C   UNL     1       0.617   9.365  20.624  0.00  0.00    +0.000 A 
BRANCH  25  28
ATOM     28  O   UNL     1      -1.014  12.688  20.650  0.00  0.00    +0.000 OA
BRANCH  28  29
ATOM     29  C   UNL     1      -2.433  12.673  20.568  0.00  0.00    +0.000 C 
ATOM     30  F   UNL     1      -2.991  13.878  20.331  0.00  0.00    +0.000 F 
ATOM     31  F   UNL     1      -2.817  11.816  19.596  0.00  0.00    +0.000 F 
ATOM     32  F   UNL     1      -2.922  12.220  21.744  0.00  0.00    +0.000 F 
ENDBRANCH  28  29
ENDBRANCH  25  28
ENDBRANCH  19  22
ENDBRANCH   1  20
TORSDOF 10
ENDMDL
MODEL 3
REMARK VINA RESULT:      -8.0      5.013      9.918
REMARK  Name = 
REMARK  10 active torsions:
REMARK  status: ('A' for Active; 'I' for Inactive)
REMARK    1  A    between atoms: C_2  and  C_20
REMARK    2  A    between atoms: N_3  and  C_4
REMARK    3  A    between atoms: C_4  and  C_5
REMARK    4  A    between atoms: C_9  and  C_10
REMARK    5  A    between atoms: C_10  and  O_11
REMARK    6  A    between atoms: C_10  and  C_12
REMARK    7  A    between atoms: C_12  and  C_13
REMARK    8  A    between atoms: C_13  and  C_14
REMARK    9  A    between atoms: C_23  and  O_24
REMARK   10  A    between atoms: O_24  and  C_25
REMARK                            x       y       z     vdW  Elec       q    Type
REMARK                         _______ _______ _______ _____ _____    ______ ____
ROOT
ATOM      1  C   UNL     1       1.187  11.529  18.716  0.00  0.00    +0.000 C 
ENDROOT
BRANCH   1   2
ATOM      2  C   UNL     1      -0.177  12.164  19.014  0.00  0.00    +0.000 C 
ATOM      3  C   UNL     1      -0.260  12.763  20.421  0.00  0.00    +0.000 C 
ATOM      4  C   UNL     1      -1.746  12.885  20.727  0.00  0.00    +0.000 C 
ATOM      5  C   UNL     1      -2.477  12.038  19.689  0.00  0.00    +0.000 C 
ATOM      6  C   UNL     1      -1.402  11.226  18.945  0.00  0.00    +0.000 C 
BRANCH   6   7
ATOM      7  C   UNL     1      -1.812  10.816  17.510  0.00  0.00    +0.000 C 
BRANCH   7   8
ATOM      8  O   UNL     1      -1.806  11.960  16.648  0.00  0.00    +0.000 OA
ATOM      9  H   UNL     1      -2.465  11.814  15.949  0.00  0.00    +0.000 HD
ENDBRANCH   7   8
BRANCH   7  10
ATOM     10  C   UNL     1      -3.191  10.129  17.453  0.00  0.00    +0.000 C 
BRANCH  10  11
ATOM     11  C   UNL     1      -4.199  10.904  16.594  0.00  0.00    +0.000 C 
BRANCH  11  12
ATOM     12  C   UNL     1      -5.356  11.442  17.408  0.00  0.00    +0.000 A 
ATOM     13  C   UNL     1      -5.840  10.733  18.519  0.00  0.00    +0.000 A 
ATOM     14  C   UNL     1      -6.905  11.230  19.274  0.00  0.00    +0.000 A 
ATOM     15  C   UNL     1      -7.499  12.440  18.925  0.00  0.00    +0.000 A 
ATOM     16  C   UNL     1      -7.032  13.152  17.821  0.00  0.00    +0.000 A 
ATOM     17  C   UNL     1      -5.968  12.654  17.064  0.00  0.00    +0.000 A 
ENDBRANCH  11  12
ENDBRANCH  10  11
ENDBRANCH   7  10
ENDBRANCH   6   7
ENDBRANCH   1   2
BRANCH   1  20
ATOM     18  O   UNL     1       2.143   9.334  17.228  0.00  0.00    +0.000 OA
ATOM     19  C   UNL     1       1.843   9.162  18.408  0.00  0.00    +0.000 C 
ATOM     20  N   UNL     1       1.330  10.163  19.200  0.00  0.00    +0.000 N 
ATOM     21  H   UNL     1       1.078   9.972  20.159  0.00  0.00    +0.000 HD
BRANCH  19  22
ATOM     22  C   UNL     1       2.004   7.806  19.012  0.00  0.00    +0.000 A 
ATOM     23  C   UNL     1       1.696   7.501  20.343  0.00  0.00    +0.000 A 
ATOM     24  C   UNL     1       1.882   6.194  20.817  0.00  0.00    +0.000 A 
ATOM     25  C   UNL     1       2.368   5.182  19.980  0.00  0.00    +0.000 A 
ATOM     26  C   UNL     1       2.733   5.501  18.676  0.00  0.00    +0.000 A 
ATOM     27  C   UNL     1       2.535   6.801  18.195  0.00  0.00    +0.000 A 
BRANCH  25  28
ATOM     28  O   UNL     1       2.496   3.963  20.571  0.00  0.00    +0.000 OA
BRANCH  28  29
ATOM     29  C   UNL     1       1.409   3.046  20.537  0.00  0.00    +0.000 C 
ATOM     30  F   UNL     1       0.292   3.526  19.953  0.00  0.00    +0.000 F 
ATOM     31  F   UNL     1       1.791   1.922  19.892  0.00  0.00    +0.000 F 
ATOM     32  F   UNL     1       1.095   2.714  21.809  0.00  0.00    +0.000 F 
ENDBRANCH  28  29
ENDBRANCH  25  28
ENDBRANCH  19  22
ENDBRANCH   1  20
TORSDOF 10
ENDMDL
MODEL 4
REMARK VINA RESULT:      -8.0      1.203      1.715
REMARK  Name = 
REMARK  10 active torsions:
REMARK  status: ('A' for Active; 'I' for Inactive)
REMARK    1  A    between atoms: C_2  and  C_20
REMARK    2  A    between atoms: N_3  and  C_4
REMARK    3  A    between atoms: C_4  and  C_5
REMARK    4  A    between atoms: C_9  and  C_10
REMARK    5  A    between atoms: C_10  and  O_11
REMARK    6  A    between atoms: C_10  and  C_12
REMARK    7  A    between atoms: C_12  and  C_13
REMARK    8  A    between atoms: C_13  and  C_14
REMARK    9  A    between atoms: C_23  and  O_24
REMARK   10  A    between atoms: O_24  and  C_25
REMARK                            x       y       z     vdW  Elec       q    Type
REMARK                         _______ _______ _______ _____ _____    ______ ____
ROOT
ATOM      1  C   UNL     1       2.799   6.165  19.401  0.00  0.00    +0.000 C 
ENDROOT
BRANCH   1   2
ATOM      2  C   UNL     1       2.083   4.831  19.643  0.00  0.00    +0.000 C 
ATOM      3  C   UNL     1       1.777   4.579  21.122  0.00  0.00    +0.000 C 
ATOM      4  C   UNL     1       1.548   3.079  21.243  0.00  0.00    +0.000 C 
ATOM      5  C   UNL     1       2.075   2.451  19.956  0.00  0.00    +0.000 C 
ATOM      6  C   UNL     1       2.838   3.556  19.206  0.00  0.00    +0.000 C 
BRANCH   6   7
ATOM      7  C   UNL     1       2.897   3.344  17.674  0.00  0.00    +0.000 C 
BRANCH   7   8
ATOM      8  O   UNL     1       2.351   2.065  17.330  0.00  0.00    +0.000 OA
ATOM      9  H   UNL     1       1.575   1.906  17.894  0.00  0.00    +0.000 HD
ENDBRANCH   7   8
BRANCH   7  10
ATOM     10  C   UNL     1       4.324   3.469  17.105  0.00  0.00    +0.000 C 
BRANCH  10  11
ATOM     11  C   UNL     1       4.634   4.885  16.599  0.00  0.00    +0.000 C 
BRANCH  11  12
ATOM     12  C   UNL     1       5.802   5.513  17.329  0.00  0.00    +0.000 A 
ATOM     13  C   UNL     1       6.468   6.624  16.791  0.00  0.00    +0.000 A 
ATOM     14  C   UNL     1       7.544   7.208  17.466  0.00  0.00    +0.000 A 
ATOM     15  C   UNL     1       7.965   6.684  18.686  0.00  0.00    +0.000 A 
ATOM     16  C   UNL     1       7.315   5.577  19.229  0.00  0.00    +0.000 A 
ATOM     17  C   UNL     1       6.240   4.992  18.554  0.00  0.00    +0.000 A 
ENDBRANCH  11  12
ENDBRANCH  10  11
ENDBRANCH   7  10
ENDBRANCH   6   7
ENDBRANCH   1   2
BRANCH   1  20
ATOM     18  O   UNL     1       2.253   8.478  17.886  0.00  0.00    +0.000 OA
ATOM     19  C   UNL     1       1.809   8.404  19.029  0.00  0.00    +0.000 C 
ATOM     20  N   UNL     1       2.059   7.333  19.857  0.00  0.00    +0.000 N 
ATOM     21  H   UNL     1       1.691   7.323  20.798  0.00  0.00    +0.000 HD
BRANCH  19  22
ATOM     22  C   UNL     1       0.993   9.530  19.571  0.00  0.00    +0.000 A 
ATOM     23  C   UNL     1       0.706  10.701  18.861  0.00  0.00    +0.000 A 
ATOM     24  C   UNL     1      -0.072  11.704  19.459  0.00  0.00    +0.000 A 
ATOM     25  C   UNL     1      -0.575  11.553  20.758  0.00  0.00    +0.000 A 
ATOM     26  C   UNL     1      -0.237  10.416  21.485  0.00  0.00    +0.000 A 
ATOM     27  C   UNL     1       0.527   9.407  20.887  0.00  0.00    +0.000 A 
BRANCH  25  28
ATOM     28  O   UNL     1      -1.315  12.601  21.210  0.00  0.00    +0.000 OA
BRANCH  28  29
ATOM     29  C   UNL     1      -0.796  13.443  22.232  0.00  0.00    +0.000 C 
ATOM     30  F   UNL     1      -1.327  14.682  22.257  0.00  0.00    +0.000 F 
ATOM     31  F   UNL     1      -0.990  12.860  23.435  0.00  0.00    +0.000 F 
ATOM     32  F   UNL     1       0.536  13.572  22.038  0.00  0.00    +0.000 F 
ENDBRANCH  28  29
ENDBRANCH  25  28
ENDBRANCH  19  22
ENDBRANCH   1  20
TORSDOF 10
ENDMDL
MODEL 5
REMARK VINA RESULT:      -7.8      3.117      5.042
REMARK  Name = 
REMARK  10 active torsions:
REMARK  status: ('A' for Active; 'I' for Inactive)
REMARK    1  A    between atoms: C_2  and  C_20
REMARK    2  A    between atoms: N_3  and  C_4
REMARK    3  A    between atoms: C_4  and  C_5
REMARK    4  A    between atoms: C_9  and  C_10
REMARK    5  A    between atoms: C_10  and  O_11
REMARK    6  A    between atoms: C_10  and  C_12
REMARK    7  A    between atoms: C_12  and  C_13
REMARK    8  A    between atoms: C_13  and  C_14
REMARK    9  A    between atoms: C_23  and  O_24
REMARK   10  A    between atoms: O_24  and  C_25
REMARK                            x       y       z     vdW  Elec       q    Type
REMARK                         _______ _______ _______ _____ _____    ______ ____
ROOT
ATOM      1  C   UNL     1       4.262   4.756  17.963  0.00  0.00    +0.000 C 
ENDROOT
BRANCH   1   2
ATOM      2  C   UNL     1       5.779   4.978  17.990  0.00  0.00    +0.000 C 
ATOM      3  C   UNL     1       6.336   5.108  19.410  0.00  0.00    +0.000 C 
ATOM      4  C   UNL     1       7.684   5.798  19.259  0.00  0.00    +0.000 C 
ATOM      5  C   UNL     1       7.723   6.379  17.848  0.00  0.00    +0.000 C 
ATOM      6  C   UNL     1       6.301   6.245  17.277  0.00  0.00    +0.000 C 
BRANCH   6   7
ATOM      7  C   UNL     1       6.254   6.172  15.731  0.00  0.00    +0.000 C 
BRANCH   7   8
ATOM      8  O   UNL     1       5.037   6.752  15.246  0.00  0.00    +0.000 OA
ATOM      9  H   UNL     1       5.188   7.703  15.113  0.00  0.00    +0.000 HD
ENDBRANCH   7   8
BRANCH   7  10
ATOM     10  C   UNL     1       6.393   4.734  15.194  0.00  0.00    +0.000 C 
BRANCH  10  11
ATOM     11  C   UNL     1       7.085   4.681  13.825  0.00  0.00    +0.000 C 
BRANCH  11  12
ATOM     12  C   UNL     1       6.341   3.808  12.838  0.00  0.00    +0.000 A 
ATOM     13  C   UNL     1       4.969   3.994  12.610  0.00  0.00    +0.000 A 
ATOM     14  C   UNL     1       4.282   3.191  11.695  0.00  0.00    +0.000 A 
ATOM     15  C   UNL     1       4.960   2.192  11.002  0.00  0.00    +0.000 A 
ATOM     16  C   UNL     1       6.322   1.993  11.222  0.00  0.00    +0.000 A 
ATOM     17  C   UNL     1       7.009   2.795  12.137  0.00  0.00    +0.000 A 
ENDBRANCH  11  12
ENDBRANCH  10  11
ENDBRANCH   7  10
ENDBRANCH   6   7
ENDBRANCH   1   2
BRANCH   1  20
ATOM     18  O   UNL     1       2.845   5.674  20.220  0.00  0.00    +0.000 OA
ATOM     19  C   UNL     1       2.847   6.365  19.203  0.00  0.00    +0.000 C 
ATOM     20  N   UNL     1       3.476   5.978  18.041  0.00  0.00    +0.000 N 
ATOM     21  H   UNL     1       3.434   6.568  17.223  0.00  0.00    +0.000 HD
BRANCH  19  22
ATOM     22  C   UNL     1       2.112   7.664  19.201  0.00  0.00    +0.000 A 
ATOM     23  C   UNL     1       1.459   8.197  20.318  0.00  0.00    +0.000 A 
ATOM     24  C   UNL     1       0.795   9.428  20.215  0.00  0.00    +0.000 A 
ATOM     25  C   UNL     1       0.775  10.141  19.009  0.00  0.00    +0.000 A 
ATOM     26  C   UNL     1       1.370   9.581  17.883  0.00  0.00    +0.000 A 
ATOM     27  C   UNL     1       2.047   8.360  17.986  0.00  0.00    +0.000 A 
BRANCH  25  28
ATOM     28  O   UNL     1       0.097  11.320  19.052  0.00  0.00    +0.000 OA
BRANCH  28  29
ATOM     29  C   UNL     1      -1.304  11.337  18.807  0.00  0.00    +0.000 C 
ATOM     30  F   UNL     1      -2.057  11.596  19.896  0.00  0.00    +0.000 F 
ATOM     31  F   UNL     1      -1.581  12.256  17.856  0.00  0.00    +0.000 F 
ATOM     32  F   UNL     1      -1.666  10.123  18.337  0.00  0.00    +0.000 F 
ENDBRANCH  28  29
ENDBRANCH  25  28
ENDBRANCH  19  22
ENDBRANCH   1  20
TORSDOF 10
ENDMDL
MODEL 6
REMARK VINA RESULT:      -7.8      2.205      3.002
REMARK  Name = 
REMARK  10 active torsions:
REMARK  status: ('A' for Active; 'I' for Inactive)
REMARK    1  A    between atoms: C_2  and  C_20
REMARK    2  A    between atoms: N_3  and  C_4
REMARK    3  A    between atoms: C_4  and  C_5
REMARK    4  A    between atoms: C_9  and  C_10
REMARK    5  A    between atoms: C_10  and  O_11
REMARK    6  A    between atoms: C_10  and  C_12
REMARK    7  A    between atoms: C_12  and  C_13
REMARK    8  A    between atoms: C_13  and  C_14
REMARK    9  A    between atoms: C_23  and  O_24
REMARK   10  A    between atoms: O_24  and  C_25
REMARK                            x       y       z     vdW  Elec       q    Type
REMARK                         _______ _______ _______ _____ _____    ______ ____
ROOT
ATOM      1  C   UNL     1       3.375   6.739  17.675  0.00  0.00    +0.000 C 
ENDROOT
BRANCH   1   2
ATOM      2  C   UNL     1       3.171   5.219  17.654  0.00  0.00    +0.000 C 
ATOM      3  C   UNL     1       1.726   4.808  17.948  0.00  0.00    +0.000 C 
ATOM      4  C   UNL     1       1.794   3.349  18.375  0.00  0.00    +0.000 C 
ATOM      5  C   UNL     1       3.260   3.050  18.678  0.00  0.00    +0.000 C 
ATOM      6  C   UNL     1       3.996   4.401  18.672  0.00  0.00    +0.000 C 
BRANCH   6   7
ATOM      7  C   UNL     1       5.501   4.289  18.330  0.00  0.00    +0.000 C 
BRANCH   7   8
ATOM      8  O   UNL     1       6.280   5.038  19.271  0.00  0.00    +0.000 OA
ATOM      9  H   UNL     1       6.170   5.983  19.070  0.00  0.00    +0.000 HD
ENDBRANCH   7   8
BRANCH   7  10
ATOM     10  C   UNL     1       5.828   4.757  16.898  0.00  0.00    +0.000 C 
BRANCH  10  11
ATOM     11  C   UNL     1       5.570   3.666  15.849  0.00  0.00    +0.000 C 
BRANCH  11  12
ATOM     12  C   UNL     1       6.194   3.996  14.510  0.00  0.00    +0.000 A 
ATOM     13  C   UNL     1       7.200   4.969  14.410  0.00  0.00    +0.000 A 
ATOM     14  C   UNL     1       7.781   5.271  13.175  0.00  0.00    +0.000 A 
ATOM     15  C   UNL     1       7.358   4.606  12.028  0.00  0.00    +0.000 A 
ATOM     16  C   UNL     1       6.355   3.641  12.112  0.00  0.00    +0.000 A 
ATOM     17  C   UNL     1       5.774   3.339  13.346  0.00  0.00    +0.000 A 
ENDBRANCH  11  12
ENDBRANCH  10  11
ENDBRANCH   7  10
ENDBRANCH   6   7
ENDBRANCH   1   2
BRANCH   1  20
ATOM     18  O   UNL     1       1.854   9.108  17.524  0.00  0.00    +0.000 OA
ATOM     19  C   UNL     1       1.973   8.551  18.613  0.00  0.00    +0.000 C 
ATOM     20  N   UNL     1       2.729   7.415  18.791  0.00  0.00    +0.000 N 
ATOM     21  H   UNL     1       2.816   7.002  19.708  0.00  0.00    +0.000 HD
BRANCH  19  22
ATOM     22  C   UNL     1       1.304   9.138  19.812  0.00  0.00    +0.000 A 
ATOM     23  C   UNL     1       0.827   8.385  20.890  0.00  0.00    +0.000 A 
ATOM     24  C   UNL     1       0.212   9.032  21.972  0.00  0.00    +0.000 A 
ATOM     25  C   UNL     1       0.068  10.425  21.997  0.00  0.00    +0.000 A 
ATOM     26  C   UNL     1       0.486  11.167  20.896  0.00  0.00    +0.000 A 
ATOM     27  C   UNL     1       1.113  10.526  19.821  0.00  0.00    +0.000 A 
BRANCH  25  28
ATOM     28  O   UNL     1      -0.543  10.918  23.108  0.00  0.00    +0.000 OA
BRANCH  28  29
ATOM     29  C   UNL     1      -1.663  11.784  22.971  0.00  0.00    +0.000 C 
ATOM     30  F   UNL     1      -2.140  11.884  21.713  0.00  0.00    +0.000 F 
ATOM     31  F   UNL     1      -2.658  11.362  23.783  0.00  0.00    +0.000 F 
ATOM     32  F   UNL     1      -1.293  13.022  23.368  0.00  0.00    +0.000 F 
ENDBRANCH  28  29
ENDBRANCH  25  28
ENDBRANCH  19  22
ENDBRANCH   1  20
TORSDOF 10
ENDMDL
MODEL 7
REMARK VINA RESULT:      -7.8      1.058      1.487
REMARK  Name = 
REMARK  10 active torsions:
REMARK  status: ('A' for Active; 'I' for Inactive)
REMARK    1  A    between atoms: C_2  and  C_20
REMARK    2  A    between atoms: N_3  and  C_4
REMARK    3  A    between atoms: C_4  and  C_5
REMARK    4  A    between atoms: C_9  and  C_10
REMARK    5  A    between atoms: C_10  and  O_11
REMARK    6  A    between atoms: C_10  and  C_12
REMARK    7  A    between atoms: C_12  and  C_13
REMARK    8  A    between atoms: C_13  and  C_14
REMARK    9  A    between atoms: C_23  and  O_24
REMARK   10  A    between atoms: O_24  and  C_25
REMARK                            x       y       z     vdW  Elec       q    Type
REMARK                         _______ _______ _______ _____ _____    ______ ____
ROOT
ATOM      1  C   UNL     1       2.603   6.203  19.212  0.00  0.00    +0.000 C 
ENDROOT
BRANCH   1   2
ATOM      2  C   UNL     1       2.157   4.760  19.480  0.00  0.00    +0.000 C 
ATOM      3  C   UNL     1       1.145   4.654  20.624  0.00  0.00    +0.000 C 
ATOM      4  C   UNL     1       1.192   3.201  21.078  0.00  0.00    +0.000 C 
ATOM      5  C   UNL     1       2.454   2.594  20.471  0.00  0.00    +0.000 C 
ATOM      6  C   UNL     1       3.265   3.761  19.880  0.00  0.00    +0.000 C 
BRANCH   6   7
ATOM      7  C   UNL     1       4.199   3.346  18.718  0.00  0.00    +0.000 C 
BRANCH   7   8
ATOM      8  O   UNL     1       5.470   2.928  19.230  0.00  0.00    +0.000 OA
ATOM      9  H   UNL     1       5.834   2.260  18.626  0.00  0.00    +0.000 HD
ENDBRANCH   7   8
BRANCH   7  10
ATOM     10  C   UNL     1       4.401   4.467  17.680  0.00  0.00    +0.000 C 
BRANCH  10  11
ATOM     11  C   UNL     1       5.810   4.460  17.072  0.00  0.00    +0.000 C 
BRANCH  11  12
ATOM     12  C   UNL     1       6.645   5.632  17.540  0.00  0.00    +0.000 A 
ATOM     13  C   UNL     1       6.576   6.869  16.881  0.00  0.00    +0.000 A 
ATOM     14  C   UNL     1       7.343   7.954  17.315  0.00  0.00    +0.000 A 
ATOM     15  C   UNL     1       8.189   7.811  18.411  0.00  0.00    +0.000 A 
ATOM     16  C   UNL     1       8.271   6.587  19.073  0.00  0.00    +0.000 A 
ATOM     17  C   UNL     1       7.506   5.502  18.638  0.00  0.00    +0.000 A 
ENDBRANCH  11  12
ENDBRANCH  10  11
ENDBRANCH   7  10
ENDBRANCH   6   7
ENDBRANCH   1   2
BRANCH   1  20
ATOM     18  O   UNL     1       1.971   8.857  18.505  0.00  0.00    +0.000 OA
ATOM     19  C   UNL     1       1.673   8.459  19.629  0.00  0.00    +0.000 C 
ATOM     20  N   UNL     1       1.979   7.193  20.077  0.00  0.00    +0.000 N 
ATOM     21  H   UNL     1       1.733   6.915  21.016  0.00  0.00    +0.000 HD
BRANCH  19  22
ATOM     22  C   UNL     1       0.981   9.385  20.573  0.00  0.00    +0.000 A 
ATOM     23  C   UNL     1       0.977  10.778  20.441  0.00  0.00    +0.000 A 
ATOM     24  C   UNL     1       0.296  11.565  21.382  0.00  0.00    +0.000 A 
ATOM     25  C   UNL     1      -0.387  10.979  22.456  0.00  0.00    +0.000 A 
ATOM     26  C   UNL     1      -0.329   9.599  22.622  0.00  0.00    +0.000 A 
ATOM     27  C   UNL     1       0.337   8.810  21.676  0.00  0.00    +0.000 A 
BRANCH  25  28
ATOM     28  O   UNL     1      -1.006  11.859  23.289  0.00  0.00    +0.000 OA
BRANCH  28  29
ATOM     29  C   UNL     1      -2.325  12.301  22.995  0.00  0.00    +0.000 C 
ATOM     30  F   UNL     1      -2.705  12.109  21.715  0.00  0.00    +0.000 F 
ATOM     31  F   UNL     1      -3.200  11.672  23.809  0.00  0.00    +0.000 F 
ATOM     32  F   UNL     1      -2.394  13.627  23.248  0.00  0.00    +0.000 F 
ENDBRANCH  28  29
ENDBRANCH  25  28
ENDBRANCH  19  22
ENDBRANCH   1  20
TORSDOF 10
ENDMDL
MODEL 8
REMARK VINA RESULT:      -7.7      1.776      4.295
REMARK  Name = 
REMARK  10 active torsions:
REMARK  status: ('A' for Active; 'I' for Inactive)
REMARK    1  A    between atoms: C_2  and  C_20
REMARK    2  A    between atoms: N_3  and  C_4
REMARK    3  A    between atoms: C_4  and  C_5
REMARK    4  A    between atoms: C_9  and  C_10
REMARK    5  A    between atoms: C_10  and  O_11
REMARK    6  A    between atoms: C_10  and  C_12
REMARK    7  A    between atoms: C_12  and  C_13
REMARK    8  A    between atoms: C_13  and  C_14
REMARK    9  A    between atoms: C_23  and  O_24
REMARK   10  A    between atoms: O_24  and  C_25
REMARK                            x       y       z     vdW  Elec       q    Type
REMARK                         _______ _______ _______ _____ _____    ______ ____
ROOT
ATOM      1  C   UNL     1       4.594   6.919  16.846  0.00  0.00    +0.000 C 
ENDROOT
BRANCH   1   2
ATOM      2  C   UNL     1       5.572   5.918  17.473  0.00  0.00    +0.000 C 
ATOM      3  C   UNL     1       6.674   6.596  18.292  0.00  0.00    +0.000 C 
ATOM      4  C   UNL     1       7.789   5.565  18.410  0.00  0.00    +0.000 C 
ATOM      5  C   UNL     1       7.492   4.480  17.378  0.00  0.00    +0.000 C 
ATOM      6  C   UNL     1       6.351   5.012  16.494  0.00  0.00    +0.000 C 
BRANCH   6   7
ATOM      7  C   UNL     1       5.498   3.899  15.839  0.00  0.00    +0.000 C 
BRANCH   7   8
ATOM      8  O   UNL     1       5.341   4.154  14.439  0.00  0.00    +0.000 OA
ATOM      9  H   UNL     1       4.795   3.444  14.061  0.00  0.00    +0.000 HD
ENDBRANCH   7   8
BRANCH   7  10
ATOM     10  C   UNL     1       4.113   3.739  16.496  0.00  0.00    +0.000 C 
BRANCH  10  11
ATOM     11  C   UNL     1       4.124   2.739  17.661  0.00  0.00    +0.000 C 
BRANCH  11  12
ATOM     12  C   UNL     1       3.078   3.061  18.706  0.00  0.00    +0.000 A 
ATOM     13  C   UNL     1       1.738   2.692  18.515  0.00  0.00    +0.000 A 
ATOM     14  C   UNL     1       0.772   2.985  19.481  0.00  0.00    +0.000 A 
ATOM     15  C   UNL     1       1.136   3.653  20.647  0.00  0.00    +0.000 A 
ATOM     16  C   UNL     1       2.463   4.030  20.848  0.00  0.00    +0.000 A 
ATOM     17  C   UNL     1       3.429   3.738  19.881  0.00  0.00    +0.000 A 
ENDBRANCH  11  12
ENDBRANCH  10  11
ENDBRANCH   7  10
ENDBRANCH   6   7
ENDBRANCH   1   2
BRANCH   1  20
ATOM     18  O   UNL     1       2.092   6.170  17.905  0.00  0.00    +0.000 OA
ATOM     19  C   UNL     1       2.613   7.210  18.301  0.00  0.00    +0.000 C 
ATOM     20  N   UNL     1       3.811   7.677  17.811  0.00  0.00    +0.000 N 
ATOM     21  H   UNL     1       4.193   8.548  18.151  0.00  0.00    +0.000 HD
BRANCH  19  22
ATOM     22  C   UNL     1       1.912   8.033  19.331  0.00  0.00    +0.000 A 
ATOM     23  C   UNL     1       1.661   7.602  20.639  0.00  0.00    +0.000 A 
ATOM     24  C   UNL     1       0.994   8.451  21.535  0.00  0.00    +0.000 A 
ATOM     25  C   UNL     1       0.575   9.730  21.145  0.00  0.00    +0.000 A 
ATOM     26  C   UNL     1       0.769  10.132  19.828  0.00  0.00    +0.000 A 
ATOM     27  C   UNL     1       1.448   9.294  18.935  0.00  0.00    +0.000 A 
BRANCH  25  28
ATOM     28  O   UNL     1      -0.056  10.446  22.115  0.00  0.00    +0.000 OA
BRANCH  28  29
ATOM     29  C   UNL     1      -0.552  11.746  21.822  0.00  0.00    +0.000 C 
ATOM     30  F   UNL     1      -1.427  11.792  20.797  0.00  0.00    +0.000 F 
ATOM     31  F   UNL     1      -1.142  12.259  22.924  0.00  0.00    +0.000 F 
ATOM     32  F   UNL     1       0.497  12.537  21.501  0.00  0.00    +0.000 F 
ENDBRANCH  28  29
ENDBRANCH  25  28
ENDBRANCH  19  22
ENDBRANCH   1  20
TORSDOF 10
ENDMDL
MODEL 9
REMARK VINA RESULT:      -7.7      2.024      2.219
REMARK  Name = 
REMARK  10 active torsions:
REMARK  status: ('A' for Active; 'I' for Inactive)
REMARK    1  A    between atoms: C_2  and  C_20
REMARK    2  A    between atoms: N_3  and  C_4
REMARK    3  A    between atoms: C_4  and  C_5
REMARK    4  A    between atoms: C_9  and  C_10
REMARK    5  A    between atoms: C_10  and  O_11
REMARK    6  A    between atoms: C_10  and  C_12
REMARK    7  A    between atoms: C_12  and  C_13
REMARK    8  A    between atoms: C_13  and  C_14
REMARK    9  A    between atoms: C_23  and  O_24
REMARK   10  A    between atoms: O_24  and  C_25
REMARK                            x       y       z     vdW  Elec       q    Type
REMARK                         _______ _______ _______ _____ _____    ______ ____
ROOT
ATOM      1  C   UNL     1       2.804   6.659  19.066  0.00  0.00    +0.000 C 
ENDROOT
BRANCH   1   2
ATOM      2  C   UNL     1       2.045   5.356  19.345  0.00  0.00    +0.000 C 
ATOM      3  C   UNL     1       1.744   5.150  20.833  0.00  0.00    +0.000 C 
ATOM      4  C   UNL     1       1.463   3.662  20.991  0.00  0.00    +0.000 C 
ATOM      5  C   UNL     1       1.957   2.986  19.714  0.00  0.00    +0.000 C 
ATOM      6  C   UNL     1       2.751   4.046  18.932  0.00  0.00    +0.000 C 
BRANCH   6   7
ATOM      7  C   UNL     1       2.789   3.796  17.405  0.00  0.00    +0.000 C 
BRANCH   7   8
ATOM      8  O   UNL     1       2.319   2.476  17.108  0.00  0.00    +0.000 OA
ATOM      9  H   UNL     1       2.430   1.930  17.904  0.00  0.00    +0.000 HD
ENDBRANCH   7   8
BRANCH   7  10
ATOM     10  C   UNL     1       4.191   3.997  16.798  0.00  0.00    +0.000 C 
BRANCH  10  11
ATOM     11  C   UNL     1       5.305   3.931  17.853  0.00  0.00    +0.000 C 
BRANCH  11  12
ATOM     12  C   UNL     1       6.154   5.183  17.873  0.00  0.00    +0.000 A 
ATOM     13  C   UNL     1       5.868   6.256  17.015  0.00  0.00    +0.000 A 
ATOM     14  C   UNL     1       6.648   7.415  17.035  0.00  0.00    +0.000 A 
ATOM     15  C   UNL     1       7.725   7.512  17.913  0.00  0.00    +0.000 A 
ATOM     16  C   UNL     1       8.023   6.451  18.768  0.00  0.00    +0.000 A 
ATOM     17  C   UNL     1       7.244   5.292  18.747  0.00  0.00    +0.000 A 
ENDBRANCH  11  12
ENDBRANCH  10  11
ENDBRANCH   7  10
ENDBRANCH   6   7
ENDBRANCH   1   2
BRANCH   1  20
ATOM     18  O   UNL     1       2.470   8.725  17.177  0.00  0.00    +0.000 OA
ATOM     19  C   UNL     1       1.876   8.804  18.251  0.00  0.00    +0.000 C 
ATOM     20  N   UNL     1       2.011   7.866  19.248  0.00  0.00    +0.000 N 
ATOM     21  H   UNL     1       1.520   7.982  20.123  0.00  0.00    +0.000 HD
BRANCH  19  22
ATOM     22  C   UNL     1       0.995   9.981  18.513  0.00  0.00    +0.000 A 
ATOM     23  C   UNL     1       1.422  11.153  19.146  0.00  0.00    +0.000 A 
ATOM     24  C   UNL     1       0.517  12.205  19.347  0.00  0.00    +0.000 A 
ATOM     25  C   UNL     1      -0.814  12.106  18.920  0.00  0.00    +0.000 A 
ATOM     26  C   UNL     1      -1.254  10.917  18.348  0.00  0.00    +0.000 A 
ATOM     27  C   UNL     1      -0.349   9.871  18.132  0.00  0.00    +0.000 A 
BRANCH  25  28
ATOM     28  O   UNL     1      -1.580  13.202  19.176  0.00  0.00    +0.000 OA
BRANCH  28  29
ATOM     29  C   UNL     1      -2.194  13.350  20.450  0.00  0.00    +0.000 C 
ATOM     30  F   UNL     1      -3.440  13.866  20.412  0.00  0.00    +0.000 F 
ATOM     31  F   UNL     1      -2.236  12.150  21.070  0.00  0.00    +0.000 F 
ATOM     32  F   UNL     1      -1.430  14.181  21.194  0.00  0.00    +0.000 F 
ENDBRANCH  28  29
ENDBRANCH  25  28
ENDBRANCH  19  22
ENDBRANCH   1  20
TORSDOF 10
ENDMDL
