MODEL 1
REMARK VINA RESULT:      -9.4      0.000      0.000
REMARK  Name = 
REMARK  4 active torsions:
REMARK  status: ('A' for Active; 'I' for Inactive)
REMARK    1  A    between atoms: C_2  and  C_4
REMARK    2  A    between atoms: C_5  and  C_6
REMARK    3  A    between atoms: C_9  and  O_10
REMARK    4  A    between atoms: O_10  and  C_11
REMARK                            x       y       z     vdW  Elec       q    Type
REMARK                         _______ _______ _______ _____ _____    ______ ____
ROOT
ATOM      1  C   UNL     1      -1.409  11.757  19.594  0.00  0.00    +0.000 A 
ATOM      2  C   UNL     1      -0.492  11.129  20.524  0.00  0.00    +0.000 A 
ATOM      3  N   UNL     1      -0.523  11.743  21.736  0.00  0.00    +0.000 NA
ATOM      4  N   UNL     1      -1.320  12.796  21.529  0.00  0.00    +0.000 N 
ATOM      5  C   UNL     1      -1.834  12.876  20.270  0.00  0.00    +0.000 A 
ATOM      6  N   UNL     1      -2.754  13.870  20.162  0.00  0.00    +0.000 N 
ATOM      7  C   UNL     1      -2.895  14.478  21.511  0.00  0.00    +0.000 C 
ATOM      8  C   UNL     1      -2.189  13.490  22.501  0.00  0.00    +0.000 C 
ATOM      9  C   UNL     1      -3.159  12.458  23.096  0.00  0.00    +0.000 C 
ATOM     10  C   UNL     1      -4.135  13.040  24.105  0.00  0.00    +0.000 C 
ATOM     11  N   UNL     1      -3.609  14.032  25.027  0.00  0.00    +0.000 NA
ATOM     12  C   UNL     1      -2.534  14.894  24.560  0.00  0.00    +0.000 C 
ATOM     13  C   UNL     1      -1.498  14.238  23.640  0.00  0.00    +0.000 C 
ATOM     14  H   UNL     1      -3.626  13.683  19.670  0.00  0.00    +0.000 HD
ATOM     15  H   UNL     1      -3.402  13.624  25.938  0.00  0.00    +0.000 HD
ENDROOT
BRANCH   2  16
ATOM     16  C   UNL     1       0.365   9.946  20.264  0.00  0.00    +0.000 A 
ATOM     17  C   UNL     1       0.540   8.955  21.236  0.00  0.00    +0.000 A 
ATOM     18  C   UNL     1       1.356   7.846  20.998  0.00  0.00    +0.000 A 
ATOM     19  C   UNL     1       1.980   7.687  19.764  0.00  0.00    +0.000 A 
ATOM     20  C   UNL     1       1.841   8.686  18.798  0.00  0.00    +0.000 A 
ATOM     21  C   UNL     1       1.016   9.795  19.033  0.00  0.00    +0.000 A 
BRANCH  19  22
ATOM     22  O   UNL     1       2.758   6.560  19.623  0.00  0.00    +0.000 OA
BRANCH  22  23
ATOM     23  C   UNL     1       2.172   5.317  19.529  0.00  0.00    +0.000 A 
ATOM     24  C   UNL     1       2.015   4.816  18.234  0.00  0.00    +0.000 A 
ATOM     25  C   UNL     1       1.417   3.570  18.028  0.00  0.00    +0.000 A 
ATOM     26  C   UNL     1       0.976   2.822  19.118  0.00  0.00    +0.000 A 
ATOM     27  C   UNL     1       1.170   3.299  20.413  0.00  0.00    +0.000 A 
ATOM     28  C   UNL     1       1.794   4.531  20.620  0.00  0.00    +0.000 A 
ENDBRANCH  22  23
ENDBRANCH  19  22
ENDBRANCH   2  16
BRANCH   1  30
ATOM     29  N   UNL     1      -1.668  12.158  17.266  0.00  0.00    +0.000 N 
ATOM     30  C   UNL     1      -1.876  11.298  18.300  0.00  0.00    +0.000 C 
ATOM     31  O   UNL     1      -2.410  10.210  18.110  0.00  0.00    +0.000 OA
ATOM     32  H   UNL     1      -1.892  11.830  16.340  0.00  0.00    +0.000 HD
ATOM     33  H   UNL     1      -1.125  13.002  17.395  0.00  0.00    +0.000 HD
ENDBRANCH   1  30
TORSDOF 4
ENDMDL
MODEL 2
REMARK VINA RESULT:      -9.2      0.174      1.275
REMARK  Name = 
REMARK  4 active torsions:
REMARK  status: ('A' for Active; 'I' for Inactive)
REMARK    1  A    between atoms: C_2  and  C_4
REMARK    2  A    between atoms: C_5  and  C_6
REMARK    3  A    between atoms: C_9  and  O_10
REMARK    4  A    between atoms: O_10  and  C_11
REMARK                            x       y       z     vdW  Elec       q    Type
REMARK                         _______ _______ _______ _____ _____    ______ ____
ROOT
ATOM      1  C   UNL     1      -1.438  11.759  19.673  0.00  0.00    +0.000 A 
ATOM      2  C   UNL     1      -0.537  11.128  20.617  0.00  0.00    +0.000 A 
ATOM      3  N   UNL     1      -0.587  11.741  21.829  0.00  0.00    +0.000 NA
ATOM      4  N   UNL     1      -1.380  12.794  21.610  0.00  0.00    +0.000 N 
ATOM      5  C   UNL     1      -1.872  12.877  20.343  0.00  0.00    +0.000 A 
ATOM      6  N   UNL     1      -2.791  13.872  20.222  0.00  0.00    +0.000 N 
ATOM      7  C   UNL     1      -2.953  14.477  21.569  0.00  0.00    +0.000 C 
ATOM      8  C   UNL     1      -2.265  13.488  22.569  0.00  0.00    +0.000 C 
ATOM      9  C   UNL     1      -3.246  12.455  23.145  0.00  0.00    +0.000 C 
ATOM     10  C   UNL     1      -4.239  13.036  24.139  0.00  0.00    +0.000 C 
ATOM     11  N   UNL     1      -3.727  14.026  25.072  0.00  0.00    +0.000 NA
ATOM     12  C   UNL     1      -2.644  14.888  24.624  0.00  0.00    +0.000 C 
ATOM     13  C   UNL     1      -1.593  14.232  23.721  0.00  0.00    +0.000 C 
ATOM     14  H   UNL     1      -3.654  13.687  19.714  0.00  0.00    +0.000 HD
ATOM     15  H   UNL     1      -3.536  13.616  25.985  0.00  0.00    +0.000 HD
ENDROOT
BRANCH   2  16
ATOM     16  C   UNL     1       0.324   9.945  20.369  0.00  0.00    +0.000 A 
ATOM     17  C   UNL     1       0.939   9.749  19.128  0.00  0.00    +0.000 A 
ATOM     18  C   UNL     1       1.741   8.630  18.887  0.00  0.00    +0.000 A 
ATOM     19  C   UNL     1       1.976   7.706  19.901  0.00  0.00    +0.000 A 
ATOM     20  C   UNL     1       1.339   7.872  21.134  0.00  0.00    +0.000 A 
ATOM     21  C   UNL     1       0.542   8.999  21.379  0.00  0.00    +0.000 A 
BRANCH  19  22
ATOM     22  O   UNL     1       2.783   6.641  19.571  0.00  0.00    +0.000 OA
BRANCH  22  23
ATOM     23  C   UNL     1       2.230   5.419  19.258  0.00  0.00    +0.000 A 
ATOM     24  C   UNL     1       1.691   4.704  20.331  0.00  0.00    +0.000 A 
ATOM     25  C   UNL     1       1.120   3.446  20.124  0.00  0.00    +0.000 A 
ATOM     26  C   UNL     1       1.086   2.900  18.842  0.00  0.00    +0.000 A 
ATOM     27  C   UNL     1       1.584   3.629  17.763  0.00  0.00    +0.000 A 
ATOM     28  C   UNL     1       2.128   4.899  17.966  0.00  0.00    +0.000 A 
ENDBRANCH  22  23
ENDBRANCH  19  22
ENDBRANCH   2  16
BRANCH   1  30
ATOM     29  N   UNL     1      -1.640  12.157  17.338  0.00  0.00    +0.000 N 
ATOM     30  C   UNL     1      -1.882  11.302  18.370  0.00  0.00    +0.000 C 
ATOM     31  O   UNL     1      -2.428  10.222  18.171  0.00  0.00    +0.000 OA
ATOM     32  H   UNL     1      -1.849  11.829  16.409  0.00  0.00    +0.000 HD
ATOM     33  H   UNL     1      -1.088  12.994  17.477  0.00  0.00    +0.000 HD
ENDBRANCH   1  30
TORSDOF 4
ENDMDL
MODEL 3
REMARK VINA RESULT:      -8.9      0.897      1.294
REMARK  Name = 
REMARK  4 active torsions:
REMARK  status: ('A' for Active; 'I' for Inactive)
REMARK    1  A    between atoms: C_2  and  C_4
REMARK    2  A    between atoms: C_5  and  C_6
REMARK    3  A    between atoms: C_9  and  O_10
REMARK    4  A    between atoms: O_10  and  C_11
REMARK                            x       y       z     vdW  Elec       q    Type
REMARK                         _______ _______ _______ _____ _____    ______ ____
ROOT
ATOM      1  C   UNL     1      -1.415  11.381  19.049  0.00  0.00    +0.000 A 
ATOM      2  C   UNL     1      -0.307  10.894  19.847  0.00  0.00    +0.000 A 
ATOM      3  N   UNL     1      -0.204  11.580  21.016  0.00  0.00    +0.000 NA
ATOM      4  N   UNL     1      -1.119  12.546  20.889  0.00  0.00    +0.000 N 
ATOM      5  C   UNL     1      -1.831  12.501  19.728  0.00  0.00    +0.000 A 
ATOM      6  N   UNL     1      -2.846  13.404  19.723  0.00  0.00    +0.000 N 
ATOM      7  C   UNL     1      -2.829  14.083  21.044  0.00  0.00    +0.000 C 
ATOM      8  C   UNL     1      -1.886  13.225  21.954  0.00  0.00    +0.000 C 
ATOM      9  C   UNL     1      -2.648  12.154  22.749  0.00  0.00    +0.000 C 
ATOM     10  C   UNL     1      -3.503  12.715  23.874  0.00  0.00    +0.000 C 
ATOM     11  N   UNL     1      -2.934  13.804  24.648  0.00  0.00    +0.000 NA
ATOM     12  C   UNL     1      -2.032  14.723  23.969  0.00  0.00    +0.000 C 
ATOM     13  C   UNL     1      -1.097  14.100  22.927  0.00  0.00    +0.000 C 
ATOM     14  H   UNL     1      -3.763  13.112  19.389  0.00  0.00    +0.000 HD
ATOM     15  H   UNL     1      -2.548  13.475  25.532  0.00  0.00    +0.000 HD
ENDROOT
BRANCH   2  16
ATOM     16  C   UNL     1       0.606   9.774  19.509  0.00  0.00    +0.000 A 
ATOM     17  C   UNL     1       1.108   9.620  18.212  0.00  0.00    +0.000 A 
ATOM     18  C   UNL     1       1.959   8.559  17.889  0.00  0.00    +0.000 A 
ATOM     19  C   UNL     1       2.357   7.656  18.870  0.00  0.00    +0.000 A 
ATOM     20  C   UNL     1       1.835   7.779  20.160  0.00  0.00    +0.000 A 
ATOM     21  C   UNL     1       0.988   8.847  20.488  0.00  0.00    +0.000 A 
BRANCH  19  22
ATOM     22  O   UNL     1       3.200   6.650  18.456  0.00  0.00    +0.000 OA
BRANCH  22  23
ATOM     23  C   UNL     1       2.888   5.333  18.705  0.00  0.00    +0.000 A 
ATOM     24  C   UNL     1       1.862   4.793  17.923  0.00  0.00    +0.000 A 
ATOM     25  C   UNL     1       1.457   3.469  18.108  0.00  0.00    +0.000 A 
ATOM     26  C   UNL     1       2.078   2.680  19.075  0.00  0.00    +0.000 A 
ATOM     27  C   UNL     1       3.129   3.201  19.826  0.00  0.00    +0.000 A 
ATOM     28  C   UNL     1       3.554   4.516  19.622  0.00  0.00    +0.000 A 
ENDBRANCH  22  23
ENDBRANCH  19  22
ENDBRANCH   2  16
BRANCH   1  30
ATOM     29  N   UNL     1      -1.960  11.557  16.742  0.00  0.00    +0.000 N 
ATOM     30  C   UNL     1      -2.034  10.802  17.872  0.00  0.00    +0.000 C 
ATOM     31  O   UNL     1      -2.582   9.704  17.855  0.00  0.00    +0.000 OA
ATOM     32  H   UNL     1      -2.295  11.142  15.887  0.00  0.00    +0.000 HD
ATOM     33  H   UNL     1      -1.411  12.407  16.722  0.00  0.00    +0.000 HD
ENDBRANCH   1  30
TORSDOF 4
ENDMDL
MODEL 4
REMARK VINA RESULT:      -8.8      1.441      1.667
REMARK  Name = 
REMARK  4 active torsions:
REMARK  status: ('A' for Active; 'I' for Inactive)
REMARK    1  A    between atoms: C_2  and  C_4
REMARK    2  A    between atoms: C_5  and  C_6
REMARK    3  A    between atoms: C_9  and  O_10
REMARK    4  A    between atoms: O_10  and  C_11
REMARK                            x       y       z     vdW  Elec       q    Type
REMARK                         _______ _______ _______ _____ _____    ______ ____
ROOT
ATOM      1  C   UNL     1      -0.688  11.743  18.965  0.00  0.00    +0.000 A 
ATOM      2  C   UNL     1       0.498  11.221  19.614  0.00  0.00    +0.000 A 
ATOM      3  N   UNL     1       0.953  12.075  20.569  0.00  0.00    +0.000 NA
ATOM      4  N   UNL     1       0.168  13.147  20.424  0.00  0.00    +0.000 N 
ATOM      5  C   UNL     1      -0.788  13.021  19.462  0.00  0.00    +0.000 A 
ATOM      6  N   UNL     1      -1.651  14.071  19.466  0.00  0.00    +0.000 N 
ATOM      7  C   UNL     1      -1.245  14.960  20.585  0.00  0.00    +0.000 C 
ATOM      8  C   UNL     1      -0.241  14.126  21.452  0.00  0.00    +0.000 C 
ATOM      9  C   UNL     1      -0.936  13.362  22.589  0.00  0.00    +0.000 C 
ATOM     10  C   UNL     1      -1.433  14.254  23.716  0.00  0.00    +0.000 C 
ATOM     11  N   UNL     1      -0.564  15.348  24.115  0.00  0.00    +0.000 NA
ATOM     12  C   UNL     1       0.272  15.961  23.095  0.00  0.00    +0.000 C 
ATOM     13  C   UNL     1       0.856  15.010  22.044  0.00  0.00    +0.000 C 
ATOM     14  H   UNL     1      -2.650  13.888  19.388  0.00  0.00    +0.000 HD
ATOM     15  H   UNL     1      -0.035  15.118  24.955  0.00  0.00    +0.000 HD
ENDROOT
BRANCH   2  16
ATOM     16  C   UNL     1       1.156   9.917  19.347  0.00  0.00    +0.000 A 
ATOM     17  C   UNL     1       1.232   8.933  20.338  0.00  0.00    +0.000 A 
ATOM     18  C   UNL     1       1.861   7.709  20.094  0.00  0.00    +0.000 A 
ATOM     19  C   UNL     1       2.389   7.432  18.836  0.00  0.00    +0.000 A 
ATOM     20  C   UNL     1       2.350   8.420  17.849  0.00  0.00    +0.000 A 
ATOM     21  C   UNL     1       1.711   9.644  18.091  0.00  0.00    +0.000 A 
BRANCH  19  22
ATOM     22  O   UNL     1       2.983   6.199  18.691  0.00  0.00    +0.000 OA
BRANCH  22  23
ATOM     23  C   UNL     1       2.335   5.060  19.116  0.00  0.00    +0.000 A 
ATOM     24  C   UNL     1       1.757   4.279  18.112  0.00  0.00    +0.000 A 
ATOM     25  C   UNL     1       1.063   3.111  18.438  0.00  0.00    +0.000 A 
ATOM     26  C   UNL     1       0.947   2.721  19.771  0.00  0.00    +0.000 A 
ATOM     27  C   UNL     1       1.558   3.474  20.771  0.00  0.00    +0.000 A 
ATOM     28  C   UNL     1       2.277   4.626  20.442  0.00  0.00    +0.000 A 
ENDBRANCH  22  23
ENDBRANCH  19  22
ENDBRANCH   2  16
BRANCH   1  30
ATOM     29  N   UNL     1      -1.865  11.714  16.901  0.00  0.00    +0.000 N 
ATOM     30  C   UNL     1      -1.628  11.081  18.083  0.00  0.00    +0.000 C 
ATOM     31  O   UNL     1      -2.180  10.016  18.342  0.00  0.00    +0.000 OA
ATOM     32  H   UNL     1      -2.438  11.233  16.226  0.00  0.00    +0.000 HD
ATOM     33  H   UNL     1      -1.327  12.528  16.632  0.00  0.00    +0.000 HD
ENDBRANCH   1  30
TORSDOF 4
ENDMDL
MODEL 5
REMARK VINA RESULT:      -8.7      1.551      2.167
REMARK  Name = 
REMARK  4 active torsions:
REMARK  status: ('A' for Active; 'I' for Inactive)
REMARK    1  A    between atoms: C_2  and  C_4
REMARK    2  A    between atoms: C_5  and  C_6
REMARK    3  A    between atoms: C_9  and  O_10
REMARK    4  A    between atoms: O_10  and  C_11
REMARK                            x       y       z     vdW  Elec       q    Type
REMARK                         _______ _______ _______ _____ _____    ______ ____
ROOT
ATOM      1  C   UNL     1      -0.566  11.623  18.851  0.00  0.00    +0.000 A 
ATOM      2  C   UNL     1       0.597  11.081  19.524  0.00  0.00    +0.000 A 
ATOM      3  N   UNL     1       1.056  11.934  20.478  0.00  0.00    +0.000 NA
ATOM      4  N   UNL     1       0.297  13.022  20.310  0.00  0.00    +0.000 N 
ATOM      5  C   UNL     1      -0.645  12.907  19.333  0.00  0.00    +0.000 A 
ATOM      6  N   UNL     1      -1.484  13.977  19.313  0.00  0.00    +0.000 N 
ATOM      7  C   UNL     1      -1.076  14.867  20.430  0.00  0.00    +0.000 C 
ATOM      8  C   UNL     1      -0.106  14.020  21.321  0.00  0.00    +0.000 C 
ATOM      9  C   UNL     1      -0.837  13.283  22.454  0.00  0.00    +0.000 C 
ATOM     10  C   UNL     1      -1.331  14.197  23.564  0.00  0.00    +0.000 C 
ATOM     11  N   UNL     1      -0.445  15.275  23.967  0.00  0.00    +0.000 NA
ATOM     12  C   UNL     1       0.421  15.859  22.954  0.00  0.00    +0.000 C 
ATOM     13  C   UNL     1       1.001  14.885  21.923  0.00  0.00    +0.000 C 
ATOM     14  H   UNL     1      -2.486  13.816  19.221  0.00  0.00    +0.000 HD
ATOM     15  H   UNL     1       0.065  15.043  24.818  0.00  0.00    +0.000 HD
ENDROOT
BRANCH   2  16
ATOM     16  C   UNL     1       1.229   9.760  19.281  0.00  0.00    +0.000 A 
ATOM     17  C   UNL     1       1.810   9.456  18.045  0.00  0.00    +0.000 A 
ATOM     18  C   UNL     1       2.396   8.210  17.809  0.00  0.00    +0.000 A 
ATOM     19  C   UNL     1       2.448   7.257  18.822  0.00  0.00    +0.000 A 
ATOM     20  C   UNL     1       1.841   7.535  20.049  0.00  0.00    +0.000 A 
ATOM     21  C   UNL     1       1.260   8.789  20.290  0.00  0.00    +0.000 A 
BRANCH  19  22
ATOM     22  O   UNL     1       3.050   6.063  18.496  0.00  0.00    +0.000 OA
BRANCH  22  23
ATOM     23  C   UNL     1       2.484   4.869  18.884  0.00  0.00    +0.000 A 
ATOM     24  C   UNL     1       2.803   4.437  20.174  0.00  0.00    +0.000 A 
ATOM     25  C   UNL     1       2.294   3.230  20.660  0.00  0.00    +0.000 A 
ATOM     26  C   UNL     1       1.462   2.453  19.856  0.00  0.00    +0.000 A 
ATOM     27  C   UNL     1       1.106   2.902  18.585  0.00  0.00    +0.000 A 
ATOM     28  C   UNL     1       1.592   4.122  18.111  0.00  0.00    +0.000 A 
ENDBRANCH  22  23
ENDBRANCH  19  22
ENDBRANCH   2  16
BRANCH   1  30
ATOM     29  N   UNL     1      -1.794  11.654  16.816  0.00  0.00    +0.000 N 
ATOM     30  C   UNL     1      -1.507  10.973  17.959  0.00  0.00    +0.000 C 
ATOM     31  O   UNL     1      -2.017   9.879  18.179  0.00  0.00    +0.000 OA
ATOM     32  H   UNL     1      -2.368  11.188  16.132  0.00  0.00    +0.000 HD
ATOM     33  H   UNL     1      -1.290  12.498  16.576  0.00  0.00    +0.000 HD
ENDBRANCH   1  30
TORSDOF 4
ENDMDL
MODEL 6
REMARK VINA RESULT:      -8.5      2.367      2.996
REMARK  Name = 
REMARK  4 active torsions:
REMARK  status: ('A' for Active; 'I' for Inactive)
REMARK    1  A    between atoms: C_2  and  C_4
REMARK    2  A    between atoms: C_5  and  C_6
REMARK    3  A    between atoms: C_9  and  O_10
REMARK    4  A    between atoms: O_10  and  C_11
REMARK                            x       y       z     vdW  Elec       q    Type
REMARK                         _______ _______ _______ _____ _____    ______ ____
ROOT
ATOM      1  C   UNL     1      -0.690  11.452  18.795  0.00  0.00    +0.000 A 
ATOM      2  C   UNL     1       0.511  10.951  19.434  0.00  0.00    +0.000 A 
ATOM      3  N   UNL     1       0.925  11.785  20.425  0.00  0.00    +0.000 NA
ATOM      4  N   UNL     1       0.099  12.830  20.314  0.00  0.00    +0.000 N 
ATOM      5  C   UNL     1      -0.844  12.704  19.339  0.00  0.00    +0.000 A 
ATOM      6  N   UNL     1      -1.747  13.719  19.376  0.00  0.00    +0.000 N 
ATOM      7  C   UNL     1      -1.385  14.579  20.532  0.00  0.00    +0.000 C 
ATOM      8  C   UNL     1      -0.356  13.752  21.375  0.00  0.00    +0.000 C 
ATOM      9  C   UNL     1      -1.029  12.918  22.475  0.00  0.00    +0.000 C 
ATOM     10  C   UNL     1      -1.569  13.745  23.631  0.00  0.00    +0.000 C 
ATOM     11  N   UNL     1      -0.748  14.856  24.080  0.00  0.00    +0.000 NA
ATOM     12  C   UNL     1       0.071  15.540  23.092  0.00  0.00    +0.000 C 
ATOM     13  C   UNL     1       0.701  14.654  22.011  0.00  0.00    +0.000 C 
ATOM     14  H   UNL     1      -2.737  13.500  19.282  0.00  0.00    +0.000 HD
ATOM     15  H   UNL     1      -0.216  14.615  24.916  0.00  0.00    +0.000 HD
ENDROOT
BRANCH   2  16
ATOM     16  C   UNL     1       1.221   9.686  19.124  0.00  0.00    +0.000 A 
ATOM     17  C   UNL     1       1.381   8.692  20.095  0.00  0.00    +0.000 A 
ATOM     18  C   UNL     1       2.060   7.504  19.810  0.00  0.00    +0.000 A 
ATOM     19  C   UNL     1       2.556   7.271  18.530  0.00  0.00    +0.000 A 
ATOM     20  C   UNL     1       2.433   8.270  17.561  0.00  0.00    +0.000 A 
ATOM     21  C   UNL     1       1.745   9.458  17.844  0.00  0.00    +0.000 A 
BRANCH  19  22
ATOM     22  O   UNL     1       3.203   6.071  18.344  0.00  0.00    +0.000 OA
BRANCH  22  23
ATOM     23  C   UNL     1       4.575   6.031  18.230  0.00  0.00    +0.000 A 
ATOM     24  C   UNL     1       5.258   5.461  19.308  0.00  0.00    +0.000 A 
ATOM     25  C   UNL     1       6.652   5.386  19.299  0.00  0.00    +0.000 A 
ATOM     26  C   UNL     1       7.368   5.879  18.210  0.00  0.00    +0.000 A 
ATOM     27  C   UNL     1       6.689   6.409  17.114  0.00  0.00    +0.000 A 
ATOM     28  C   UNL     1       5.294   6.457  17.111  0.00  0.00    +0.000 A 
ENDBRANCH  22  23
ENDBRANCH  19  22
ENDBRANCH   2  16
BRANCH   1  30
ATOM     29  N   UNL     1      -1.904  11.487  16.752  0.00  0.00    +0.000 N 
ATOM     30  C   UNL     1      -1.597  10.787  17.879  0.00  0.00    +0.000 C 
ATOM     31  O   UNL     1      -2.062   9.667  18.065  0.00  0.00    +0.000 OA
ATOM     32  H   UNL     1      -2.454  11.016  16.052  0.00  0.00    +0.000 HD
ATOM     33  H   UNL     1      -1.434  12.357  16.539  0.00  0.00    +0.000 HD
ENDBRANCH   1  30
TORSDOF 4
ENDMDL
MODEL 7
REMARK VINA RESULT:      -8.5      2.385      3.025
REMARK  Name = 
REMARK  4 active torsions:
REMARK  status: ('A' for Active; 'I' for Inactive)
REMARK    1  A    between atoms: C_2  and  C_4
REMARK    2  A    between atoms: C_5  and  C_6
REMARK    3  A    between atoms: C_9  and  O_10
REMARK    4  A    between atoms: O_10  and  C_11
REMARK                            x       y       z     vdW  Elec       q    Type
REMARK                         _______ _______ _______ _____ _____    ______ ____
ROOT
ATOM      1  C   UNL     1      -0.717  11.426  18.792  0.00  0.00    +0.000 A 
ATOM      2  C   UNL     1       0.488  10.930  19.426  0.00  0.00    +0.000 A 
ATOM      3  N   UNL     1       0.906  11.767  20.412  0.00  0.00    +0.000 NA
ATOM      4  N   UNL     1       0.078  12.810  20.303  0.00  0.00    +0.000 N 
ATOM      5  C   UNL     1      -0.870  12.680  19.334  0.00  0.00    +0.000 A 
ATOM      6  N   UNL     1      -1.775  13.693  19.373  0.00  0.00    +0.000 N 
ATOM      7  C   UNL     1      -1.408  14.557  20.525  0.00  0.00    +0.000 C 
ATOM      8  C   UNL     1      -0.372  13.735  21.364  0.00  0.00    +0.000 C 
ATOM      9  C   UNL     1      -1.038  12.902  22.471  0.00  0.00    +0.000 C 
ATOM     10  C   UNL     1      -1.573  13.731  23.628  0.00  0.00    +0.000 C 
ATOM     11  N   UNL     1      -0.750  14.845  24.069  0.00  0.00    +0.000 NA
ATOM     12  C   UNL     1       0.062  15.528  23.074  0.00  0.00    +0.000 C 
ATOM     13  C   UNL     1       0.687  14.640  21.991  0.00  0.00    +0.000 C 
ATOM     14  H   UNL     1      -2.766  13.473  19.286  0.00  0.00    +0.000 HD
ATOM     15  H   UNL     1      -0.213  14.607  24.902  0.00  0.00    +0.000 HD
ENDROOT
BRANCH   2  16
ATOM     16  C   UNL     1       1.199   9.665  19.114  0.00  0.00    +0.000 A 
ATOM     17  C   UNL     1       1.695   9.414  17.830  0.00  0.00    +0.000 A 
ATOM     18  C   UNL     1       2.354   8.219  17.531  0.00  0.00    +0.000 A 
ATOM     19  C   UNL     1       2.567   7.268  18.525  0.00  0.00    +0.000 A 
ATOM     20  C   UNL     1       2.046   7.492  19.802  0.00  0.00    +0.000 A 
ATOM     21  C   UNL     1       1.392   8.694  20.106  0.00  0.00    +0.000 A 
BRANCH  19  22
ATOM     22  O   UNL     1       3.231   6.128  18.135  0.00  0.00    +0.000 OA
BRANCH  22  23
ATOM     23  C   UNL     1       4.601   6.049  18.241  0.00  0.00    +0.000 A 
ATOM     24  C   UNL     1       5.326   6.653  17.210  0.00  0.00    +0.000 A 
ATOM     25  C   UNL     1       6.723   6.616  17.215  0.00  0.00    +0.000 A 
ATOM     26  C   UNL     1       7.398   5.976  18.252  0.00  0.00    +0.000 A 
ATOM     27  C   UNL     1       6.680   5.410  19.304  0.00  0.00    +0.000 A 
ATOM     28  C   UNL     1       5.285   5.472  19.314  0.00  0.00    +0.000 A 
ENDBRANCH  22  23
ENDBRANCH  19  22
ENDBRANCH   2  16
BRANCH   1  30
ATOM     29  N   UNL     1      -1.900  11.430  16.731  0.00  0.00    +0.000 N 
ATOM     30  C   UNL     1      -1.628  10.758  17.883  0.00  0.00    +0.000 C 
ATOM     31  O   UNL     1      -2.127   9.658  18.097  0.00  0.00    +0.000 OA
ATOM     32  H   UNL     1      -2.452  10.952  16.037  0.00  0.00    +0.000 HD
ATOM     33  H   UNL     1      -1.403  12.280  16.497  0.00  0.00    +0.000 HD
ENDBRANCH   1  30
TORSDOF 4
ENDMDL
MODEL 8
REMARK VINA RESULT:      -8.4      1.628      2.129
REMARK  Name = 
REMARK  4 active torsions:
REMARK  status: ('A' for Active; 'I' for Inactive)
REMARK    1  A    between atoms: C_2  and  C_4
REMARK    2  A    between atoms: C_5  and  C_6
REMARK    3  A    between atoms: C_9  and  O_10
REMARK    4  A    between atoms: O_10  and  C_11
REMARK                            x       y       z     vdW  Elec       q    Type
REMARK                         _______ _______ _______ _____ _____    ______ ____
ROOT
ATOM      1  C   UNL     1      -0.699  11.078  18.841  0.00  0.00    +0.000 A 
ATOM      2  C   UNL     1       0.551  10.673  19.453  0.00  0.00    +0.000 A 
ATOM      3  N   UNL     1       0.991  11.607  20.337  0.00  0.00    +0.000 NA
ATOM      4  N   UNL     1       0.126  12.614  20.180  0.00  0.00    +0.000 N 
ATOM      5  C   UNL     1      -0.865  12.371  19.277  0.00  0.00    +0.000 A 
ATOM      6  N   UNL     1      -1.798  13.359  19.273  0.00  0.00    +0.000 N 
ATOM      7  C   UNL     1      -1.401  14.333  20.323  0.00  0.00    +0.000 C 
ATOM      8  C   UNL     1      -0.300  13.618  21.177  0.00  0.00    +0.000 C 
ATOM      9  C   UNL     1      -0.883  12.871  22.386  0.00  0.00    +0.000 C 
ATOM     10  C   UNL     1      -1.386  13.786  23.491  0.00  0.00    +0.000 C 
ATOM     11  N   UNL     1      -0.578  14.957  23.788  0.00  0.00    +0.000 NA
ATOM     12  C   UNL     1       0.162  15.569  22.695  0.00  0.00    +0.000 C 
ATOM     13  C   UNL     1       0.760  14.604  21.665  0.00  0.00    +0.000 C 
ATOM     14  H   UNL     1      -2.784  13.105  19.258  0.00  0.00    +0.000 HD
ATOM     15  H   UNL     1       0.007  14.810  24.610  0.00  0.00    +0.000 HD
ENDROOT
BRANCH   2  16
ATOM     16  C   UNL     1       1.285   9.405  19.218  0.00  0.00    +0.000 A 
ATOM     17  C   UNL     1       1.853   9.122  17.971  0.00  0.00    +0.000 A 
ATOM     18  C   UNL     1       2.535   7.923  17.744  0.00  0.00    +0.000 A 
ATOM     19  C   UNL     1       2.696   7.002  18.775  0.00  0.00    +0.000 A 
ATOM     20  C   UNL     1       2.104   7.258  20.014  0.00  0.00    +0.000 A 
ATOM     21  C   UNL     1       1.427   8.464  20.246  0.00  0.00    +0.000 A 
BRANCH  19  22
ATOM     22  O   UNL     1       3.387   5.856  18.456  0.00  0.00    +0.000 OA
BRANCH  22  23
ATOM     23  C   UNL     1       2.882   4.621  18.798  0.00  0.00    +0.000 A 
ATOM     24  C   UNL     1       1.737   4.220  18.104  0.00  0.00    +0.000 A 
ATOM     25  C   UNL     1       1.136   2.991  18.386  0.00  0.00    +0.000 A 
ATOM     26  C   UNL     1       1.680   2.159  19.363  0.00  0.00    +0.000 A 
ATOM     27  C   UNL     1       2.846   2.536  20.027  0.00  0.00    +0.000 A 
ATOM     28  C   UNL     1       3.463   3.752  19.724  0.00  0.00    +0.000 A 
ENDBRANCH  22  23
ENDBRANCH  19  22
ENDBRANCH   2  16
BRANCH   1  30
ATOM     29  N   UNL     1      -2.886  10.189  18.564  0.00  0.00    +0.000 N 
ATOM     30  C   UNL     1      -1.633  10.307  18.044  0.00  0.00    +0.000 C 
ATOM     31  O   UNL     1      -1.355   9.794  16.965  0.00  0.00    +0.000 OA
ATOM     32  H   UNL     1      -3.584   9.742  17.991  0.00  0.00    +0.000 HD
ATOM     33  H   UNL     1      -3.153  10.705  19.393  0.00  0.00    +0.000 HD
ENDBRANCH   1  30
TORSDOF 4
ENDMDL
MODEL 9
REMARK VINA RESULT:      -8.3      1.539      1.710
REMARK  Name = 
REMARK  4 active torsions:
REMARK  status: ('A' for Active; 'I' for Inactive)
REMARK    1  A    between atoms: C_2  and  C_4
REMARK    2  A    between atoms: C_5  and  C_6
REMARK    3  A    between atoms: C_9  and  O_10
REMARK    4  A    between atoms: O_10  and  C_11
REMARK                            x       y       z     vdW  Elec       q    Type
REMARK                         _______ _______ _______ _____ _____    ______ ____
ROOT
ATOM      1  C   UNL     1      -0.859  12.665  19.781  0.00  0.00    +0.000 A 
ATOM      2  C   UNL     1      -0.785  11.467  20.593  0.00  0.00    +0.000 A 
ATOM      3  N   UNL     1      -1.685  11.505  21.610  0.00  0.00    +0.000 NA
ATOM      4  N   UNL     1      -2.201  12.735  21.520  0.00  0.00    +0.000 N 
ATOM      5  C   UNL     1      -1.716  13.476  20.485  0.00  0.00    +0.000 A 
ATOM      6  N   UNL     1      -2.385  14.651  20.348  0.00  0.00    +0.000 N 
ATOM      7  C   UNL     1      -3.458  14.660  21.375  0.00  0.00    +0.000 C 
ATOM      8  C   UNL     1      -3.551  13.192  21.911  0.00  0.00    +0.000 C 
ATOM      9  C   UNL     1      -4.580  12.348  21.145  0.00  0.00    +0.000 C 
ATOM     10  C   UNL     1      -6.024  12.725  21.436  0.00  0.00    +0.000 C 
ATOM     11  N   UNL     1      -6.352  13.041  22.816  0.00  0.00    +0.000 NA
ATOM     12  C   UNL     1      -5.320  13.654  23.638  0.00  0.00    +0.000 C 
ATOM     13  C   UNL     1      -3.889  13.159  23.401  0.00  0.00    +0.000 C 
ATOM     14  H   UNL     1      -2.664  14.954  19.416  0.00  0.00    +0.000 HD
ATOM     15  H   UNL     1      -6.796  12.253  23.286  0.00  0.00    +0.000 HD
ENDROOT
BRANCH   2  16
ATOM     16  C   UNL     1       0.106  10.300  20.375  0.00  0.00    +0.000 A 
ATOM     17  C   UNL     1       0.498   9.484  21.441  0.00  0.00    +0.000 A 
ATOM     18  C   UNL     1       1.346   8.391  21.241  0.00  0.00    +0.000 A 
ATOM     19  C   UNL     1       1.784   8.069  19.960  0.00  0.00    +0.000 A 
ATOM     20  C   UNL     1       1.426   8.896  18.891  0.00  0.00    +0.000 A 
ATOM     21  C   UNL     1       0.569   9.988  19.090  0.00  0.00    +0.000 A 
BRANCH  19  22
ATOM     22  O   UNL     1       2.609   6.973  19.863  0.00  0.00    +0.000 OA
BRANCH  22  23
ATOM     23  C   UNL     1       2.088   5.732  19.571  0.00  0.00    +0.000 A 
ATOM     24  C   UNL     1       2.217   5.315  18.243  0.00  0.00    +0.000 A 
ATOM     25  C   UNL     1       1.707   4.079  17.840  0.00  0.00    +0.000 A 
ATOM     26  C   UNL     1       1.067   3.255  18.765  0.00  0.00    +0.000 A 
ATOM     27  C   UNL     1       0.975   3.648  20.099  0.00  0.00    +0.000 A 
ATOM     28  C   UNL     1       1.510   4.871  20.508  0.00  0.00    +0.000 A 
ENDBRANCH  22  23
ENDBRANCH  19  22
ENDBRANCH   2  16
BRANCH   1  30
ATOM     29  N   UNL     1      -1.075  12.681  17.414  0.00  0.00    +0.000 N 
ATOM     30  C   UNL     1      -0.274  12.942  18.483  0.00  0.00    +0.000 C 
ATOM     31  O   UNL     1       0.855  13.395  18.322  0.00  0.00    +0.000 OA
ATOM     32  H   UNL     1      -0.735  12.953  16.506  0.00  0.00    +0.000 HD
ATOM     33  H   UNL     1      -2.044  12.420  17.544  0.00  0.00    +0.000 HD
ENDBRANCH   1  30
TORSDOF 4
ENDMDL
