MODEL 1
REMARK VINA RESULT:      -8.1      0.000      0.000
REMARK  Name = 
REMARK  2 active torsions:
REMARK  status: ('A' for Active; 'I' for Inactive)
REMARK    1  A    between atoms: C_1  and  C_2
REMARK    2  A    between atoms: C_12  and  C_14
REMARK                            x       y       z     vdW  Elec       q    Type
REMARK                         _______ _______ _______ _____ _____    ______ ____
ROOT
ATOM      1  C   UNL     1       2.339   5.774  21.274  0.00  0.00    +0.000 C 
ATOM      2  C   UNL     1       1.858   6.552  20.038  0.00  0.00    +0.000 C 
ATOM      3  C   UNL     1       1.521   8.023  20.363  0.00  0.00    +0.000 A 
ATOM      4  C   UNL     1       0.956   8.389  21.589  0.00  0.00    +0.000 A 
ATOM      5  C   UNL     1       0.648   9.715  21.888  0.00  0.00    +0.000 A 
ATOM      6  C   UNL     1       0.897  10.721  20.959  0.00  0.00    +0.000 A 
ATOM      7  C   UNL     1       1.439  10.390  19.725  0.00  0.00    +0.000 A 
ATOM      8  C   UNL     1       1.722   9.052  19.409  0.00  0.00    +0.000 A 
ATOM      9  C   UNL     1       2.294   8.763  18.063  0.00  0.00    +0.000 C 
ATOM     10  C   UNL     1       2.204   7.292  17.718  0.00  0.00    +0.000 C 
ATOM     11  N   UNL     1       2.687   6.435  18.813  0.00  0.00    +0.000 N 
ATOM     12  C   UNL     1       3.780   5.550  18.708  0.00  0.00    +0.000 C 
ATOM     13  O   UNL     1       4.283   4.950  19.658  0.00  0.00    +0.000 OA
ATOM     14  O   UNL     1       0.709  12.046  21.219  0.00  0.00    +0.000 OA
ATOM     15  C   UNL     1      -0.668  12.351  21.459  0.00  0.00    +0.000 C 
ATOM     16  C   UNL     1      -1.090  12.028  22.885  0.00  0.00    +0.000 C 
ATOM     17  C   UNL     1      -1.120  10.529  23.132  0.00  0.00    +0.000 C 
ATOM     18  O   UNL     1       0.190   9.969  23.152  0.00  0.00    +0.000 OA
ENDROOT
BRANCH  12  19
ATOM     19  C   UNL     1       4.420   5.271  17.383  0.00  0.00    +0.000 A 
ATOM     20  C   UNL     1       4.527   3.950  16.925  0.00  0.00    +0.000 A 
ATOM     21  C   UNL     1       5.158   3.678  15.706  0.00  0.00    +0.000 A 
ATOM     22  C   UNL     1       5.701   4.720  14.956  0.00  0.00    +0.000 A 
ATOM     23 CL   UNL     1       6.519   4.397  13.480  0.00  0.00    +0.000 Cl
ATOM     24  C   UNL     1       5.555   6.036  15.376  0.00  0.00    +0.000 A 
ATOM     25  C   UNL     1       4.854   6.306  16.549  0.00  0.00    +0.000 A 
ENDBRANCH  12  19
TORSDOF 1
ENDMDL
MODEL 2
REMARK VINA RESULT:      -7.4      3.792      8.694
REMARK  Name = 
REMARK  2 active torsions:
REMARK  status: ('A' for Active; 'I' for Inactive)
REMARK    1  A    between atoms: C_1  and  C_2
REMARK    2  A    between atoms: C_12  and  C_14
REMARK                            x       y       z     vdW  Elec       q    Type
REMARK                         _______ _______ _______ _____ _____    ______ ____
ROOT
ATOM      1  C   UNL     1       2.053  10.730  17.800  0.00  0.00    +0.000 C 
ATOM      2  C   UNL     1       1.239   9.605  18.459  0.00  0.00    +0.000 C 
ATOM      3  C   UNL     1       2.084   8.339  18.717  0.00  0.00    +0.000 A 
ATOM      4  C   UNL     1       3.094   7.943  17.834  0.00  0.00    +0.000 A 
ATOM      5  C   UNL     1       3.861   6.802  18.061  0.00  0.00    +0.000 A 
ATOM      6  C   UNL     1       3.635   6.015  19.187  0.00  0.00    +0.000 A 
ATOM      7  C   UNL     1       2.627   6.369  20.074  0.00  0.00    +0.000 A 
ATOM      8  C   UNL     1       1.833   7.501  19.833  0.00  0.00    +0.000 A 
ATOM      9  C   UNL     1       0.762   7.821  20.819  0.00  0.00    +0.000 C 
ATOM     10  C   UNL     1      -0.234   8.817  20.265  0.00  0.00    +0.000 C 
ATOM     11  N   UNL     1       0.427   9.976  19.645  0.00  0.00    +0.000 N 
ATOM     12  C   UNL     1       0.272  11.308  20.081  0.00  0.00    +0.000 C 
ATOM     13  O   UNL     1       0.939  12.257  19.669  0.00  0.00    +0.000 OA
ATOM     14  O   UNL     1       4.406   4.942  19.520  0.00  0.00    +0.000 OA
ATOM     15  C   UNL     1       4.316   3.899  18.544  0.00  0.00    +0.000 C 
ATOM     16  C   UNL     1       5.217   4.154  17.345  0.00  0.00    +0.000 C 
ATOM     17  C   UNL     1       4.717   5.320  16.509  0.00  0.00    +0.000 C 
ATOM     18  O   UNL     1       4.883   6.564  17.183  0.00  0.00    +0.000 OA
ENDROOT
BRANCH  12  19
ATOM     19  C   UNL     1      -0.756  11.666  21.110  0.00  0.00    +0.000 A 
ATOM     20  C   UNL     1      -0.581  11.260  22.440  0.00  0.00    +0.000 A 
ATOM     21  C   UNL     1      -1.554  11.557  23.400  0.00  0.00    +0.000 A 
ATOM     22  C   UNL     1      -2.711  12.240  23.029  0.00  0.00    +0.000 A 
ATOM     23 CL   UNL     1      -3.937  12.572  24.186  0.00  0.00    +0.000 Cl
ATOM     24  C   UNL     1      -2.870  12.692  21.725  0.00  0.00    +0.000 A 
ATOM     25  C   UNL     1      -1.860  12.464  20.793  0.00  0.00    +0.000 A 
ENDBRANCH  12  19
TORSDOF 1
ENDMDL
MODEL 3
REMARK VINA RESULT:      -7.3      1.354      1.831
REMARK  Name = 
REMARK  2 active torsions:
REMARK  status: ('A' for Active; 'I' for Inactive)
REMARK    1  A    between atoms: C_1  and  C_2
REMARK    2  A    between atoms: C_12  and  C_14
REMARK                            x       y       z     vdW  Elec       q    Type
REMARK                         _______ _______ _______ _____ _____    ______ ____
ROOT
ATOM      1  C   UNL     1       1.269   7.571  21.354  0.00  0.00    +0.000 C 
ATOM      2  C   UNL     1       1.106   8.195  19.958  0.00  0.00    +0.000 C 
ATOM      3  C   UNL     1       1.025   9.735  20.007  0.00  0.00    +0.000 A 
ATOM      4  C   UNL     1       0.395  10.400  21.065  0.00  0.00    +0.000 A 
ATOM      5  C   UNL     1       0.318  11.791  21.114  0.00  0.00    +0.000 A 
ATOM      6  C   UNL     1       0.871  12.563  20.097  0.00  0.00    +0.000 A 
ATOM      7  C   UNL     1       1.487  11.934  19.023  0.00  0.00    +0.000 A 
ATOM      8  C   UNL     1       1.539  10.533  18.955  0.00  0.00    +0.000 A 
ATOM      9  C   UNL     1       2.206   9.921  17.770  0.00  0.00    +0.000 C 
ATOM     10  C   UNL     1       1.874   8.450  17.635  0.00  0.00    +0.000 C 
ATOM     11  N   UNL     1       2.040   7.726  18.906  0.00  0.00    +0.000 N 
ATOM     12  C   UNL     1       2.944   6.660  19.102  0.00  0.00    +0.000 C 
ATOM     13  O   UNL     1       3.199   6.157  20.195  0.00  0.00    +0.000 OA
ATOM     14  O   UNL     1       0.915  13.925  20.127  0.00  0.00    +0.000 OA
ATOM     15  C   UNL     1      -0.394  14.500  20.105  0.00  0.00    +0.000 C 
ATOM     16  C   UNL     1      -1.044  14.506  21.481  0.00  0.00    +0.000 C 
ATOM     17  C   UNL     1      -1.397  13.101  21.938  0.00  0.00    +0.000 C 
ATOM     18  O   UNL     1      -0.235  12.335  22.241  0.00  0.00    +0.000 OA
ENDROOT
BRANCH  12  19
ATOM     19  C   UNL     1       3.676   6.050  17.947  0.00  0.00    +0.000 A 
ATOM     20  C   UNL     1       3.490   4.695  17.641  0.00  0.00    +0.000 A 
ATOM     21  C   UNL     1       4.199   4.108  16.587  0.00  0.00    +0.000 A 
ATOM     22  C   UNL     1       5.110   4.866  15.854  0.00  0.00    +0.000 A 
ATOM     23 CL   UNL     1       6.022   4.149  14.587  0.00  0.00    +0.000 Cl
ATOM     24  C   UNL     1       5.263   6.222  16.115  0.00  0.00    +0.000 A 
ATOM     25  C   UNL     1       4.494   6.819  17.111  0.00  0.00    +0.000 A 
ENDBRANCH  12  19
TORSDOF 1
ENDMDL
MODEL 4
REMARK VINA RESULT:      -7.3      3.967      8.639
REMARK  Name = 
REMARK  2 active torsions:
REMARK  status: ('A' for Active; 'I' for Inactive)
REMARK    1  A    between atoms: C_1  and  C_2
REMARK    2  A    between atoms: C_12  and  C_14
REMARK                            x       y       z     vdW  Elec       q    Type
REMARK                         _______ _______ _______ _____ _____    ______ ____
ROOT
ATOM      1  C   UNL     1       2.189  10.277  17.831  0.00  0.00    +0.000 C 
ATOM      2  C   UNL     1       1.262   9.480  18.763  0.00  0.00    +0.000 C 
ATOM      3  C   UNL     1       1.835   8.092  19.119  0.00  0.00    +0.000 A 
ATOM      4  C   UNL     1       2.576   7.350  18.193  0.00  0.00    +0.000 A 
ATOM      5  C   UNL     1       3.096   6.095  18.507  0.00  0.00    +0.000 A 
ATOM      6  C   UNL     1       2.884   5.541  19.766  0.00  0.00    +0.000 A 
ATOM      7  C   UNL     1       2.137   6.243  20.702  0.00  0.00    +0.000 A 
ATOM      8  C   UNL     1       1.587   7.493  20.379  0.00  0.00    +0.000 A 
ATOM      9  C   UNL     1       0.786   8.191  21.426  0.00  0.00    +0.000 C 
ATOM     10  C   UNL     1      -0.039   9.318  20.845  0.00  0.00    +0.000 C 
ATOM     11  N   UNL     1       0.755  10.190  19.964  0.00  0.00    +0.000 N 
ATOM     12  C   UNL     1       0.972  11.565  20.191  0.00  0.00    +0.000 C 
ATOM     13  O   UNL     1       1.759  12.261  19.548  0.00  0.00    +0.000 OA
ATOM     14  O   UNL     1       3.441   4.365  20.172  0.00  0.00    +0.000 OA
ATOM     15  C   UNL     1       2.965   3.258  19.400  0.00  0.00    +0.000 C 
ATOM     16  C   UNL     1       3.695   3.126  18.072  0.00  0.00    +0.000 C 
ATOM     17  C   UNL     1       3.340   4.260  17.125  0.00  0.00    +0.000 C 
ATOM     18  O   UNL     1       3.885   5.503  17.559  0.00  0.00    +0.000 OA
ENDROOT
BRANCH  12  19
ATOM     19  C   UNL     1       0.229  12.294  21.268  0.00  0.00    +0.000 A 
ATOM     20  C   UNL     1      -0.678  11.600  22.081  0.00  0.00    +0.000 A 
ATOM     21  C   UNL     1      -1.405  12.281  23.063  0.00  0.00    +0.000 A 
ATOM     22  C   UNL     1      -1.243  13.657  23.221  0.00  0.00    +0.000 A 
ATOM     23 CL   UNL     1      -2.161  14.515  24.392  0.00  0.00    +0.000 Cl
ATOM     24  C   UNL     1      -0.308  14.344  22.456  0.00  0.00    +0.000 A 
ATOM     25  C   UNL     1       0.470  13.646  21.536  0.00  0.00    +0.000 A 
ENDBRANCH  12  19
TORSDOF 1
ENDMDL
MODEL 5
REMARK VINA RESULT:      -7.3      1.100      1.608
REMARK  Name = 
REMARK  2 active torsions:
REMARK  status: ('A' for Active; 'I' for Inactive)
REMARK    1  A    between atoms: C_1  and  C_2
REMARK    2  A    between atoms: C_12  and  C_14
REMARK                            x       y       z     vdW  Elec       q    Type
REMARK                         _______ _______ _______ _____ _____    ______ ____
ROOT
ATOM      1  C   UNL     1       1.471   6.990  21.291  0.00  0.00    +0.000 C 
ATOM      2  C   UNL     1       1.251   7.674  19.933  0.00  0.00    +0.000 C 
ATOM      3  C   UNL     1       1.055   9.199  20.066  0.00  0.00    +0.000 A 
ATOM      4  C   UNL     1       0.384   9.756  21.161  0.00  0.00    +0.000 A 
ATOM      5  C   UNL     1       0.201  11.131  21.287  0.00  0.00    +0.000 A 
ATOM      6  C   UNL     1       0.687  11.998  20.313  0.00  0.00    +0.000 A 
ATOM      7  C   UNL     1       1.341  11.478  19.204  0.00  0.00    +0.000 A 
ATOM      8  C   UNL     1       1.500  10.091  19.058  0.00  0.00    +0.000 A 
ATOM      9  C   UNL     1       2.203   9.597  17.840  0.00  0.00    +0.000 C 
ATOM     10  C   UNL     1       1.983   8.115  17.625  0.00  0.00    +0.000 C 
ATOM     11  N   UNL     1       2.212   7.336  18.853  0.00  0.00    +0.000 N 
ATOM     12  C   UNL     1       3.195   6.334  18.988  0.00  0.00    +0.000 C 
ATOM     13  O   UNL     1       3.495   5.792  20.052  0.00  0.00    +0.000 OA
ATOM     14  O   UNL     1       0.628  13.355  20.418  0.00  0.00    +0.000 OA
ATOM     15  C   UNL     1      -0.722  13.829  20.431  0.00  0.00    +0.000 C 
ATOM     16  C   UNL     1      -1.361  13.711  21.807  0.00  0.00    +0.000 C 
ATOM     17  C   UNL     1      -1.603  12.260  22.187  0.00  0.00    +0.000 C 
ATOM     18  O   UNL     1      -0.384  11.569  22.444  0.00  0.00    +0.000 OA
ENDROOT
BRANCH  12  19
ATOM     19  C   UNL     1       3.964   5.845  17.799  0.00  0.00    +0.000 A 
ATOM     20  C   UNL     1       4.766   6.738  17.073  0.00  0.00    +0.000 A 
ATOM     21  C   UNL     1       5.456   6.298  15.939  0.00  0.00    +0.000 A 
ATOM     22  C   UNL     1       5.332   4.975  15.517  0.00  0.00    +0.000 A 
ATOM     23 CL   UNL     1       6.138   4.432  14.100  0.00  0.00    +0.000 Cl
ATOM     24  C   UNL     1       4.582   4.071  16.259  0.00  0.00    +0.000 A 
ATOM     25  C   UNL     1       3.963   4.495  17.432  0.00  0.00    +0.000 A 
ENDBRANCH  12  19
TORSDOF 1
ENDMDL
MODEL 6
REMARK VINA RESULT:      -7.2      3.026      4.838
REMARK  Name = 
REMARK  2 active torsions:
REMARK  status: ('A' for Active; 'I' for Inactive)
REMARK    1  A    between atoms: C_1  and  C_2
REMARK    2  A    between atoms: C_12  and  C_14
REMARK                            x       y       z     vdW  Elec       q    Type
REMARK                         _______ _______ _______ _____ _____    ______ ____
ROOT
ATOM      1  C   UNL     1       0.877  11.354  18.893  0.00  0.00    +0.000 C 
ATOM      2  C   UNL     1       1.027  10.876  20.346  0.00  0.00    +0.000 C 
ATOM      3  C   UNL     1      -0.113  11.383  21.254  0.00  0.00    +0.000 A 
ATOM      4  C   UNL     1      -0.688  12.645  21.069  0.00  0.00    +0.000 A 
ATOM      5  C   UNL     1      -1.717  13.109  21.886  0.00  0.00    +0.000 A 
ATOM      6  C   UNL     1      -2.204  12.318  22.922  0.00  0.00    +0.000 A 
ATOM      7  C   UNL     1      -1.643  11.068  23.146  0.00  0.00    +0.000 A 
ATOM      8  C   UNL     1      -0.586  10.610  22.344  0.00  0.00    +0.000 A 
ATOM      9  C   UNL     1      -0.022   9.262  22.643  0.00  0.00    +0.000 C 
ATOM     10  C   UNL     1       1.318   9.051  21.970  0.00  0.00    +0.000 C 
ATOM     11  N   UNL     1       1.290   9.430  20.548  0.00  0.00    +0.000 N 
ATOM     12  C   UNL     1       1.541   8.540  19.483  0.00  0.00    +0.000 C 
ATOM     13  O   UNL     1       1.366   8.811  18.295  0.00  0.00    +0.000 OA
ATOM     14  O   UNL     1      -3.269  12.668  23.698  0.00  0.00    +0.000 OA
ATOM     15  C   UNL     1      -3.000  13.841  24.471  0.00  0.00    +0.000 C 
ATOM     16  C   UNL     1      -3.188  15.118  23.665  0.00  0.00    +0.000 C 
ATOM     17  C   UNL     1      -2.114  15.270  22.601  0.00  0.00    +0.000 C 
ATOM     18  O   UNL     1      -2.268  14.317  21.554  0.00  0.00    +0.000 OA
ENDROOT
BRANCH  12  19
ATOM     19  C   UNL     1       2.057   7.158  19.740  0.00  0.00    +0.000 A 
ATOM     20  C   UNL     1       3.236   6.726  19.115  0.00  0.00    +0.000 A 
ATOM     21  C   UNL     1       3.703   5.424  19.320  0.00  0.00    +0.000 A 
ATOM     22  C   UNL     1       2.985   4.546  20.129  0.00  0.00    +0.000 A 
ATOM     23 CL   UNL     1       3.522   2.929  20.354  0.00  0.00    +0.000 Cl
ATOM     24  C   UNL     1       1.845   4.979  20.794  0.00  0.00    +0.000 A 
ATOM     25  C   UNL     1       1.430   6.301  20.651  0.00  0.00    +0.000 A 
ENDBRANCH  12  19
TORSDOF 1
ENDMDL
MODEL 7
REMARK VINA RESULT:      -7.1      4.079      8.802
REMARK  Name = 
REMARK  2 active torsions:
REMARK  status: ('A' for Active; 'I' for Inactive)
REMARK    1  A    between atoms: C_1  and  C_2
REMARK    2  A    between atoms: C_12  and  C_14
REMARK                            x       y       z     vdW  Elec       q    Type
REMARK                         _______ _______ _______ _____ _____    ______ ____
ROOT
ATOM      1  C   UNL     1       2.180  10.954  17.822  0.00  0.00    +0.000 C 
ATOM      2  C   UNL     1       1.135  10.085  18.541  0.00  0.00    +0.000 C 
ATOM      3  C   UNL     1       1.704   8.719  18.977  0.00  0.00    +0.000 A 
ATOM      4  C   UNL     1       2.651   8.041  18.202  0.00  0.00    +0.000 A 
ATOM      5  C   UNL     1       3.168   6.806  18.589  0.00  0.00    +0.000 A 
ATOM      6  C   UNL     1       2.747   6.208  19.773  0.00  0.00    +0.000 A 
ATOM      7  C   UNL     1       1.795   6.844  20.557  0.00  0.00    +0.000 A 
ATOM      8  C   UNL     1       1.249   8.073  20.154  0.00  0.00    +0.000 A 
ATOM      9  C   UNL     1       0.224   8.700  21.037  0.00  0.00    +0.000 C 
ATOM     10  C   UNL     1      -0.535   9.799  20.325  0.00  0.00    +0.000 C 
ATOM     11  N   UNL     1       0.366  10.735  19.632  0.00  0.00    +0.000 N 
ATOM     12  C   UNL     1       0.458  12.112  19.920  0.00  0.00    +0.000 C 
ATOM     13  O   UNL     1       1.315  12.864  19.456  0.00  0.00    +0.000 OA
ATOM     14  O   UNL     1       3.279   5.050  20.259  0.00  0.00    +0.000 OA
ATOM     15  C   UNL     1       3.024   3.943  19.390  0.00  0.00    +0.000 C 
ATOM     16  C   UNL     1       4.004   3.885  18.228  0.00  0.00    +0.000 C 
ATOM     17  C   UNL     1       3.777   5.025  17.249  0.00  0.00    +0.000 C 
ATOM     18  O   UNL     1       4.157   6.281  17.803  0.00  0.00    +0.000 OA
ENDROOT
BRANCH  12  19
ATOM     19  C   UNL     1      -0.519  12.772  20.844  0.00  0.00    +0.000 A 
ATOM     20  C   UNL     1      -1.710  13.306  20.332  0.00  0.00    +0.000 A 
ATOM     21  C   UNL     1      -2.610  13.958  21.182  0.00  0.00    +0.000 A 
ATOM     22  C   UNL     1      -2.312  14.096  22.537  0.00  0.00    +0.000 A 
ATOM     23 CL   UNL     1      -3.386  14.934  23.585  0.00  0.00    +0.000 Cl
ATOM     24  C   UNL     1      -1.160  13.526  23.063  0.00  0.00    +0.000 A 
ATOM     25  C   UNL     1      -0.309  12.808  22.226  0.00  0.00    +0.000 A 
ENDBRANCH  12  19
TORSDOF 1
ENDMDL
MODEL 8
REMARK VINA RESULT:      -7.1      2.082      3.022
REMARK  Name = 
REMARK  2 active torsions:
REMARK  status: ('A' for Active; 'I' for Inactive)
REMARK    1  A    between atoms: C_1  and  C_2
REMARK    2  A    between atoms: C_12  and  C_14
REMARK                            x       y       z     vdW  Elec       q    Type
REMARK                         _______ _______ _______ _____ _____    ______ ____
ROOT
ATOM      1  C   UNL     1       0.397   8.767  21.434  0.00  0.00    +0.000 C 
ATOM      2  C   UNL     1       0.527   9.284  19.993  0.00  0.00    +0.000 C 
ATOM      3  C   UNL     1       0.700  10.817  19.930  0.00  0.00    +0.000 A 
ATOM      4  C   UNL     1       0.056  11.662  20.840  0.00  0.00    +0.000 A 
ATOM      5  C   UNL     1       0.207  13.046  20.789  0.00  0.00    +0.000 A 
ATOM      6  C   UNL     1       1.011  13.630  19.815  0.00  0.00    +0.000 A 
ATOM      7  C   UNL     1       1.649  12.822  18.884  0.00  0.00    +0.000 A 
ATOM      8  C   UNL     1       1.475  11.430  18.914  0.00  0.00    +0.000 A 
ATOM      9  C   UNL     1       2.181  10.619  17.880  0.00  0.00    +0.000 C 
ATOM     10  C   UNL     1       1.627   9.213  17.794  0.00  0.00    +0.000 C 
ATOM     11  N   UNL     1       1.501   8.585  19.118  0.00  0.00    +0.000 N 
ATOM     12  C   UNL     1       2.179   7.412  19.511  0.00  0.00    +0.000 C 
ATOM     13  O   UNL     1       2.199   6.972  20.660  0.00  0.00    +0.000 OA
ATOM     14  O   UNL     1       1.279  14.966  19.764  0.00  0.00    +0.000 OA
ATOM     15  C   UNL     1       0.098  15.735  19.516  0.00  0.00    +0.000 C 
ATOM     16  C   UNL     1      -0.717  15.963  20.780  0.00  0.00    +0.000 C 
ATOM     17  C   UNL     1      -1.358  14.676  21.270  0.00  0.00    +0.000 C 
ATOM     18  O   UNL     1      -0.391  13.766  21.787  0.00  0.00    +0.000 OA
ENDROOT
BRANCH  12  19
ATOM     19  C   UNL     1       2.945   6.596  18.516  0.00  0.00    +0.000 A 
ATOM     20  C   UNL     1       2.566   5.270  18.263  0.00  0.00    +0.000 A 
ATOM     21  C   UNL     1       3.300   4.489  17.363  0.00  0.00    +0.000 A 
ATOM     22  C   UNL     1       4.423   5.023  16.733  0.00  0.00    +0.000 A 
ATOM     23 CL   UNL     1       5.361   4.063  15.660  0.00  0.00    +0.000 Cl
ATOM     24  C   UNL     1       4.775   6.352  16.937  0.00  0.00    +0.000 A 
ATOM     25  C   UNL     1       3.993   7.147  17.771  0.00  0.00    +0.000 A 
ENDBRANCH  12  19
TORSDOF 1
ENDMDL
MODEL 9
REMARK VINA RESULT:      -7.1      3.047      5.276
REMARK  Name = 
REMARK  2 active torsions:
REMARK  status: ('A' for Active; 'I' for Inactive)
REMARK    1  A    between atoms: C_1  and  C_2
REMARK    2  A    between atoms: C_12  and  C_14
REMARK                            x       y       z     vdW  Elec       q    Type
REMARK                         _______ _______ _______ _____ _____    ______ ____
ROOT
ATOM      1  C   UNL     1      -0.951  12.066  18.343  0.00  0.00    +0.000 C 
ATOM      2  C   UNL     1      -0.232  11.817  19.678  0.00  0.00    +0.000 C 
ATOM      3  C   UNL     1      -1.143  12.079  20.896  0.00  0.00    +0.000 A 
ATOM      4  C   UNL     1      -2.101  13.098  20.885  0.00  0.00    +0.000 A 
ATOM      5  C   UNL     1      -2.927  13.341  21.981  0.00  0.00    +0.000 A 
ATOM      6  C   UNL     1      -2.814  12.567  23.131  0.00  0.00    +0.000 A 
ATOM      7  C   UNL     1      -1.860  11.560  23.184  0.00  0.00    +0.000 A 
ATOM      8  C   UNL     1      -1.007  11.332  22.093  0.00  0.00    +0.000 A 
ATOM      9  C   UNL     1       0.002  10.241  22.216  0.00  0.00    +0.000 C 
ATOM     10  C   UNL     1       1.074  10.343  21.153  0.00  0.00    +0.000 C 
ATOM     11  N   UNL     1       0.506  10.536  19.809  0.00  0.00    +0.000 N 
ATOM     12  C   UNL     1       0.682   9.639  18.734  0.00  0.00    +0.000 C 
ATOM     13  O   UNL     1       0.084   9.714  17.661  0.00  0.00    +0.000 OA
ATOM     14  O   UNL     1      -3.649  12.687  24.202  0.00  0.00    +0.000 OA
ATOM     15  C   UNL     1      -3.529  13.968  24.828  0.00  0.00    +0.000 C 
ATOM     16  C   UNL     1      -4.330  15.040  24.104  0.00  0.00    +0.000 C 
ATOM     17  C   UNL     1      -3.726  15.369  22.750  0.00  0.00    +0.000 C 
ATOM     18  O   UNL     1      -3.891  14.299  21.823  0.00  0.00    +0.000 OA
ENDROOT
BRANCH  12  19
ATOM     19  C   UNL     1       1.645   8.497  18.835  0.00  0.00    +0.000 A 
ATOM     20  C   UNL     1       2.603   8.303  17.829  0.00  0.00    +0.000 A 
ATOM     21  C   UNL     1       3.482   7.216  17.897  0.00  0.00    +0.000 A 
ATOM     22  C   UNL     1       3.392   6.312  18.954  0.00  0.00    +0.000 A 
ATOM     23 CL   UNL     1       4.433   4.948  19.027  0.00  0.00    +0.000 Cl
ATOM     24  C   UNL     1       2.482   6.525  19.982  0.00  0.00    +0.000 A 
ATOM     25  C   UNL     1       1.665   7.653  19.951  0.00  0.00    +0.000 A 
ENDBRANCH  12  19
TORSDOF 1
ENDMDL
