MODEL 1
REMARK VINA RESULT:      -6.5      0.000      0.000
REMARK  Name = 
REMARK  2 active torsions:
REMARK  status: ('A' for Active; 'I' for Inactive)
REMARK    1  A    between atoms: C_1  and  C_2
REMARK    2  A    between atoms: C_7  and  C_9
REMARK                            x       y       z     vdW  Elec       q    Type
REMARK                         _______ _______ _______ _____ _____    ______ ____
ROOT
ATOM      1  C   UNL     1       1.654   2.244  21.904  0.00  0.00    +0.000 C 
ATOM      2  C   UNL     1       2.108   3.350  21.023  0.00  0.00    +0.000 A 
ATOM      3  C   UNL     1       1.872   4.696  21.221  0.00  0.00    +0.000 A 
ATOM      4  S   UNL     1       2.615   5.605  19.982  0.00  0.00    +0.000 S 
ATOM      5  C   UNL     1       3.210   4.166  19.285  0.00  0.00    +0.000 A 
ATOM      6  N   UNL     1       3.975   4.159  18.139  0.00  0.00    +0.000 N 
ATOM      7  C   UNL     1       4.637   5.252  17.623  0.00  0.00    +0.000 C 
ATOM      8  O   UNL     1       4.681   6.379  18.108  0.00  0.00    +0.000 OA
ATOM      9  N   UNL     1       2.845   3.052  19.881  0.00  0.00    +0.000 NA
ATOM     10  H   UNL     1       4.163   3.229  17.797  0.00  0.00    +0.000 HD
ENDROOT
BRANCH   7  11
ATOM     11  C   UNL     1       5.427   5.034  16.387  0.00  0.00    +0.000 A 
ATOM     12  C   UNL     1       5.015   4.230  15.323  0.00  0.00    +0.000 A 
ATOM     13  C   UNL     1       5.810   4.163  14.174  0.00  0.00    +0.000 A 
ATOM     14  C   UNL     1       6.985   4.899  14.140  0.00  0.00    +0.000 A 
ATOM     15 CL   UNL     1       7.995   4.890  12.755  0.00  0.00    +0.000 Cl
ATOM     16  N   UNL     1       7.420   5.678  15.149  0.00  0.00    +0.000 NA
ATOM     17  C   UNL     1       6.624   5.737  16.245  0.00  0.00    +0.000 A 
ENDBRANCH   7  11
TORSDOF 1
ENDMDL
MODEL 2
REMARK VINA RESULT:      -6.4      3.526      6.813
REMARK  Name = 
REMARK  2 active torsions:
REMARK  status: ('A' for Active; 'I' for Inactive)
REMARK    1  A    between atoms: C_1  and  C_2
REMARK    2  A    between atoms: C_7  and  C_9
REMARK                            x       y       z     vdW  Elec       q    Type
REMARK                         _______ _______ _______ _____ _____    ______ ____
ROOT
ATOM      1  C   UNL     1       6.248   3.513  12.325  0.00  0.00    +0.000 C 
ATOM      2  C   UNL     1       6.342   4.040  13.710  0.00  0.00    +0.000 A 
ATOM      3  C   UNL     1       7.253   4.973  14.165  0.00  0.00    +0.000 A 
ATOM      4  S   UNL     1       6.964   5.312  15.813  0.00  0.00    +0.000 S 
ATOM      5  C   UNL     1       5.651   4.224  15.806  0.00  0.00    +0.000 A 
ATOM      6  N   UNL     1       4.883   3.982  16.923  0.00  0.00    +0.000 N 
ATOM      7  C   UNL     1       4.828   4.792  18.036  0.00  0.00    +0.000 C 
ATOM      8  O   UNL     1       5.415   5.858  18.197  0.00  0.00    +0.000 OA
ATOM      9  N   UNL     1       5.449   3.583  14.675  0.00  0.00    +0.000 NA
ATOM     10  H   UNL     1       4.211   3.240  16.788  0.00  0.00    +0.000 HD
ENDROOT
BRANCH   7  11
ATOM     11  C   UNL     1       3.922   4.367  19.130  0.00  0.00    +0.000 A 
ATOM     12  C   UNL     1       2.939   5.182  19.696  0.00  0.00    +0.000 A 
ATOM     13  C   UNL     1       2.090   4.644  20.671  0.00  0.00    +0.000 A 
ATOM     14  C   UNL     1       2.264   3.319  21.040  0.00  0.00    +0.000 A 
ATOM     15 CL   UNL     1       1.243   2.584  22.204  0.00  0.00    +0.000 Cl
ATOM     16  N   UNL     1       3.205   2.506  20.524  0.00  0.00    +0.000 NA
ATOM     17  C   UNL     1       4.005   3.046  19.572  0.00  0.00    +0.000 A 
ENDBRANCH   7  11
TORSDOF 1
ENDMDL
MODEL 3
REMARK VINA RESULT:      -6.2      3.818      4.466
REMARK  Name = 
REMARK  2 active torsions:
REMARK  status: ('A' for Active; 'I' for Inactive)
REMARK    1  A    between atoms: C_1  and  C_2
REMARK    2  A    between atoms: C_7  and  C_9
REMARK                            x       y       z     vdW  Elec       q    Type
REMARK                         _______ _______ _______ _____ _____    ______ ____
ROOT
ATOM      1  C   UNL     1      -0.010   9.582  23.321  0.00  0.00    +0.000 C 
ATOM      2  C   UNL     1       0.331   9.462  21.881  0.00  0.00    +0.000 A 
ATOM      3  C   UNL     1      -0.037  10.344  20.883  0.00  0.00    +0.000 A 
ATOM      4  S   UNL     1       0.610   9.832  19.388  0.00  0.00    +0.000 S 
ATOM      5  C   UNL     1       1.343   8.500  20.163  0.00  0.00    +0.000 A 
ATOM      6  N   UNL     1       2.104   7.574  19.484  0.00  0.00    +0.000 N 
ATOM      7  C   UNL     1       2.653   7.765  18.235  0.00  0.00    +0.000 C 
ATOM      8  O   UNL     1       2.587   8.782  17.552  0.00  0.00    +0.000 OA
ATOM      9  N   UNL     1       1.092   8.381  21.448  0.00  0.00    +0.000 NA
ATOM     10  H   UNL     1       2.382   6.794  20.060  0.00  0.00    +0.000 HD
ENDROOT
BRANCH   7  11
ATOM     11  C   UNL     1       3.459   6.650  17.680  0.00  0.00    +0.000 A 
ATOM     12  C   UNL     1       3.130   5.300  17.816  0.00  0.00    +0.000 A 
ATOM     13  C   UNL     1       3.926   4.340  17.182  0.00  0.00    +0.000 A 
ATOM     14  C   UNL     1       5.018   4.770  16.443  0.00  0.00    +0.000 A 
ATOM     15 CL   UNL     1       6.020   3.654  15.613  0.00  0.00    +0.000 Cl
ATOM     16  N   UNL     1       5.371   6.061  16.295  0.00  0.00    +0.000 NA
ATOM     17  C   UNL     1       4.576   6.973  16.908  0.00  0.00    +0.000 A 
ENDBRANCH   7  11
TORSDOF 1
ENDMDL
MODEL 4
REMARK VINA RESULT:      -6.1      3.977      4.640
REMARK  Name = 
REMARK  2 active torsions:
REMARK  status: ('A' for Active; 'I' for Inactive)
REMARK    1  A    between atoms: C_1  and  C_2
REMARK    2  A    between atoms: C_7  and  C_9
REMARK                            x       y       z     vdW  Elec       q    Type
REMARK                         _______ _______ _______ _____ _____    ______ ____
ROOT
ATOM      1  C   UNL     1      -0.760  11.547  18.688  0.00  0.00    +0.000 C 
ATOM      2  C   UNL     1       0.129  10.441  19.125  0.00  0.00    +0.000 A 
ATOM      3  C   UNL     1       0.228   9.935  20.407  0.00  0.00    +0.000 A 
ATOM      4  S   UNL     1       1.343   8.644  20.439  0.00  0.00    +0.000 S 
ATOM      5  C   UNL     1       1.601   8.827  18.762  0.00  0.00    +0.000 A 
ATOM      6  N   UNL     1       2.472   8.027  18.055  0.00  0.00    +0.000 N 
ATOM      7  C   UNL     1       2.955   6.811  18.485  0.00  0.00    +0.000 C 
ATOM      8  O   UNL     1       2.669   6.236  19.530  0.00  0.00    +0.000 OA
ATOM      9  N   UNL     1       0.956   9.822  18.193  0.00  0.00    +0.000 NA
ATOM     10  H   UNL     1       2.591   8.325  17.098  0.00  0.00    +0.000 HD
ENDROOT
BRANCH   7  11
ATOM     11  C   UNL     1       3.869   6.091  17.565  0.00  0.00    +0.000 A 
ATOM     12  C   UNL     1       3.857   4.708  17.370  0.00  0.00    +0.000 A 
ATOM     13  C   UNL     1       4.716   4.150  16.416  0.00  0.00    +0.000 A 
ATOM     14  C   UNL     1       5.552   4.996  15.704  0.00  0.00    +0.000 A 
ATOM     15 CL   UNL     1       6.608   4.388  14.499  0.00  0.00    +0.000 Cl
ATOM     16  N   UNL     1       5.598   6.332  15.870  0.00  0.00    +0.000 NA
ATOM     17  C   UNL     1       4.746   6.850  16.789  0.00  0.00    +0.000 A 
ENDBRANCH   7  11
TORSDOF 1
ENDMDL
MODEL 5
REMARK VINA RESULT:      -6.0      3.583      6.828
REMARK  Name = 
REMARK  2 active torsions:
REMARK  status: ('A' for Active; 'I' for Inactive)
REMARK    1  A    between atoms: C_1  and  C_2
REMARK    2  A    between atoms: C_7  and  C_9
REMARK                            x       y       z     vdW  Elec       q    Type
REMARK                         _______ _______ _______ _____ _____    ______ ____
ROOT
ATOM      1  C   UNL     1       6.762   3.638  12.038  0.00  0.00    +0.000 C 
ATOM      2  C   UNL     1       6.652   4.131  13.435  0.00  0.00    +0.000 A 
ATOM      3  C   UNL     1       7.381   5.163  13.992  0.00  0.00    +0.000 A 
ATOM      4  S   UNL     1       6.895   5.412  15.609  0.00  0.00    +0.000 S 
ATOM      5  C   UNL     1       5.746   4.160  15.455  0.00  0.00    +0.000 A 
ATOM      6  N   UNL     1       4.914   3.786  16.487  0.00  0.00    +0.000 N 
ATOM      7  C   UNL     1       4.645   4.549  17.602  0.00  0.00    +0.000 C 
ATOM      8  O   UNL     1       5.066   5.678  17.838  0.00  0.00    +0.000 OA
ATOM      9  N   UNL     1       5.741   3.533  14.299  0.00  0.00    +0.000 NA
ATOM     10  H   UNL     1       4.365   2.967  16.273  0.00  0.00    +0.000 HD
ENDROOT
BRANCH   7  11
ATOM     11  C   UNL     1       3.704   3.976  18.595  0.00  0.00    +0.000 A 
ATOM     12  C   UNL     1       3.179   2.685  18.524  0.00  0.00    +0.000 A 
ATOM     13  C   UNL     1       2.361   2.226  19.563  0.00  0.00    +0.000 A 
ATOM     14  C   UNL     1       2.098   3.081  20.623  0.00  0.00    +0.000 A 
ATOM     15 CL   UNL     1       1.129   2.579  21.945  0.00  0.00    +0.000 Cl
ATOM     16  N   UNL     1       2.578   4.335  20.722  0.00  0.00    +0.000 NA
ATOM     17  C   UNL     1       3.380   4.750  19.710  0.00  0.00    +0.000 A 
ENDBRANCH   7  11
TORSDOF 1
ENDMDL
MODEL 6
REMARK VINA RESULT:      -6.0      5.534      7.530
REMARK  Name = 
REMARK  2 active torsions:
REMARK  status: ('A' for Active; 'I' for Inactive)
REMARK    1  A    between atoms: C_1  and  C_2
REMARK    2  A    between atoms: C_7  and  C_9
REMARK                            x       y       z     vdW  Elec       q    Type
REMARK                         _______ _______ _______ _____ _____    ______ ____
ROOT
ATOM      1  C   UNL     1       4.174   2.327  19.654  0.00  0.00    +0.000 C 
ATOM      2  C   UNL     1       3.962   3.749  19.281  0.00  0.00    +0.000 A 
ATOM      3  C   UNL     1       4.447   4.374  18.149  0.00  0.00    +0.000 A 
ATOM      4  S   UNL     1       3.923   5.997  18.111  0.00  0.00    +0.000 S 
ATOM      5  C   UNL     1       3.078   5.757  19.573  0.00  0.00    +0.000 A 
ATOM      6  N   UNL     1       2.351   6.757  20.183  0.00  0.00    +0.000 N 
ATOM      7  C   UNL     1       1.924   7.913  19.565  0.00  0.00    +0.000 C 
ATOM      8  O   UNL     1       2.087   8.218  18.388  0.00  0.00    +0.000 OA
ATOM      9  N   UNL     1       3.207   4.567  20.116  0.00  0.00    +0.000 NA
ATOM     10  H   UNL     1       1.995   6.490  21.088  0.00  0.00    +0.000 HD
ENDROOT
BRANCH   7  11
ATOM     11  C   UNL     1       1.135   8.860  20.390  0.00  0.00    +0.000 A 
ATOM     12  C   UNL     1       0.341   9.882  19.867  0.00  0.00    +0.000 A 
ATOM     13  C   UNL     1      -0.421  10.665  20.742  0.00  0.00    +0.000 A 
ATOM     14  C   UNL     1      -0.352  10.395  22.101  0.00  0.00    +0.000 A 
ATOM     15 CL   UNL     1      -1.280  11.291  23.229  0.00  0.00    +0.000 Cl
ATOM     16  N   UNL     1       0.408   9.424  22.642  0.00  0.00    +0.000 NA
ATOM     17  C   UNL     1       1.126   8.671  21.772  0.00  0.00    +0.000 A 
ENDBRANCH   7  11
TORSDOF 1
ENDMDL
MODEL 7
REMARK VINA RESULT:      -5.9      4.385      6.881
REMARK  Name = 
REMARK  2 active torsions:
REMARK  status: ('A' for Active; 'I' for Inactive)
REMARK    1  A    between atoms: C_1  and  C_2
REMARK    2  A    between atoms: C_7  and  C_9
REMARK                            x       y       z     vdW  Elec       q    Type
REMARK                         _______ _______ _______ _____ _____    ______ ____
ROOT
ATOM      1  C   UNL     1       7.173   5.010  13.768  0.00  0.00    +0.000 C 
ATOM      2  C   UNL     1       6.262   4.872  14.933  0.00  0.00    +0.000 A 
ATOM      3  C   UNL     1       6.123   3.751  15.728  0.00  0.00    +0.000 A 
ATOM      4  S   UNL     1       4.996   4.056  16.973  0.00  0.00    +0.000 S 
ATOM      5  C   UNL     1       4.788   5.647  16.392  0.00  0.00    +0.000 A 
ATOM      6  N   UNL     1       3.931   6.547  16.987  0.00  0.00    +0.000 N 
ATOM      7  C   UNL     1       3.426   6.432  18.264  0.00  0.00    +0.000 C 
ATOM      8  O   UNL     1       3.677   5.547  19.075  0.00  0.00    +0.000 OA
ATOM      9  N   UNL     1       5.457   5.946  15.300  0.00  0.00    +0.000 NA
ATOM     10  H   UNL     1       3.842   7.408  16.468  0.00  0.00    +0.000 HD
ENDROOT
BRANCH   7  11
ATOM     11  C   UNL     1       2.532   7.520  18.730  0.00  0.00    +0.000 A 
ATOM     12  C   UNL     1       1.996   7.598  20.017  0.00  0.00    +0.000 A 
ATOM     13  C   UNL     1       1.228   8.715  20.366  0.00  0.00    +0.000 A 
ATOM     14  C   UNL     1       1.026   9.702  19.413  0.00  0.00    +0.000 A 
ATOM     15 CL   UNL     1       0.122  11.111  19.778  0.00  0.00    +0.000 Cl
ATOM     16  N   UNL     1       1.518   9.657  18.161  0.00  0.00    +0.000 NA
ATOM     17  C   UNL     1       2.271   8.573  17.852  0.00  0.00    +0.000 A 
ENDBRANCH   7  11
TORSDOF 1
ENDMDL
MODEL 8
REMARK VINA RESULT:      -5.8      5.425      7.450
REMARK  Name = 
REMARK  2 active torsions:
REMARK  status: ('A' for Active; 'I' for Inactive)
REMARK    1  A    between atoms: C_1  and  C_2
REMARK    2  A    between atoms: C_7  and  C_9
REMARK                            x       y       z     vdW  Elec       q    Type
REMARK                         _______ _______ _______ _____ _____    ______ ____
ROOT
ATOM      1  C   UNL     1       3.762   2.046  18.998  0.00  0.00    +0.000 C 
ATOM      2  C   UNL     1       3.680   3.517  18.811  0.00  0.00    +0.000 A 
ATOM      3  C   UNL     1       4.269   4.240  17.792  0.00  0.00    +0.000 A 
ATOM      4  S   UNL     1       3.875   5.893  17.950  0.00  0.00    +0.000 S 
ATOM      5  C   UNL     1       2.941   5.537  19.333  0.00  0.00    +0.000 A 
ATOM      6  N   UNL     1       2.266   6.507  20.041  0.00  0.00    +0.000 N 
ATOM      7  C   UNL     1       1.961   7.764  19.567  0.00  0.00    +0.000 C 
ATOM      8  O   UNL     1       2.206   8.206  18.448  0.00  0.00    +0.000 OA
ATOM      9  N   UNL     1       2.951   4.280  19.717  0.00  0.00    +0.000 NA
ATOM     10  H   UNL     1       1.845   6.155  20.888  0.00  0.00    +0.000 HD
ENDROOT
BRANCH   7  11
ATOM     11  C   UNL     1       1.208   8.659  20.479  0.00  0.00    +0.000 A 
ATOM     12  C   UNL     1       1.107   8.470  21.858  0.00  0.00    +0.000 A 
ATOM     13  C   UNL     1       0.434   9.426  22.627  0.00  0.00    +0.000 A 
ATOM     14  C   UNL     1      -0.114  10.526  21.984  0.00  0.00    +0.000 A 
ATOM     15 CL   UNL     1      -0.927  11.751  22.863  0.00  0.00    +0.000 Cl
ATOM     16  N   UNL     1      -0.045  10.737  20.656  0.00  0.00    +0.000 NA
ATOM     17  C   UNL     1       0.625   9.805  19.935  0.00  0.00    +0.000 A 
ENDBRANCH   7  11
TORSDOF 1
ENDMDL
MODEL 9
REMARK VINA RESULT:      -5.8      1.177      1.496
REMARK  Name = 
REMARK  2 active torsions:
REMARK  status: ('A' for Active; 'I' for Inactive)
REMARK    1  A    between atoms: C_1  and  C_2
REMARK    2  A    between atoms: C_7  and  C_9
REMARK                            x       y       z     vdW  Elec       q    Type
REMARK                         _______ _______ _______ _____ _____    ______ ____
ROOT
ATOM      1  C   UNL     1       1.160   2.872  21.126  0.00  0.00    +0.000 C 
ATOM      2  C   UNL     1       1.913   3.882  20.341  0.00  0.00    +0.000 A 
ATOM      3  C   UNL     1       2.096   5.207  20.684  0.00  0.00    +0.000 A 
ATOM      4  S   UNL     1       3.062   5.984  19.511  0.00  0.00    +0.000 S 
ATOM      5  C   UNL     1       3.188   4.519  18.646  0.00  0.00    +0.000 A 
ATOM      6  N   UNL     1       3.901   4.410  17.473  0.00  0.00    +0.000 N 
ATOM      7  C   UNL     1       4.854   5.306  17.040  0.00  0.00    +0.000 C 
ATOM      8  O   UNL     1       5.241   6.308  17.633  0.00  0.00    +0.000 OA
ATOM      9  N   UNL     1       2.513   3.506  19.143  0.00  0.00    +0.000 NA
ATOM     10  H   UNL     1       3.796   3.509  17.030  0.00  0.00    +0.000 HD
ENDROOT
BRANCH   7  11
ATOM     11  C   UNL     1       5.527   5.000  15.754  0.00  0.00    +0.000 A 
ATOM     12  C   UNL     1       6.872   5.261  15.490  0.00  0.00    +0.000 A 
ATOM     13  C   UNL     1       7.416   4.856  14.266  0.00  0.00    +0.000 A 
ATOM     14  C   UNL     1       6.590   4.211  13.358  0.00  0.00    +0.000 A 
ATOM     15 CL   UNL     1       7.192   3.659  11.851  0.00  0.00    +0.000 Cl
ATOM     16  N   UNL     1       5.287   3.949  13.573  0.00  0.00    +0.000 NA
ATOM     17  C   UNL     1       4.788   4.339  14.772  0.00  0.00    +0.000 A 
ENDBRANCH   7  11
TORSDOF 1
ENDMDL
