MODEL 1
REMARK VINA RESULT:      -7.6      0.000      0.000
REMARK  Name = 
REMARK  10 active torsions:
REMARK  status: ('A' for Active; 'I' for Inactive)
REMARK    1  A    between atoms: C_1  and  C_2
REMARK    2  A    between atoms: C_2  and  C_3
REMARK    3  A    between atoms: C_2  and  C_4
REMARK    4  A    between atoms: C_5  and  C_6
REMARK    5  A    between atoms: C_6  and  C_7
REMARK    6  A    between atoms: N_13  and  C_14
REMARK    7  A    between atoms: C_14  and  O_15
REMARK    8  A    between atoms: O_15  and  C_16
REMARK    9  A    between atoms: C_16  and  C_17
REMARK   10  A    between atoms: N_26  and  O_27
REMARK                            x       y       z     vdW  Elec       q    Type
REMARK                         _______ _______ _______ _____ _____    ______ ____
ROOT
ATOM      1  C   UNL     1       2.739   4.240  18.899  0.00  0.00    +0.000 A 
ATOM      2  C   UNL     1       3.353   5.315  18.330  0.00  0.00    +0.000 A 
ATOM      3  N   UNL     1       4.760   5.404  18.297  0.00  0.00    +0.000 N 
ATOM      4  C   UNL     1       5.576   4.435  18.883  0.00  0.00    +0.000 A 
ATOM      5  O   UNL     1       6.807   4.415  18.779  0.00  0.00    +0.000 OA
ATOM      6  N   UNL     1       4.925   3.459  19.592  0.00  0.00    +0.000 N 
ATOM      7  C   UNL     1       3.582   3.191  19.560  0.00  0.00    +0.000 A 
ATOM      8  O   UNL     1       3.081   2.177  20.041  0.00  0.00    +0.000 OA
ENDROOT
BRANCH   1  10
ATOM      9  C   UNL     1       0.818   2.619  18.356  0.00  0.00    +0.000 C 
ATOM     10  C   UNL     1       1.226   3.986  18.929  0.00  0.00    +0.000 C 
ATOM     11  C   UNL     1       0.625   4.197  20.321  0.00  0.00    +0.000 C 
ENDBRANCH   1  10
BRANCH   6  12
ATOM     12  O   UNL     1       5.749   2.464  20.175  0.00  0.00    +0.000 OA
ATOM     13  H   UNL     1       6.041   1.962  19.390  0.00  0.00    +0.000 HD
ENDBRANCH   6  12
BRANCH   2  14
ATOM     14  C   UNL     1       2.534   6.494  17.793  0.00  0.00    +0.000 C 
BRANCH  14  15
ATOM     15  C   UNL     1       2.163   7.611  18.745  0.00  0.00    +0.000 A 
ATOM     16  C   UNL     1       1.755   8.874  18.301  0.00  0.00    +0.000 A 
ATOM     17  C   UNL     1       1.141   9.773  19.176  0.00  0.00    +0.000 A 
ATOM     18  C   UNL     1       0.952   9.433  20.512  0.00  0.00    +0.000 A 
ATOM     19  C   UNL     1       1.421   8.212  20.988  0.00  0.00    +0.000 A 
ATOM     20  C   UNL     1       2.025   7.309  20.112  0.00  0.00    +0.000 A 
ENDBRANCH  14  15
ENDBRANCH   2  14
BRANCH   3  21
ATOM     21  C   UNL     1       5.469   6.459  17.570  0.00  0.00    +0.000 C 
BRANCH  21  22
ATOM     22  O   UNL     1       5.546   6.206  16.173  0.00  0.00    +0.000 OA
BRANCH  22  23
ATOM     23  C   UNL     1       6.779   5.640  15.747  0.00  0.00    +0.000 C 
BRANCH  23  24
ATOM     24  C   UNL     1       6.500   4.835  14.500  0.00  0.00    +0.000 A 
ATOM     25  C   UNL     1       7.414   4.819  13.433  0.00  0.00    +0.000 A 
ATOM     26  C   UNL     1       7.148   4.065  12.287  0.00  0.00    +0.000 A 
ATOM     27  C   UNL     1       5.969   3.334  12.205  0.00  0.00    +0.000 A 
ATOM     28  F   UNL     1       5.718   2.611  11.106  0.00  0.00    +0.000 F 
ATOM     29  C   UNL     1       5.047   3.343  13.243  0.00  0.00    +0.000 A 
ATOM     30  C   UNL     1       5.311   4.094  14.390  0.00  0.00    +0.000 A 
ENDBRANCH  23  24
ENDBRANCH  22  23
ENDBRANCH  21  22
ENDBRANCH   3  21
TORSDOF 8
ENDMDL
MODEL 2
REMARK VINA RESULT:      -7.3      2.435      4.945
REMARK  Name = 
REMARK  10 active torsions:
REMARK  status: ('A' for Active; 'I' for Inactive)
REMARK    1  A    between atoms: C_1  and  C_2
REMARK    2  A    between atoms: C_2  and  C_3
REMARK    3  A    between atoms: C_2  and  C_4
REMARK    4  A    between atoms: C_5  and  C_6
REMARK    5  A    between atoms: C_6  and  C_7
REMARK    6  A    between atoms: N_13  and  C_14
REMARK    7  A    between atoms: C_14  and  O_15
REMARK    8  A    between atoms: O_15  and  C_16
REMARK    9  A    between atoms: C_16  and  C_17
REMARK   10  A    between atoms: N_26  and  O_27
REMARK                            x       y       z     vdW  Elec       q    Type
REMARK                         _______ _______ _______ _____ _____    ______ ____
ROOT
ATOM      1  C   UNL     1       1.544   7.963  20.422  0.00  0.00    +0.000 A 
ATOM      2  C   UNL     1       2.330   6.895  20.113  0.00  0.00    +0.000 A 
ATOM      3  N   UNL     1       3.013   6.839  18.881  0.00  0.00    +0.000 N 
ATOM      4  C   UNL     1       2.877   7.835  17.914  0.00  0.00    +0.000 A 
ATOM      5  O   UNL     1       3.542   7.882  16.873  0.00  0.00    +0.000 OA
ATOM      6  N   UNL     1       1.950   8.806  18.187  0.00  0.00    +0.000 N 
ATOM      7  C   UNL     1       1.354   9.043  19.397  0.00  0.00    +0.000 A 
ATOM      8  O   UNL     1       0.698  10.052  19.647  0.00  0.00    +0.000 OA
ENDROOT
BRANCH   1  10
ATOM      9  C   UNL     1       1.422   9.302  22.614  0.00  0.00    +0.000 C 
ATOM     10  C   UNL     1       0.814   8.183  21.754  0.00  0.00    +0.000 C 
ATOM     11  C   UNL     1      -0.691   8.392  21.568  0.00  0.00    +0.000 C 
ENDBRANCH   1  10
BRANCH   6  12
ATOM     12  O   UNL     1       1.820   9.829  17.215  0.00  0.00    +0.000 OA
ATOM     13  H   UNL     1       0.944   9.630  16.831  0.00  0.00    +0.000 HD
ENDBRANCH   6  12
BRANCH   2  14
ATOM     14  C   UNL     1       2.421   5.688  21.054  0.00  0.00    +0.000 C 
BRANCH  14  15
ATOM     15  C   UNL     1       1.951   4.340  20.550  0.00  0.00    +0.000 A 
ATOM     16  C   UNL     1       0.799   4.188  19.769  0.00  0.00    +0.000 A 
ATOM     17  C   UNL     1       0.559   2.998  19.079  0.00  0.00    +0.000 A 
ATOM     18  C   UNL     1       1.451   1.936  19.181  0.00  0.00    +0.000 A 
ATOM     19  C   UNL     1       2.561   2.042  20.014  0.00  0.00    +0.000 A 
ATOM     20  C   UNL     1       2.808   3.234  20.697  0.00  0.00    +0.000 A 
ENDBRANCH  14  15
ENDBRANCH   2  14
BRANCH   3  21
ATOM     21  C   UNL     1       3.984   5.789  18.561  0.00  0.00    +0.000 C 
BRANCH  21  22
ATOM     22  O   UNL     1       3.507   4.885  17.573  0.00  0.00    +0.000 OA
BRANCH  22  23
ATOM     23  C   UNL     1       4.359   3.770  17.339  0.00  0.00    +0.000 C 
BRANCH  23  24
ATOM     24  C   UNL     1       5.313   4.153  16.233  0.00  0.00    +0.000 A 
ATOM     25  C   UNL     1       4.950   4.000  14.884  0.00  0.00    +0.000 A 
ATOM     26  C   UNL     1       5.840   4.364  13.869  0.00  0.00    +0.000 A 
ATOM     27  C   UNL     1       7.089   4.873  14.201  0.00  0.00    +0.000 A 
ATOM     28  F   UNL     1       7.938   5.223  13.226  0.00  0.00    +0.000 F 
ATOM     29  C   UNL     1       7.471   5.023  15.527  0.00  0.00    +0.000 A 
ATOM     30  C   UNL     1       6.585   4.662  16.544  0.00  0.00    +0.000 A 
ENDBRANCH  23  24
ENDBRANCH  22  23
ENDBRANCH  21  22
ENDBRANCH   3  21
TORSDOF 8
ENDMDL
MODEL 3
REMARK VINA RESULT:      -7.1      4.995      7.673
REMARK  Name = 
REMARK  10 active torsions:
REMARK  status: ('A' for Active; 'I' for Inactive)
REMARK    1  A    between atoms: C_1  and  C_2
REMARK    2  A    between atoms: C_2  and  C_3
REMARK    3  A    between atoms: C_2  and  C_4
REMARK    4  A    between atoms: C_5  and  C_6
REMARK    5  A    between atoms: C_6  and  C_7
REMARK    6  A    between atoms: N_13  and  C_14
REMARK    7  A    between atoms: C_14  and  O_15
REMARK    8  A    between atoms: O_15  and  C_16
REMARK    9  A    between atoms: C_16  and  C_17
REMARK   10  A    between atoms: N_26  and  O_27
REMARK                            x       y       z     vdW  Elec       q    Type
REMARK                         _______ _______ _______ _____ _____    ______ ____
ROOT
ATOM      1  C   UNL     1      -0.982  11.542  20.981  0.00  0.00    +0.000 A 
ATOM      2  C   UNL     1      -0.471  10.826  19.941  0.00  0.00    +0.000 A 
ATOM      3  N   UNL     1       0.295   9.666  20.173  0.00  0.00    +0.000 N 
ATOM      4  C   UNL     1       0.607   9.233  21.462  0.00  0.00    +0.000 A 
ATOM      5  O   UNL     1       1.177   8.165  21.713  0.00  0.00    +0.000 OA
ATOM      6  N   UNL     1       0.223  10.067  22.479  0.00  0.00    +0.000 N 
ATOM      7  C   UNL     1      -0.647  11.120  22.382  0.00  0.00    +0.000 A 
ATOM      8  O   UNL     1      -1.125  11.700  23.355  0.00  0.00    +0.000 OA
ENDROOT
BRANCH   1  10
ATOM      9  C   UNL     1      -3.248  12.604  21.571  0.00  0.00    +0.000 C 
ATOM     10  C   UNL     1      -1.894  12.770  20.863  0.00  0.00    +0.000 C 
ATOM     11  C   UNL     1      -1.198  14.059  21.306  0.00  0.00    +0.000 C 
ENDBRANCH   1  10
BRANCH   6  12
ATOM     12  O   UNL     1       0.524   9.623  23.791  0.00  0.00    +0.000 OA
ATOM     13  H   UNL     1      -0.157  10.084  24.319  0.00  0.00    +0.000 HD
ENDBRANCH   6  12
BRANCH   2  14
ATOM     14  C   UNL     1      -0.642  11.311  18.496  0.00  0.00    +0.000 C 
BRANCH  14  15
ATOM     15  C   UNL     1      -1.908  10.944  17.753  0.00  0.00    +0.000 A 
ATOM     16  C   UNL     1      -3.087  11.692  17.859  0.00  0.00    +0.000 A 
ATOM     17  C   UNL     1      -4.130  11.510  16.949  0.00  0.00    +0.000 A 
ATOM     18  C   UNL     1      -4.021  10.559  15.939  0.00  0.00    +0.000 A 
ATOM     19  C   UNL     1      -2.889   9.753  15.866  0.00  0.00    +0.000 A 
ATOM     20  C   UNL     1      -1.842   9.941  16.769  0.00  0.00    +0.000 A 
ENDBRANCH  14  15
ENDBRANCH   2  14
BRANCH   3  21
ATOM     21  C   UNL     1       0.740   8.781  19.094  0.00  0.00    +0.000 C 
BRANCH  21  22
ATOM     22  O   UNL     1       2.140   8.538  19.127  0.00  0.00    +0.000 OA
BRANCH  22  23
ATOM     23  C   UNL     1       2.608   7.667  18.105  0.00  0.00    +0.000 C 
BRANCH  23  24
ATOM     24  C   UNL     1       2.439   6.251  18.604  0.00  0.00    +0.000 A 
ATOM     25  C   UNL     1       2.929   5.868  19.864  0.00  0.00    +0.000 A 
ATOM     26  C   UNL     1       2.761   4.557  20.317  0.00  0.00    +0.000 A 
ATOM     27  C   UNL     1       2.110   3.630  19.512  0.00  0.00    +0.000 A 
ATOM     28  F   UNL     1       1.949   2.375  19.951  0.00  0.00    +0.000 F 
ATOM     29  C   UNL     1       1.627   3.985  18.260  0.00  0.00    +0.000 A 
ATOM     30  C   UNL     1       1.792   5.294  17.805  0.00  0.00    +0.000 A 
ENDBRANCH  23  24
ENDBRANCH  22  23
ENDBRANCH  21  22
ENDBRANCH   3  21
TORSDOF 8
ENDMDL
MODEL 4
REMARK VINA RESULT:      -7.0      3.086      6.178
REMARK  Name = 
REMARK  10 active torsions:
REMARK  status: ('A' for Active; 'I' for Inactive)
REMARK    1  A    between atoms: C_1  and  C_2
REMARK    2  A    between atoms: C_2  and  C_3
REMARK    3  A    between atoms: C_2  and  C_4
REMARK    4  A    between atoms: C_5  and  C_6
REMARK    5  A    between atoms: C_6  and  C_7
REMARK    6  A    between atoms: N_13  and  C_14
REMARK    7  A    between atoms: C_14  and  O_15
REMARK    8  A    between atoms: O_15  and  C_16
REMARK    9  A    between atoms: C_16  and  C_17
REMARK   10  A    between atoms: N_26  and  O_27
REMARK                            x       y       z     vdW  Elec       q    Type
REMARK                         _______ _______ _______ _____ _____    ______ ____
ROOT
ATOM      1  C   UNL     1       6.411   5.844  17.262  0.00  0.00    +0.000 A 
ATOM      2  C   UNL     1       5.202   5.224  17.357  0.00  0.00    +0.000 A 
ATOM      3  N   UNL     1       4.671   4.514  16.260  0.00  0.00    +0.000 N 
ATOM      4  C   UNL     1       5.324   4.458  15.029  0.00  0.00    +0.000 A 
ATOM      5  O   UNL     1       4.953   3.758  14.081  0.00  0.00    +0.000 OA
ATOM      6  N   UNL     1       6.449   5.232  14.918  0.00  0.00    +0.000 N 
ATOM      7  C   UNL     1       7.131   5.827  15.946  0.00  0.00    +0.000 A 
ATOM      8  O   UNL     1       8.247   6.327  15.823  0.00  0.00    +0.000 OA
ENDROOT
BRANCH   1  10
ATOM      9  C   UNL     1       8.138   5.699  19.161  0.00  0.00    +0.000 C 
ATOM     10  C   UNL     1       7.133   6.578  18.400  0.00  0.00    +0.000 C 
ATOM     11  C   UNL     1       7.787   7.881  17.932  0.00  0.00    +0.000 C 
ENDBRANCH   1  10
BRANCH   6  12
ATOM     12  O   UNL     1       7.126   5.167  13.674  0.00  0.00    +0.000 OA
ATOM     13  H   UNL     1       7.730   5.931  13.735  0.00  0.00    +0.000 HD
ENDBRANCH   6  12
BRANCH   2  14
ATOM     14  C   UNL     1       4.349   5.355  18.624  0.00  0.00    +0.000 C 
BRANCH  14  15
ATOM     15  C   UNL     1       3.291   6.437  18.675  0.00  0.00    +0.000 A 
ATOM     16  C   UNL     1       2.467   6.631  19.791  0.00  0.00    +0.000 A 
ATOM     17  C   UNL     1       1.721   7.803  19.929  0.00  0.00    +0.000 A 
ATOM     18  C   UNL     1       1.765   8.783  18.942  0.00  0.00    +0.000 A 
ATOM     19  C   UNL     1       2.518   8.572  17.790  0.00  0.00    +0.000 A 
ATOM     20  C   UNL     1       3.273   7.406  17.656  0.00  0.00    +0.000 A 
ENDBRANCH  14  15
ENDBRANCH   2  14
BRANCH   3  21
ATOM     21  C   UNL     1       3.451   3.707  16.355  0.00  0.00    +0.000 C 
BRANCH  21  22
ATOM     22  O   UNL     1       3.667   2.461  17.005  0.00  0.00    +0.000 OA
BRANCH  22  23
ATOM     23  C   UNL     1       2.489   1.864  17.532  0.00  0.00    +0.000 C 
BRANCH  23  24
ATOM     24  C   UNL     1       2.370   2.296  18.975  0.00  0.00    +0.000 A 
ATOM     25  C   UNL     1       3.459   2.181  19.854  0.00  0.00    +0.000 A 
ATOM     26  C   UNL     1       3.338   2.590  21.185  0.00  0.00    +0.000 A 
ATOM     27  C   UNL     1       2.130   3.106  21.637  0.00  0.00    +0.000 A 
ATOM     28  F   UNL     1       2.018   3.500  22.912  0.00  0.00    +0.000 F 
ATOM     29  C   UNL     1       1.038   3.220  20.787  0.00  0.00    +0.000 A 
ATOM     30  C   UNL     1       1.156   2.814  19.457  0.00  0.00    +0.000 A 
ENDBRANCH  23  24
ENDBRANCH  22  23
ENDBRANCH  21  22
ENDBRANCH   3  21
TORSDOF 8
ENDMDL
MODEL 5
REMARK VINA RESULT:      -7.0      4.855      7.621
REMARK  Name = 
REMARK  10 active torsions:
REMARK  status: ('A' for Active; 'I' for Inactive)
REMARK    1  A    between atoms: C_1  and  C_2
REMARK    2  A    between atoms: C_2  and  C_3
REMARK    3  A    between atoms: C_2  and  C_4
REMARK    4  A    between atoms: C_5  and  C_6
REMARK    5  A    between atoms: C_6  and  C_7
REMARK    6  A    between atoms: N_13  and  C_14
REMARK    7  A    between atoms: C_14  and  O_15
REMARK    8  A    between atoms: O_15  and  C_16
REMARK    9  A    between atoms: C_16  and  C_17
REMARK   10  A    between atoms: N_26  and  O_27
REMARK                            x       y       z     vdW  Elec       q    Type
REMARK                         _______ _______ _______ _____ _____    ______ ____
ROOT
ATOM      1  C   UNL     1      -0.374  12.145  20.303  0.00  0.00    +0.000 A 
ATOM      2  C   UNL     1      -0.127  11.166  19.388  0.00  0.00    +0.000 A 
ATOM      3  N   UNL     1       1.033  11.204  18.589  0.00  0.00    +0.000 N 
ATOM      4  C   UNL     1       1.944  12.259  18.658  0.00  0.00    +0.000 A 
ATOM      5  O   UNL     1       3.026  12.278  18.061  0.00  0.00    +0.000 OA
ATOM      6  N   UNL     1       1.579  13.307  19.463  0.00  0.00    +0.000 N 
ATOM      7  C   UNL     1       0.570  13.308  20.389  0.00  0.00    +0.000 A 
ATOM      8  O   UNL     1       0.422  14.190  21.231  0.00  0.00    +0.000 OA
ENDROOT
BRANCH   1  10
ATOM      9  C   UNL     1      -1.133  12.047  22.758  0.00  0.00    +0.000 C 
ATOM     10  C   UNL     1      -1.552  12.178  21.284  0.00  0.00    +0.000 C 
ATOM     11  C   UNL     1      -2.451  13.400  21.078  0.00  0.00    +0.000 C 
ENDBRANCH   1  10
BRANCH   6  12
ATOM     12  O   UNL     1       2.509  14.374  19.549  0.00  0.00    +0.000 OA
ATOM     13  H   UNL     1       1.938  15.113  19.835  0.00  0.00    +0.000 HD
ENDBRANCH   6  12
BRANCH   2  14
ATOM     14  C   UNL     1      -1.146  10.046  19.143  0.00  0.00    +0.000 C 
BRANCH  14  15
ATOM     15  C   UNL     1      -2.207  10.253  18.083  0.00  0.00    +0.000 A 
ATOM     16  C   UNL     1      -3.311  11.092  18.276  0.00  0.00    +0.000 A 
ATOM     17  C   UNL     1      -4.099  11.493  17.195  0.00  0.00    +0.000 A 
ATOM     18  C   UNL     1      -3.811  11.039  15.911  0.00  0.00    +0.000 A 
ATOM     19  C   UNL     1      -2.764  10.143  15.712  0.00  0.00    +0.000 A 
ATOM     20  C   UNL     1      -1.970   9.750  16.791  0.00  0.00    +0.000 A 
ENDBRANCH  14  15
ENDBRANCH   2  14
BRANCH   3  21
ATOM     21  C   UNL     1       1.420  10.106  17.700  0.00  0.00    +0.000 C 
BRANCH  21  22
ATOM     22  O   UNL     1       2.469   9.310  18.237  0.00  0.00    +0.000 OA
BRANCH  22  23
ATOM     23  C   UNL     1       2.033   8.113  18.867  0.00  0.00    +0.000 C 
BRANCH  23  24
ATOM     24  C   UNL     1       2.774   6.966  18.222  0.00  0.00    +0.000 A 
ATOM     25  C   UNL     1       3.961   7.187  17.505  0.00  0.00    +0.000 A 
ATOM     26  C   UNL     1       4.641   6.117  16.918  0.00  0.00    +0.000 A 
ATOM     27  C   UNL     1       4.133   4.830  17.042  0.00  0.00    +0.000 A 
ATOM     28  F   UNL     1       4.788   3.806  16.480  0.00  0.00    +0.000 F 
ATOM     29  C   UNL     1       2.956   4.589  17.739  0.00  0.00    +0.000 A 
ATOM     30  C   UNL     1       2.275   5.656  18.328  0.00  0.00    +0.000 A 
ENDBRANCH  23  24
ENDBRANCH  22  23
ENDBRANCH  21  22
ENDBRANCH   3  21
TORSDOF 8
ENDMDL
MODEL 6
REMARK VINA RESULT:      -6.9      4.905      7.411
REMARK  Name = 
REMARK  10 active torsions:
REMARK  status: ('A' for Active; 'I' for Inactive)
REMARK    1  A    between atoms: C_1  and  C_2
REMARK    2  A    between atoms: C_2  and  C_3
REMARK    3  A    between atoms: C_2  and  C_4
REMARK    4  A    between atoms: C_5  and  C_6
REMARK    5  A    between atoms: C_6  and  C_7
REMARK    6  A    between atoms: N_13  and  C_14
REMARK    7  A    between atoms: C_14  and  O_15
REMARK    8  A    between atoms: O_15  and  C_16
REMARK    9  A    between atoms: C_16  and  C_17
REMARK   10  A    between atoms: N_26  and  O_27
REMARK                            x       y       z     vdW  Elec       q    Type
REMARK                         _______ _______ _______ _____ _____    ______ ____
ROOT
ATOM      1  C   UNL     1      -1.024  11.633  21.112  0.00  0.00    +0.000 A 
ATOM      2  C   UNL     1      -0.529  10.913  20.067  0.00  0.00    +0.000 A 
ATOM      3  N   UNL     1       0.211   9.735  20.292  0.00  0.00    +0.000 N 
ATOM      4  C   UNL     1       0.512   9.286  21.578  0.00  0.00    +0.000 A 
ATOM      5  O   UNL     1       1.058   8.204  21.822  0.00  0.00    +0.000 OA
ATOM      6  N   UNL     1       0.147  10.121  22.601  0.00  0.00    +0.000 N 
ATOM      7  C   UNL     1      -0.700  11.194  22.510  0.00  0.00    +0.000 A 
ATOM      8  O   UNL     1      -1.165  11.778  23.486  0.00  0.00    +0.000 OA
ENDROOT
BRANCH   1  10
ATOM      9  C   UNL     1      -3.268  12.740  21.704  0.00  0.00    +0.000 C 
ATOM     10  C   UNL     1      -1.908  12.882  21.001  0.00  0.00    +0.000 C 
ATOM     11  C   UNL     1      -1.185  14.152  21.459  0.00  0.00    +0.000 C 
ENDBRANCH   1  10
BRANCH   6  12
ATOM     12  O   UNL     1       0.436   9.662  23.910  0.00  0.00    +0.000 OA
ATOM     13  H   UNL     1      -0.109   8.853  23.963  0.00  0.00    +0.000 HD
ENDBRANCH   6  12
BRANCH   2  14
ATOM     14  C   UNL     1      -0.687  11.412  18.626  0.00  0.00    +0.000 C 
BRANCH  14  15
ATOM     15  C   UNL     1      -1.921  11.004  17.850  0.00  0.00    +0.000 A 
ATOM     16  C   UNL     1      -3.136  11.693  17.951  0.00  0.00    +0.000 A 
ATOM     17  C   UNL     1      -4.153  11.485  17.017  0.00  0.00    +0.000 A 
ATOM     18  C   UNL     1      -3.981  10.566  15.986  0.00  0.00    +0.000 A 
ATOM     19  C   UNL     1      -2.810   9.817  15.915  0.00  0.00    +0.000 A 
ATOM     20  C   UNL     1      -1.789  10.031  16.842  0.00  0.00    +0.000 A 
ENDBRANCH  14  15
ENDBRANCH   2  14
BRANCH   3  21
ATOM     21  C   UNL     1       0.637   8.847  19.207  0.00  0.00    +0.000 C 
BRANCH  21  22
ATOM     22  O   UNL     1       2.000   9.036  18.848  0.00  0.00    +0.000 OA
BRANCH  22  23
ATOM     23  C   UNL     1       2.346   8.513  17.571  0.00  0.00    +0.000 C 
BRANCH  23  24
ATOM     24  C   UNL     1       3.051   7.197  17.798  0.00  0.00    +0.000 A 
ATOM     25  C   UNL     1       4.418   7.053  17.508  0.00  0.00    +0.000 A 
ATOM     26  C   UNL     1       5.061   5.831  17.728  0.00  0.00    +0.000 A 
ATOM     27  C   UNL     1       4.339   4.756  18.230  0.00  0.00    +0.000 A 
ATOM     28  F   UNL     1       4.958   3.588  18.442  0.00  0.00    +0.000 F 
ATOM     29  C   UNL     1       2.985   4.874  18.514  0.00  0.00    +0.000 A 
ATOM     30  C   UNL     1       2.340   6.093  18.297  0.00  0.00    +0.000 A 
ENDBRANCH  23  24
ENDBRANCH  22  23
ENDBRANCH  21  22
ENDBRANCH   3  21
TORSDOF 8
ENDMDL
MODEL 7
REMARK VINA RESULT:      -6.9      6.752      9.603
REMARK  Name = 
REMARK  10 active torsions:
REMARK  status: ('A' for Active; 'I' for Inactive)
REMARK    1  A    between atoms: C_1  and  C_2
REMARK    2  A    between atoms: C_2  and  C_3
REMARK    3  A    between atoms: C_2  and  C_4
REMARK    4  A    between atoms: C_5  and  C_6
REMARK    5  A    between atoms: C_6  and  C_7
REMARK    6  A    between atoms: N_13  and  C_14
REMARK    7  A    between atoms: C_14  and  O_15
REMARK    8  A    between atoms: O_15  and  C_16
REMARK    9  A    between atoms: C_16  and  C_17
REMARK   10  A    between atoms: N_26  and  O_27
REMARK                            x       y       z     vdW  Elec       q    Type
REMARK                         _______ _______ _______ _____ _____    ______ ____
ROOT
ATOM      1  C   UNL     1      -4.104  12.569  20.717  0.00  0.00    +0.000 A 
ATOM      2  C   UNL     1      -2.813  12.400  20.316  0.00  0.00    +0.000 A 
ATOM      3  N   UNL     1      -1.799  12.119  21.254  0.00  0.00    +0.000 N 
ATOM      4  C   UNL     1      -2.057  12.054  22.624  0.00  0.00    +0.000 A 
ATOM      5  O   UNL     1      -1.226  11.701  23.467  0.00  0.00    +0.000 OA
ATOM      6  N   UNL     1      -3.328  12.397  23.006  0.00  0.00    +0.000 N 
ATOM      7  C   UNL     1      -4.415  12.532  22.184  0.00  0.00    +0.000 A 
ATOM      8  O   UNL     1      -5.570  12.627  22.595  0.00  0.00    +0.000 OA
ENDROOT
BRANCH   1  10
ATOM      9  C   UNL     1      -6.341  11.662  19.832  0.00  0.00    +0.000 C 
ATOM     10  C   UNL     1      -5.307  12.799  19.793  0.00  0.00    +0.000 C 
ATOM     11  C   UNL     1      -5.975  14.156  20.030  0.00  0.00    +0.000 C 
ENDBRANCH   1  10
BRANCH   6  12
ATOM     12  O   UNL     1      -3.599  12.318  24.395  0.00  0.00    +0.000 OA
ATOM     13  H   UNL     1      -2.725  12.518  24.781  0.00  0.00    +0.000 HD
ENDBRANCH   6  12
BRANCH   2  14
ATOM     14  C   UNL     1      -2.415  12.597  18.848  0.00  0.00    +0.000 C 
BRANCH  14  15
ATOM     15  C   UNL     1      -2.754  11.508  17.853  0.00  0.00    +0.000 A 
ATOM     16  C   UNL     1      -3.866  11.580  17.007  0.00  0.00    +0.000 A 
ATOM     17  C   UNL     1      -3.985  10.723  15.911  0.00  0.00    +0.000 A 
ATOM     18  C   UNL     1      -3.008   9.763  15.663  0.00  0.00    +0.000 A 
ATOM     19  C   UNL     1      -1.934   9.626  16.538  0.00  0.00    +0.000 A 
ATOM     20  C   UNL     1      -1.810  10.489  17.627  0.00  0.00    +0.000 A 
ENDBRANCH  14  15
ENDBRANCH   2  14
BRANCH   3  21
ATOM     21  C   UNL     1      -0.429  11.782  20.862  0.00  0.00    +0.000 C 
BRANCH  21  22
ATOM     22  O   UNL     1      -0.321  10.473  20.317  0.00  0.00    +0.000 OA
BRANCH  22  23
ATOM     23  C   UNL     1       0.486   9.585  21.080  0.00  0.00    +0.000 C 
BRANCH  23  24
ATOM     24  C   UNL     1       1.255   8.723  20.107  0.00  0.00    +0.000 A 
ATOM     25  C   UNL     1       1.448   9.133  18.778  0.00  0.00    +0.000 A 
ATOM     26  C   UNL     1       2.167   8.329  17.889  0.00  0.00    +0.000 A 
ATOM     27  C   UNL     1       2.686   7.116  18.326  0.00  0.00    +0.000 A 
ATOM     28  F   UNL     1       3.377   6.349  17.473  0.00  0.00    +0.000 F 
ATOM     29  C   UNL     1       2.499   6.688  19.634  0.00  0.00    +0.000 A 
ATOM     30  C   UNL     1       1.782   7.489  20.524  0.00  0.00    +0.000 A 
ENDBRANCH  23  24
ENDBRANCH  22  23
ENDBRANCH  21  22
ENDBRANCH   3  21
TORSDOF 8
ENDMDL
MODEL 8
REMARK VINA RESULT:      -6.9      2.401      4.996
REMARK  Name = 
REMARK  10 active torsions:
REMARK  status: ('A' for Active; 'I' for Inactive)
REMARK    1  A    between atoms: C_1  and  C_2
REMARK    2  A    between atoms: C_2  and  C_3
REMARK    3  A    between atoms: C_2  and  C_4
REMARK    4  A    between atoms: C_5  and  C_6
REMARK    5  A    between atoms: C_6  and  C_7
REMARK    6  A    between atoms: N_13  and  C_14
REMARK    7  A    between atoms: C_14  and  O_15
REMARK    8  A    between atoms: O_15  and  C_16
REMARK    9  A    between atoms: C_16  and  C_17
REMARK   10  A    between atoms: N_26  and  O_27
REMARK                            x       y       z     vdW  Elec       q    Type
REMARK                         _______ _______ _______ _____ _____    ______ ____
ROOT
ATOM      1  C   UNL     1       1.513   8.106  20.373  0.00  0.00    +0.000 A 
ATOM      2  C   UNL     1       2.205   7.024  19.921  0.00  0.00    +0.000 A 
ATOM      3  N   UNL     1       2.817   7.042  18.651  0.00  0.00    +0.000 N 
ATOM      4  C   UNL     1       2.700   8.133  17.789  0.00  0.00    +0.000 A 
ATOM      5  O   UNL     1       3.311   8.237  16.720  0.00  0.00    +0.000 OA
ATOM      6  N   UNL     1       1.858   9.131  18.205  0.00  0.00    +0.000 N 
ATOM      7  C   UNL     1       1.344   9.289  19.465  0.00  0.00    +0.000 A 
ATOM      8  O   UNL     1       0.774  10.309  19.844  0.00  0.00    +0.000 OA
ENDROOT
BRANCH   1  10
ATOM      9  C   UNL     1       1.524   9.323  22.639  0.00  0.00    +0.000 C 
ATOM     10  C   UNL     1       0.871   8.243  21.760  0.00  0.00    +0.000 C 
ATOM     11  C   UNL     1      -0.645   8.442  21.685  0.00  0.00    +0.000 C 
ENDBRANCH   1  10
BRANCH   6  12
ATOM     12  O   UNL     1       1.748  10.249  17.341  0.00  0.00    +0.000 OA
ATOM     13  H   UNL     1       1.478  10.954  17.960  0.00  0.00    +0.000 HD
ENDBRANCH   6  12
BRANCH   2  14
ATOM     14  C   UNL     1       2.262   5.729  20.740  0.00  0.00    +0.000 C 
BRANCH  14  15
ATOM     15  C   UNL     1       2.156   4.406  20.012  0.00  0.00    +0.000 A 
ATOM     16  C   UNL     1       3.180   3.452  20.033  0.00  0.00    +0.000 A 
ATOM     17  C   UNL     1       2.942   2.142  19.612  0.00  0.00    +0.000 A 
ATOM     18  C   UNL     1       1.686   1.775  19.139  0.00  0.00    +0.000 A 
ATOM     19  C   UNL     1       0.678   2.730  19.039  0.00  0.00    +0.000 A 
ATOM     20  C   UNL     1       0.912   4.037  19.469  0.00  0.00    +0.000 A 
ENDBRANCH  14  15
ENDBRANCH   2  14
BRANCH   3  21
ATOM     21  C   UNL     1       3.695   5.968  18.179  0.00  0.00    +0.000 C 
BRANCH  21  22
ATOM     22  O   UNL     1       5.055   6.174  18.538  0.00  0.00    +0.000 OA
BRANCH  22  23
ATOM     23  C   UNL     1       5.870   5.013  18.438  0.00  0.00    +0.000 C 
BRANCH  23  24
ATOM     24  C   UNL     1       6.086   4.737  16.969  0.00  0.00    +0.000 A 
ATOM     25  C   UNL     1       7.040   5.459  16.233  0.00  0.00    +0.000 A 
ATOM     26  C   UNL     1       7.235   5.191  14.876  0.00  0.00    +0.000 A 
ATOM     27  C   UNL     1       6.476   4.207  14.255  0.00  0.00    +0.000 A 
ATOM     28  F   UNL     1       6.668   3.950  12.954  0.00  0.00    +0.000 F 
ATOM     29  C   UNL     1       5.522   3.487  14.961  0.00  0.00    +0.000 A 
ATOM     30  C   UNL     1       5.325   3.752  16.317  0.00  0.00    +0.000 A 
ENDBRANCH  23  24
ENDBRANCH  22  23
ENDBRANCH  21  22
ENDBRANCH   3  21
TORSDOF 8
ENDMDL
MODEL 9
REMARK VINA RESULT:      -6.9      5.153      8.157
REMARK  Name = 
REMARK  10 active torsions:
REMARK  status: ('A' for Active; 'I' for Inactive)
REMARK    1  A    between atoms: C_1  and  C_2
REMARK    2  A    between atoms: C_2  and  C_3
REMARK    3  A    between atoms: C_2  and  C_4
REMARK    4  A    between atoms: C_5  and  C_6
REMARK    5  A    between atoms: C_6  and  C_7
REMARK    6  A    between atoms: N_13  and  C_14
REMARK    7  A    between atoms: C_14  and  O_15
REMARK    8  A    between atoms: O_15  and  C_16
REMARK    9  A    between atoms: C_16  and  C_17
REMARK   10  A    between atoms: N_26  and  O_27
REMARK                            x       y       z     vdW  Elec       q    Type
REMARK                         _______ _______ _______ _____ _____    ______ ____
ROOT
ATOM      1  C   UNL     1      -0.498  12.179  20.387  0.00  0.00    +0.000 A 
ATOM      2  C   UNL     1      -0.254  11.188  19.485  0.00  0.00    +0.000 A 
ATOM      3  N   UNL     1       0.921  11.199  18.705  0.00  0.00    +0.000 N 
ATOM      4  C   UNL     1       1.849  12.238  18.782  0.00  0.00    +0.000 A 
ATOM      5  O   UNL     1       2.941  12.232  18.204  0.00  0.00    +0.000 OA
ATOM      6  N   UNL     1       1.490  13.299  19.572  0.00  0.00    +0.000 N 
ATOM      7  C   UNL     1       0.466  13.326  20.480  0.00  0.00    +0.000 A 
ATOM      8  O   UNL     1       0.319  14.217  21.313  0.00  0.00    +0.000 OA
ENDROOT
BRANCH   1  10
ATOM      9  C   UNL     1      -1.300  12.125  22.829  0.00  0.00    +0.000 C 
ATOM     10  C   UNL     1      -1.693  12.242  21.347  0.00  0.00    +0.000 C 
ATOM     11  C   UNL     1      -2.570  13.473  21.109  0.00  0.00    +0.000 C 
ENDBRANCH   1  10
BRANCH   6  12
ATOM     12  O   UNL     1       2.437  14.349  19.666  0.00  0.00    +0.000 OA
ATOM     13  H   UNL     1       2.671  14.492  18.728  0.00  0.00    +0.000 HD
ENDBRANCH   6  12
BRANCH   2  14
ATOM     14  C   UNL     1      -1.289  10.086  19.230  0.00  0.00    +0.000 C 
BRANCH  14  15
ATOM     15  C   UNL     1      -2.304  10.288  18.125  0.00  0.00    +0.000 A 
ATOM     16  C   UNL     1      -3.380  11.175  18.245  0.00  0.00    +0.000 A 
ATOM     17  C   UNL     1      -4.115  11.560  17.122  0.00  0.00    +0.000 A 
ATOM     18  C   UNL     1      -3.802  11.041  15.868  0.00  0.00    +0.000 A 
ATOM     19  C   UNL     1      -2.786  10.099  15.743  0.00  0.00    +0.000 A 
ATOM     20  C   UNL     1      -2.044   9.722  16.864  0.00  0.00    +0.000 A 
ENDBRANCH  14  15
ENDBRANCH   2  14
BRANCH   3  21
ATOM     21  C   UNL     1       1.302  10.086  17.832  0.00  0.00    +0.000 C 
BRANCH  21  22
ATOM     22  O   UNL     1       1.512   8.876  18.547  0.00  0.00    +0.000 OA
BRANCH  22  23
ATOM     23  C   UNL     1       2.571   8.073  18.042  0.00  0.00    +0.000 C 
BRANCH  23  24
ATOM     24  C   UNL     1       2.467   6.718  18.702  0.00  0.00    +0.000 A 
ATOM     25  C   UNL     1       2.055   6.599  20.039  0.00  0.00    +0.000 A 
ATOM     26  C   UNL     1       1.956   5.340  20.638  0.00  0.00    +0.000 A 
ATOM     27  C   UNL     1       2.274   4.204  19.903  0.00  0.00    +0.000 A 
ATOM     28  F   UNL     1       2.177   2.999  20.478  0.00  0.00    +0.000 F 
ATOM     29  C   UNL     1       2.692   4.300  18.583  0.00  0.00    +0.000 A 
ATOM     30  C   UNL     1       2.790   5.556  17.982  0.00  0.00    +0.000 A 
ENDBRANCH  23  24
ENDBRANCH  22  23
ENDBRANCH  21  22
ENDBRANCH   3  21
TORSDOF 8
ENDMDL
