MODEL 1
REMARK VINA RESULT:      -8.2      0.000      0.000
REMARK  Name = 
REMARK  1 active torsions:
REMARK  status: ('A' for Active; 'I' for Inactive)
REMARK    1  A    between atoms: N_14  and  C_15
REMARK                            x       y       z     vdW  Elec       q    Type
REMARK                         _______ _______ _______ _____ _____    ______ ____
ROOT
ATOM      1  O   UNL     1       1.921   3.304  22.079  0.00  0.00    +0.000 OA
ATOM      2  C   UNL     1       2.273   4.061  21.178  0.00  0.00    +0.000 A 
ATOM      3  O   UNL     1       1.838   5.404  21.149  0.00  0.00    +0.000 OA
ATOM      4  C   UNL     1       2.181   6.306  20.098  0.00  0.00    +0.000 A 
ATOM      5  C   UNL     1       1.578   7.562  20.161  0.00  0.00    +0.000 A 
ATOM      6  C   UNL     1       1.847   8.490  19.161  0.00  0.00    +0.000 A 
ATOM      7  C   UNL     1       2.680   8.141  18.099  0.00  0.00    +0.000 A 
ATOM      8  C   UNL     1       3.243   6.859  18.026  0.00  0.00    +0.000 A 
ATOM      9  C   UNL     1       3.042   5.932  19.047  0.00  0.00    +0.000 A 
ATOM     10  C   UNL     1       3.564   4.570  19.107  0.00  0.00    +0.000 A 
ATOM     11  C   UNL     1       3.144   3.685  20.087  0.00  0.00    +0.000 A 
ATOM     12  N   UNL     1       3.606   2.434  19.830  0.00  0.00    +0.000 NA
ATOM     13  N   UNL     1       4.286   2.489  18.695  0.00  0.00    +0.000 NA
ATOM     14  N   UNL     1       4.368   3.788  18.289  0.00  0.00    +0.000 N 
ENDROOT
BRANCH  14  15
ATOM     15  C   UNL     1       5.213   4.103  17.195  0.00  0.00    +0.000 A 
ATOM     16  C   UNL     1       6.522   4.538  17.457  0.00  0.00    +0.000 A 
ATOM     17  C   UNL     1       7.392   4.820  16.403  0.00  0.00    +0.000 A 
ATOM     18  C   UNL     1       6.956   4.693  15.087  0.00  0.00    +0.000 A 
ATOM     19  C   UNL     1       5.642   4.311  14.822  0.00  0.00    +0.000 A 
ATOM     20  C   UNL     1       4.762   4.036  15.873  0.00  0.00    +0.000 A 
ENDBRANCH  14  15
TORSDOF 1
ENDMDL
MODEL 2
REMARK VINA RESULT:      -8.2      0.061      1.082
REMARK  Name = 
REMARK  1 active torsions:
REMARK  status: ('A' for Active; 'I' for Inactive)
REMARK    1  A    between atoms: N_14  and  C_15
REMARK                            x       y       z     vdW  Elec       q    Type
REMARK                         _______ _______ _______ _____ _____    ______ ____
ROOT
ATOM      1  O   UNL     1       1.897   3.294  22.053  0.00  0.00    +0.000 OA
ATOM      2  C   UNL     1       2.259   4.058  21.162  0.00  0.00    +0.000 A 
ATOM      3  O   UNL     1       1.828   5.402  21.141  0.00  0.00    +0.000 OA
ATOM      4  C   UNL     1       2.185   6.312  20.101  0.00  0.00    +0.000 A 
ATOM      5  C   UNL     1       1.585   7.570  20.170  0.00  0.00    +0.000 A 
ATOM      6  C   UNL     1       1.865   8.505  19.180  0.00  0.00    +0.000 A 
ATOM      7  C   UNL     1       2.707   8.164  18.124  0.00  0.00    +0.000 A 
ATOM      8  C   UNL     1       3.267   6.881  18.044  0.00  0.00    +0.000 A 
ATOM      9  C   UNL     1       3.053   5.945  19.055  0.00  0.00    +0.000 A 
ATOM     10  C   UNL     1       3.571   4.581  19.107  0.00  0.00    +0.000 A 
ATOM     11  C   UNL     1       3.138   3.689  20.075  0.00  0.00    +0.000 A 
ATOM     12  N   UNL     1       3.599   2.438  19.811  0.00  0.00    +0.000 NA
ATOM     13  N   UNL     1       4.290   2.501  18.684  0.00  0.00    +0.000 NA
ATOM     14  N   UNL     1       4.380   3.803  18.290  0.00  0.00    +0.000 N 
ENDROOT
BRANCH  14  15
ATOM     15  C   UNL     1       5.236   4.125  17.206  0.00  0.00    +0.000 A 
ATOM     16  C   UNL     1       4.730   4.045  15.900  0.00  0.00    +0.000 A 
ATOM     17  C   UNL     1       5.534   4.391  14.813  0.00  0.00    +0.000 A 
ATOM     18  C   UNL     1       6.850   4.796  15.021  0.00  0.00    +0.000 A 
ATOM     19  C   UNL     1       7.373   4.828  16.313  0.00  0.00    +0.000 A 
ATOM     20  C   UNL     1       6.576   4.473  17.406  0.00  0.00    +0.000 A 
ENDBRANCH  14  15
TORSDOF 1
ENDMDL
MODEL 3
REMARK VINA RESULT:      -7.8      2.698      5.757
REMARK  Name = 
REMARK  1 active torsions:
REMARK  status: ('A' for Active; 'I' for Inactive)
REMARK    1  A    between atoms: N_14  and  C_15
REMARK                            x       y       z     vdW  Elec       q    Type
REMARK                         _______ _______ _______ _____ _____    ______ ____
ROOT
ATOM      1  O   UNL     1       6.042   3.972  16.252  0.00  0.00    +0.000 OA
ATOM      2  C   UNL     1       5.036   4.133  16.939  0.00  0.00    +0.000 A 
ATOM      3  O   UNL     1       4.356   3.030  17.498  0.00  0.00    +0.000 OA
ATOM      4  C   UNL     1       3.158   3.166  18.261  0.00  0.00    +0.000 A 
ATOM      5  C   UNL     1       2.551   1.970  18.646  0.00  0.00    +0.000 A 
ATOM      6  C   UNL     1       1.367   2.019  19.375  0.00  0.00    +0.000 A 
ATOM      7  C   UNL     1       0.792   3.252  19.678  0.00  0.00    +0.000 A 
ATOM      8  C   UNL     1       1.391   4.444  19.246  0.00  0.00    +0.000 A 
ATOM      9  C   UNL     1       2.609   4.426  18.569  0.00  0.00    +0.000 A 
ATOM     10  C   UNL     1       3.347   5.581  18.065  0.00  0.00    +0.000 A 
ATOM     11  C   UNL     1       4.455   5.421  17.249  0.00  0.00    +0.000 A 
ATOM     12  N   UNL     1       4.854   6.618  16.747  0.00  0.00    +0.000 NA
ATOM     13  N   UNL     1       4.012   7.535  17.196  0.00  0.00    +0.000 NA
ATOM     14  N   UNL     1       3.153   6.955  18.081  0.00  0.00    +0.000 N 
ENDROOT
BRANCH  14  15
ATOM     15  C   UNL     1       2.284   7.790  18.828  0.00  0.00    +0.000 A 
ATOM     16  C   UNL     1       1.706   8.901  18.194  0.00  0.00    +0.000 A 
ATOM     17  C   UNL     1       0.817   9.721  18.890  0.00  0.00    +0.000 A 
ATOM     18  C   UNL     1       0.519   9.453  20.223  0.00  0.00    +0.000 A 
ATOM     19  C   UNL     1       1.130   8.381  20.872  0.00  0.00    +0.000 A 
ATOM     20  C   UNL     1       2.029   7.561  20.184  0.00  0.00    +0.000 A 
ENDBRANCH  14  15
TORSDOF 1
ENDMDL
MODEL 4
REMARK VINA RESULT:      -7.7      2.791      5.699
REMARK  Name = 
REMARK  1 active torsions:
REMARK  status: ('A' for Active; 'I' for Inactive)
REMARK    1  A    between atoms: N_14  and  C_15
REMARK                            x       y       z     vdW  Elec       q    Type
REMARK                         _______ _______ _______ _____ _____    ______ ____
ROOT
ATOM      1  O   UNL     1       6.109   3.924  15.967  0.00  0.00    +0.000 OA
ATOM      2  C   UNL     1       5.102   4.082  16.652  0.00  0.00    +0.000 A 
ATOM      3  O   UNL     1       4.395   2.975  17.168  0.00  0.00    +0.000 OA
ATOM      4  C   UNL     1       3.195   3.109  17.928  0.00  0.00    +0.000 A 
ATOM      5  C   UNL     1       2.560   1.914  18.267  0.00  0.00    +0.000 A 
ATOM      6  C   UNL     1       1.373   1.962  18.990  0.00  0.00    +0.000 A 
ATOM      7  C   UNL     1       0.821   3.196  19.332  0.00  0.00    +0.000 A 
ATOM      8  C   UNL     1       1.448   4.389  18.946  0.00  0.00    +0.000 A 
ATOM      9  C   UNL     1       2.670   4.369  18.276  0.00  0.00    +0.000 A 
ATOM     10  C   UNL     1       3.435   5.525  17.817  0.00  0.00    +0.000 A 
ATOM     11  C   UNL     1       4.546   5.370  17.003  0.00  0.00    +0.000 A 
ATOM     12  N   UNL     1       4.973   6.576  16.545  0.00  0.00    +0.000 NA
ATOM     13  N   UNL     1       4.147   7.494  17.021  0.00  0.00    +0.000 NA
ATOM     14  N   UNL     1       3.269   6.902  17.879  0.00  0.00    +0.000 N 
ENDROOT
BRANCH  14  15
ATOM     15  C   UNL     1       2.413   7.728  18.650  0.00  0.00    +0.000 A 
ATOM     16  C   UNL     1       2.184   7.395  19.994  0.00  0.00    +0.000 A 
ATOM     17  C   UNL     1       1.376   8.209  20.790  0.00  0.00    +0.000 A 
ATOM     18  C   UNL     1       0.777   9.341  20.246  0.00  0.00    +0.000 A 
ATOM     19  C   UNL     1       0.960   9.648  18.899  0.00  0.00    +0.000 A 
ATOM     20  C   UNL     1       1.759   8.832  18.093  0.00  0.00    +0.000 A 
ENDBRANCH  14  15
TORSDOF 1
ENDMDL
MODEL 5
REMARK VINA RESULT:      -7.6      2.635      5.648
REMARK  Name = 
REMARK  1 active torsions:
REMARK  status: ('A' for Active; 'I' for Inactive)
REMARK    1  A    between atoms: N_14  and  C_15
REMARK                            x       y       z     vdW  Elec       q    Type
REMARK                         _______ _______ _______ _____ _____    ______ ____
ROOT
ATOM      1  O   UNL     1       6.544   4.231  17.658  0.00  0.00    +0.000 OA
ATOM      2  C   UNL     1       5.474   4.443  18.222  0.00  0.00    +0.000 A 
ATOM      3  O   UNL     1       4.885   3.463  19.050  0.00  0.00    +0.000 OA
ATOM      4  C   UNL     1       3.621   3.646  19.687  0.00  0.00    +0.000 A 
ATOM      5  C   UNL     1       3.130   2.539  20.379  0.00  0.00    +0.000 A 
ATOM      6  C   UNL     1       1.893   2.632  21.009  0.00  0.00    +0.000 A 
ATOM      7  C   UNL     1       1.154   3.809  20.910  0.00  0.00    +0.000 A 
ATOM      8  C   UNL     1       1.641   4.898  20.174  0.00  0.00    +0.000 A 
ATOM      9  C   UNL     1       2.904   4.854  19.586  0.00  0.00    +0.000 A 
ATOM     10  C   UNL     1       3.539   5.906  18.797  0.00  0.00    +0.000 A 
ATOM     11  C   UNL     1       4.721   5.673  18.114  0.00  0.00    +0.000 A 
ATOM     12  N   UNL     1       5.016   6.720  17.299  0.00  0.00    +0.000 NA
ATOM     13  N   UNL     1       4.038   7.603  17.422  0.00  0.00    +0.000 NA
ATOM     14  N   UNL     1       3.183   7.188  18.399  0.00  0.00    +0.000 N 
ENDROOT
BRANCH  14  15
ATOM     15  C   UNL     1       2.164   8.074  18.829  0.00  0.00    +0.000 A 
ATOM     16  C   UNL     1       1.557   8.915  17.882  0.00  0.00    +0.000 A 
ATOM     17  C   UNL     1       0.525   9.772  18.265  0.00  0.00    +0.000 A 
ATOM     18  C   UNL     1       0.109   9.813  19.593  0.00  0.00    +0.000 A 
ATOM     19  C   UNL     1       0.743   9.018  20.546  0.00  0.00    +0.000 A 
ATOM     20  C   UNL     1       1.784   8.164  20.172  0.00  0.00    +0.000 A 
ENDBRANCH  14  15
TORSDOF 1
ENDMDL
MODEL 6
REMARK VINA RESULT:      -7.5      2.619      5.607
REMARK  Name = 
REMARK  1 active torsions:
REMARK  status: ('A' for Active; 'I' for Inactive)
REMARK    1  A    between atoms: N_14  and  C_15
REMARK                            x       y       z     vdW  Elec       q    Type
REMARK                         _______ _______ _______ _____ _____    ______ ____
ROOT
ATOM      1  O   UNL     1       6.426   4.226  17.406  0.00  0.00    +0.000 OA
ATOM      2  C   UNL     1       5.374   4.442  18.002  0.00  0.00    +0.000 A 
ATOM      3  O   UNL     1       4.795   3.457  18.831  0.00  0.00    +0.000 OA
ATOM      4  C   UNL     1       3.551   3.646  19.504  0.00  0.00    +0.000 A 
ATOM      5  C   UNL     1       3.064   2.534  20.192  0.00  0.00    +0.000 A 
ATOM      6  C   UNL     1       1.846   2.633  20.857  0.00  0.00    +0.000 A 
ATOM      7  C   UNL     1       1.120   3.821  20.797  0.00  0.00    +0.000 A 
ATOM      8  C   UNL     1       1.601   4.916  20.064  0.00  0.00    +0.000 A 
ATOM      9  C   UNL     1       2.847   4.865  19.442  0.00  0.00    +0.000 A 
ATOM     10  C   UNL     1       3.475   5.921  18.653  0.00  0.00    +0.000 A 
ATOM     11  C   UNL     1       4.635   5.683  17.934  0.00  0.00    +0.000 A 
ATOM     12  N   UNL     1       4.922   6.739  17.128  0.00  0.00    +0.000 NA
ATOM     13  N   UNL     1       3.959   7.633  17.291  0.00  0.00    +0.000 NA
ATOM     14  N   UNL     1       3.125   7.213  18.285  0.00  0.00    +0.000 N 
ENDROOT
BRANCH  14  15
ATOM     15  C   UNL     1       2.130   8.106  18.756  0.00  0.00    +0.000 A 
ATOM     16  C   UNL     1       1.814   8.103  20.123  0.00  0.00    +0.000 A 
ATOM     17  C   UNL     1       0.866   8.996  20.626  0.00  0.00    +0.000 A 
ATOM     18  C   UNL     1       0.214   9.876  19.767  0.00  0.00    +0.000 A 
ATOM     19  C   UNL     1       0.486   9.846  18.401  0.00  0.00    +0.000 A 
ATOM     20  C   UNL     1       1.428   8.949  17.888  0.00  0.00    +0.000 A 
ENDBRANCH  14  15
TORSDOF 1
ENDMDL
MODEL 7
REMARK VINA RESULT:      -7.4      2.149      5.017
REMARK  Name = 
REMARK  1 active torsions:
REMARK  status: ('A' for Active; 'I' for Inactive)
REMARK    1  A    between atoms: N_14  and  C_15
REMARK                            x       y       z     vdW  Elec       q    Type
REMARK                         _______ _______ _______ _____ _____    ______ ____
ROOT
ATOM      1  O   UNL     1       4.190   2.020  20.266  0.00  0.00    +0.000 OA
ATOM      2  C   UNL     1       4.352   3.118  19.740  0.00  0.00    +0.000 A 
ATOM      3  O   UNL     1       5.454   3.360  18.892  0.00  0.00    +0.000 OA
ATOM      4  C   UNL     1       5.708   4.632  18.298  0.00  0.00    +0.000 A 
ATOM      5  C   UNL     1       6.900   4.733  17.579  0.00  0.00    +0.000 A 
ATOM      6  C   UNL     1       7.229   5.948  16.988  0.00  0.00    +0.000 A 
ATOM      7  C   UNL     1       6.388   7.047  17.152  0.00  0.00    +0.000 A 
ATOM      8  C   UNL     1       5.217   6.943  17.915  0.00  0.00    +0.000 A 
ATOM      9  C   UNL     1       4.831   5.721  18.465  0.00  0.00    +0.000 A 
ATOM     10  C   UNL     1       3.644   5.463  19.275  0.00  0.00    +0.000 A 
ATOM     11  C   UNL     1       3.466   4.247  19.916  0.00  0.00    +0.000 A 
ATOM     12  N   UNL     1       2.403   4.305  20.761  0.00  0.00    +0.000 NA
ATOM     13  N   UNL     1       1.916   5.534  20.699  0.00  0.00    +0.000 NA
ATOM     14  N   UNL     1       2.579   6.228  19.731  0.00  0.00    +0.000 N 
ENDROOT
BRANCH  14  15
ATOM     15  C   UNL     1       2.094   7.509  19.363  0.00  0.00    +0.000 A 
ATOM     16  C   UNL     1       1.472   8.300  20.341  0.00  0.00    +0.000 A 
ATOM     17  C   UNL     1       1.018   9.581  20.022  0.00  0.00    +0.000 A 
ATOM     18  C   UNL     1       1.160  10.068  18.726  0.00  0.00    +0.000 A 
ATOM     19  C   UNL     1       1.731   9.266  17.739  0.00  0.00    +0.000 A 
ATOM     20  C   UNL     1       2.180   7.978  18.049  0.00  0.00    +0.000 A 
ENDBRANCH  14  15
TORSDOF 1
ENDMDL
MODEL 8
REMARK VINA RESULT:      -7.3      2.169      5.085
REMARK  Name = 
REMARK  1 active torsions:
REMARK  status: ('A' for Active; 'I' for Inactive)
REMARK    1  A    between atoms: N_14  and  C_15
REMARK                            x       y       z     vdW  Elec       q    Type
REMARK                         _______ _______ _______ _____ _____    ______ ____
ROOT
ATOM      1  O   UNL     1       3.407   2.005  19.845  0.00  0.00    +0.000 OA
ATOM      2  C   UNL     1       3.543   3.062  19.236  0.00  0.00    +0.000 A 
ATOM      3  O   UNL     1       4.332   3.128  18.067  0.00  0.00    +0.000 OA
ATOM      4  C   UNL     1       4.556   4.343  17.353  0.00  0.00    +0.000 A 
ATOM      5  C   UNL     1       5.450   4.257  16.285  0.00  0.00    +0.000 A 
ATOM      6  C   UNL     1       5.738   5.404  15.553  0.00  0.00    +0.000 A 
ATOM      7  C   UNL     1       5.160   6.620  15.916  0.00  0.00    +0.000 A 
ATOM      8  C   UNL     1       4.299   6.699  17.019  0.00  0.00    +0.000 A 
ATOM      9  C   UNL     1       3.944   5.554  17.731  0.00  0.00    +0.000 A 
ATOM     10  C   UNL     1       3.061   5.484  18.892  0.00  0.00    +0.000 A 
ATOM     11  C   UNL     1       2.931   4.314  19.622  0.00  0.00    +0.000 A 
ATOM     12  N   UNL     1       2.221   4.538  20.759  0.00  0.00    +0.000 NA
ATOM     13  N   UNL     1       1.919   5.826  20.788  0.00  0.00    +0.000 NA
ATOM     14  N   UNL     1       2.322   6.405  19.622  0.00  0.00    +0.000 N 
ENDROOT
BRANCH  14  15
ATOM     15  C   UNL     1       1.930   7.742  19.358  0.00  0.00    +0.000 A 
ATOM     16  C   UNL     1       1.366   8.497  20.398  0.00  0.00    +0.000 A 
ATOM     17  C   UNL     1       1.005   9.828  20.183  0.00  0.00    +0.000 A 
ATOM     18  C   UNL     1       1.182  10.403  18.928  0.00  0.00    +0.000 A 
ATOM     19  C   UNL     1       1.693   9.642  17.878  0.00  0.00    +0.000 A 
ATOM     20  C   UNL     1       2.048   8.306  18.084  0.00  0.00    +0.000 A 
ENDBRANCH  14  15
TORSDOF 1
ENDMDL
MODEL 9
REMARK VINA RESULT:      -7.2      2.169      5.072
REMARK  Name = 
REMARK  1 active torsions:
REMARK  status: ('A' for Active; 'I' for Inactive)
REMARK    1  A    between atoms: N_14  and  C_15
REMARK                            x       y       z     vdW  Elec       q    Type
REMARK                         _______ _______ _______ _____ _____    ______ ____
ROOT
ATOM      1  O   UNL     1       4.212   1.945  19.975  0.00  0.00    +0.000 OA
ATOM      2  C   UNL     1       4.366   3.076  19.521  0.00  0.00    +0.000 A 
ATOM      3  O   UNL     1       5.476   3.384  18.705  0.00  0.00    +0.000 OA
ATOM      4  C   UNL     1       5.720   4.693  18.194  0.00  0.00    +0.000 A 
ATOM      5  C   UNL     1       6.919   4.854  17.498  0.00  0.00    +0.000 A 
ATOM      6  C   UNL     1       7.239   6.107  16.988  0.00  0.00    +0.000 A 
ATOM      7  C   UNL     1       6.382   7.184  17.207  0.00  0.00    +0.000 A 
ATOM      8  C   UNL     1       5.202   7.017  17.947  0.00  0.00    +0.000 A 
ATOM      9  C   UNL     1       4.826   5.759  18.415  0.00  0.00    +0.000 A 
ATOM     10  C   UNL     1       3.633   5.436  19.192  0.00  0.00    +0.000 A 
ATOM     11  C   UNL     1       3.463   4.181  19.754  0.00  0.00    +0.000 A 
ATOM     12  N   UNL     1       2.389   4.173  20.586  0.00  0.00    +0.000 NA
ATOM     13  N   UNL     1       1.886   5.397  20.594  0.00  0.00    +0.000 NA
ATOM     14  N   UNL     1       2.552   6.158  19.679  0.00  0.00    +0.000 N 
ENDROOT
BRANCH  14  15
ATOM     15  C   UNL     1       2.054   7.453  19.385  0.00  0.00    +0.000 A 
ATOM     16  C   UNL     1       2.079   7.898  18.054  0.00  0.00    +0.000 A 
ATOM     17  C   UNL     1       1.563   9.152  17.725  0.00  0.00    +0.000 A 
ATOM     18  C   UNL     1       1.043   9.975  18.720  0.00  0.00    +0.000 A 
ATOM     19  C   UNL     1       1.064   9.558  20.051  0.00  0.00    +0.000 A 
ATOM     20  C   UNL     1       1.588   8.307  20.389  0.00  0.00    +0.000 A 
ENDBRANCH  14  15
TORSDOF 1
ENDMDL
