MODEL 1
REMARK VINA RESULT:      -8.9      0.000      0.000
REMARK  Name = 
REMARK  6 active torsions:
REMARK  status: ('A' for Active; 'I' for Inactive)
REMARK    1  A    between atoms: C_1  and  C_2
REMARK    2  A    between atoms: N_5  and  C_6
REMARK    3  A    between atoms: N_9  and  C_10
REMARK    4  A    between atoms: N_13  and  C_14
REMARK    5  A    between atoms: C_21  and  N_22
REMARK    6  A    between atoms: C_23  and  C_25
REMARK                            x       y       z     vdW  Elec       q    Type
REMARK                         _______ _______ _______ _____ _____    ______ ____
ROOT
ATOM      1  C   UNL     1       1.273   2.731  19.071  0.00  0.00    +0.000 C 
ATOM      2  C   UNL     1       1.457   4.067  18.445  0.00  0.00    +0.000 C 
ATOM      3  C   UNL     1       2.512   4.359  17.415  0.00  0.00    +0.000 C 
ATOM      4  C   UNL     1       3.689   3.457  17.186  0.00  0.00    +0.000 C 
ATOM      5  N   UNL     1       4.670   3.809  18.230  0.00  0.00    +0.000 N 
ATOM      6  C   UNL     1       3.955   4.462  19.358  0.00  0.00    +0.000 C 
ATOM      7  C   UNL     1       2.638   4.982  18.774  0.00  0.00    +0.000 C 
ENDROOT
BRANCH   5   8
ATOM      8  C   UNL     1       5.718   4.642  17.764  0.00  0.00    +0.000 A 
ATOM      9  N   UNL     1       5.966   4.719  16.442  0.00  0.00    +0.000 NA
ATOM     10  C   UNL     1       6.972   5.493  16.000  0.00  0.00    +0.000 A 
ATOM     11  N   UNL     1       7.286   5.524  14.638  0.00  0.00    +0.000 N 
ATOM     12  N   UNL     1       7.747   6.230  16.808  0.00  0.00    +0.000 NA
ATOM     13  C   UNL     1       7.490   6.136  18.132  0.00  0.00    +0.000 A 
ATOM     14  C   UNL     1       6.488   5.361  18.661  0.00  0.00    +0.000 A 
ATOM     15  F   UNL     1       6.294   5.302  19.986  0.00  0.00    +0.000 F 
ATOM     16  H   UNL     1       8.080   6.137  14.506  0.00  0.00    +0.000 HD
BRANCH  11  17
ATOM     17  C   UNL     1       6.837   4.719  13.653  0.00  0.00    +0.000 A 
ATOM     18  C   UNL     1       7.526   4.154  12.561  0.00  0.00    +0.000 A 
ATOM     19  N   UNL     1       6.734   3.437  11.762  0.00  0.00    +0.000 NA
ATOM     20  N   UNL     1       5.529   3.551  12.344  0.00  0.00    +0.000 N 
ATOM     21  C   UNL     1       4.383   2.925  11.732  0.00  0.00    +0.000 C 
ATOM     22  C   UNL     1       5.542   4.292  13.493  0.00  0.00    +0.000 A 
ENDBRANCH  11  17
ENDBRANCH   5   8
BRANCH   7  23
ATOM     23  N   UNL     1       2.319   6.363  19.039  0.00  0.00    +0.000 N 
ATOM     24  C   UNL     1       1.848   6.745  20.279  0.00  0.00    +0.000 C 
ATOM     25  O   UNL     1       1.703   5.968  21.216  0.00  0.00    +0.000 OA
ATOM     26  H   UNL     1       2.509   7.055  18.321  0.00  0.00    +0.000 HD
BRANCH  24  27
ATOM     27  C   UNL     1       1.496   8.166  20.483  0.00  0.00    +0.000 C 
ATOM     28  C   UNL     1       1.490   8.745  21.891  0.00  0.00    +0.000 C 
ATOM     29  C   UNL     1       0.242   8.633  21.104  0.00  0.00    +0.000 C 
ATOM     30  F   UNL     1      -0.382   9.771  20.650  0.00  0.00    +0.000 F 
ATOM     31  F   UNL     1      -0.743   7.754  21.493  0.00  0.00    +0.000 F 
ENDBRANCH  24  27
ENDBRANCH   7  23
TORSDOF 4
ENDMDL
MODEL 2
REMARK VINA RESULT:      -8.9      1.552      1.811
REMARK  Name = 
REMARK  6 active torsions:
REMARK  status: ('A' for Active; 'I' for Inactive)
REMARK    1  A    between atoms: C_1  and  C_2
REMARK    2  A    between atoms: N_5  and  C_6
REMARK    3  A    between atoms: N_9  and  C_10
REMARK    4  A    between atoms: N_13  and  C_14
REMARK    5  A    between atoms: C_21  and  N_22
REMARK    6  A    between atoms: C_23  and  C_25
REMARK                            x       y       z     vdW  Elec       q    Type
REMARK                         _______ _______ _______ _____ _____    ______ ____
ROOT
ATOM      1  C   UNL     1       1.357   2.444  19.484  0.00  0.00    +0.000 C 
ATOM      2  C   UNL     1       1.422   3.800  18.877  0.00  0.00    +0.000 C 
ATOM      3  C   UNL     1       2.309   4.142  17.712  0.00  0.00    +0.000 C 
ATOM      4  C   UNL     1       3.455   3.273  17.286  0.00  0.00    +0.000 C 
ATOM      5  N   UNL     1       4.573   3.618  18.186  0.00  0.00    +0.000 N 
ATOM      6  C   UNL     1       4.020   4.225  19.424  0.00  0.00    +0.000 C 
ATOM      7  C   UNL     1       2.623   4.731  19.056  0.00  0.00    +0.000 C 
ENDROOT
BRANCH   5   8
ATOM      8  C   UNL     1       5.526   4.485  17.595  0.00  0.00    +0.000 A 
ATOM      9  N   UNL     1       5.691   4.478  16.258  0.00  0.00    +0.000 NA
ATOM     10  C   UNL     1       6.608   5.286  15.699  0.00  0.00    +0.000 A 
ATOM     11  N   UNL     1       6.840   5.235  14.321  0.00  0.00    +0.000 N 
ATOM     12  N   UNL     1       7.370   6.137  16.401  0.00  0.00    +0.000 NA
ATOM     13  C   UNL     1       7.197   6.127  17.742  0.00  0.00    +0.000 A 
ATOM     14  C   UNL     1       6.290   5.324  18.388  0.00  0.00    +0.000 A 
ATOM     15  F   UNL     1       6.177   5.354  19.723  0.00  0.00    +0.000 F 
ATOM     16  H   UNL     1       7.576   5.891  14.096  0.00  0.00    +0.000 HD
BRANCH  11  17
ATOM     17  C   UNL     1       6.398   4.327  13.427  0.00  0.00    +0.000 A 
ATOM     18  C   UNL     1       5.081   3.943  13.102  0.00  0.00    +0.000 A 
ATOM     19  N   UNL     1       5.035   2.973  12.187  0.00  0.00    +0.000 NA
ATOM     20  N   UNL     1       6.331   2.729  11.934  0.00  0.00    +0.000 N 
ATOM     21  C   UNL     1       6.688   1.690  11.000  0.00  0.00    +0.000 C 
ATOM     22  C   UNL     1       7.187   3.530  12.635  0.00  0.00    +0.000 A 
ENDBRANCH  11  17
ENDBRANCH   5   8
BRANCH   7  23
ATOM     23  N   UNL     1       2.322   6.097  19.406  0.00  0.00    +0.000 N 
ATOM     24  C   UNL     1       2.699   7.132  18.574  0.00  0.00    +0.000 C 
ATOM     25  O   UNL     1       3.269   6.963  17.502  0.00  0.00    +0.000 OA
ATOM     26  H   UNL     1       1.771   6.278  20.241  0.00  0.00    +0.000 HD
BRANCH  24  27
ATOM     27  C   UNL     1       2.401   8.515  19.003  0.00  0.00    +0.000 C 
ATOM     28  C   UNL     1       1.101   8.811  19.738  0.00  0.00    +0.000 C 
ATOM     29  C   UNL     1       1.366   9.371  18.394  0.00  0.00    +0.000 C 
ATOM     30  F   UNL     1       1.573  10.723  18.247  0.00  0.00    +0.000 F 
ATOM     31  F   UNL     1       0.624   8.951  17.313  0.00  0.00    +0.000 F 
ENDBRANCH  24  27
ENDBRANCH   7  23
TORSDOF 4
ENDMDL
MODEL 3
REMARK VINA RESULT:      -8.5      1.038      1.122
REMARK  Name = 
REMARK  6 active torsions:
REMARK  status: ('A' for Active; 'I' for Inactive)
REMARK    1  A    between atoms: C_1  and  C_2
REMARK    2  A    between atoms: N_5  and  C_6
REMARK    3  A    between atoms: N_9  and  C_10
REMARK    4  A    between atoms: N_13  and  C_14
REMARK    5  A    between atoms: C_21  and  N_22
REMARK    6  A    between atoms: C_23  and  C_25
REMARK                            x       y       z     vdW  Elec       q    Type
REMARK                         _______ _______ _______ _____ _____    ______ ____
ROOT
ATOM      1  C   UNL     1       1.143   2.758  19.176  0.00  0.00    +0.000 C 
ATOM      2  C   UNL     1       1.366   4.059  18.490  0.00  0.00    +0.000 C 
ATOM      3  C   UNL     1       2.383   4.255  17.401  0.00  0.00    +0.000 C 
ATOM      4  C   UNL     1       3.496   3.282  17.150  0.00  0.00    +0.000 C 
ATOM      5  N   UNL     1       4.545   3.616  18.132  0.00  0.00    +0.000 N 
ATOM      6  C   UNL     1       3.923   4.348  19.267  0.00  0.00    +0.000 C 
ATOM      7  C   UNL     1       2.609   4.918  18.727  0.00  0.00    +0.000 C 
ENDROOT
BRANCH   5   8
ATOM      8  C   UNL     1       5.612   4.372  17.585  0.00  0.00    +0.000 A 
ATOM      9  N   UNL     1       5.781   4.410  16.249  0.00  0.00    +0.000 NA
ATOM     10  C   UNL     1       6.804   5.111  15.729  0.00  0.00    +0.000 A 
ATOM     11  N   UNL     1       7.033   5.098  14.350  0.00  0.00    +0.000 N 
ATOM     12  N   UNL     1       7.673   5.812  16.472  0.00  0.00    +0.000 NA
ATOM     13  C   UNL     1       7.493   5.758  17.811  0.00  0.00    +0.000 A 
ATOM     14  C   UNL     1       6.481   5.057  18.417  0.00  0.00    +0.000 A 
ATOM     15  F   UNL     1       6.366   5.034  19.752  0.00  0.00    +0.000 F 
ATOM     16  H   UNL     1       7.853   5.657  14.157  0.00  0.00    +0.000 HD
BRANCH  11  17
ATOM     17  C   UNL     1       6.474   4.306  13.412  0.00  0.00    +0.000 A 
ATOM     18  C   UNL     1       7.076   3.389  12.527  0.00  0.00    +0.000 A 
ATOM     19  N   UNL     1       6.199   2.811  11.704  0.00  0.00    +0.000 NA
ATOM     20  N   UNL     1       5.031   3.370  12.060  0.00  0.00    +0.000 N 
ATOM     21  C   UNL     1       3.827   3.013  11.350  0.00  0.00    +0.000 C 
ATOM     22  C   UNL     1       5.140   4.257  13.094  0.00  0.00    +0.000 A 
ENDBRANCH  11  17
ENDBRANCH   5   8
BRANCH   7  23
ATOM     23  N   UNL     1       2.377   6.323  18.954  0.00  0.00    +0.000 N 
ATOM     24  C   UNL     1       1.912   6.766  20.176  0.00  0.00    +0.000 C 
ATOM     25  O   UNL     1       1.701   6.024  21.128  0.00  0.00    +0.000 OA
ATOM     26  H   UNL     1       2.625   6.984  18.223  0.00  0.00    +0.000 HD
BRANCH  24  27
ATOM     27  C   UNL     1       1.652   8.212  20.340  0.00  0.00    +0.000 C 
ATOM     28  C   UNL     1       0.219   8.726  20.313  0.00  0.00    +0.000 C 
ATOM     29  C   UNL     1       1.188   9.102  19.260  0.00  0.00    +0.000 C 
ATOM     30  F   UNL     1       1.638  10.399  19.179  0.00  0.00    +0.000 F 
ATOM     31  F   UNL     1       1.016   8.648  17.971  0.00  0.00    +0.000 F 
ENDBRANCH  24  27
ENDBRANCH   7  23
TORSDOF 4
ENDMDL
MODEL 4
REMARK VINA RESULT:      -7.9      1.297      1.436
REMARK  Name = 
REMARK  6 active torsions:
REMARK  status: ('A' for Active; 'I' for Inactive)
REMARK    1  A    between atoms: C_1  and  C_2
REMARK    2  A    between atoms: N_5  and  C_6
REMARK    3  A    between atoms: N_9  and  C_10
REMARK    4  A    between atoms: N_13  and  C_14
REMARK    5  A    between atoms: C_21  and  N_22
REMARK    6  A    between atoms: C_23  and  C_25
REMARK                            x       y       z     vdW  Elec       q    Type
REMARK                         _______ _______ _______ _____ _____    ______ ____
ROOT
ATOM      1  C   UNL     1       1.244   3.181  19.077  0.00  0.00    +0.000 C 
ATOM      2  C   UNL     1       1.501   4.146  17.973  0.00  0.00    +0.000 C 
ATOM      3  C   UNL     1       2.741   4.119  17.125  0.00  0.00    +0.000 C 
ATOM      4  C   UNL     1       3.978   3.370  17.525  0.00  0.00    +0.000 C 
ATOM      5  N   UNL     1       4.691   4.255  18.467  0.00  0.00    +0.000 N 
ATOM      6  C   UNL     1       3.719   5.216  19.050  0.00  0.00    +0.000 C 
ATOM      7  C   UNL     1       2.541   5.263  18.074  0.00  0.00    +0.000 C 
ENDROOT
BRANCH   5   8
ATOM      8  C   UNL     1       5.778   4.948  17.879  0.00  0.00    +0.000 A 
ATOM      9  N   UNL     1       5.951   4.901  16.544  0.00  0.00    +0.000 NA
ATOM     10  C   UNL     1       6.993   5.542  15.986  0.00  0.00    +0.000 A 
ATOM     11  N   UNL     1       7.224   5.440  14.611  0.00  0.00    +0.000 N 
ATOM     12  N   UNL     1       7.877   6.265  16.689  0.00  0.00    +0.000 NA
ATOM     13  C   UNL     1       7.694   6.296  18.028  0.00  0.00    +0.000 A 
ATOM     14  C   UNL     1       6.662   5.659  18.672  0.00  0.00    +0.000 A 
ATOM     15  F   UNL     1       6.544   5.721  20.005  0.00  0.00    +0.000 F 
ATOM     16  H   UNL     1       8.059   5.965  14.388  0.00  0.00    +0.000 HD
BRANCH  11  17
ATOM     17  C   UNL     1       6.647   4.607  13.721  0.00  0.00    +0.000 A 
ATOM     18  C   UNL     1       7.236   3.726  12.793  0.00  0.00    +0.000 A 
ATOM     19  N   UNL     1       6.338   3.086  12.042  0.00  0.00    +0.000 NA
ATOM     20  N   UNL     1       5.167   3.570  12.488  0.00  0.00    +0.000 N 
ATOM     21  C   UNL     1       3.938   3.131  11.875  0.00  0.00    +0.000 C 
ATOM     22  C   UNL     1       5.298   4.469  13.509  0.00  0.00    +0.000 A 
ENDBRANCH  11  17
ENDBRANCH   5   8
BRANCH   7  23
ATOM     23  N   UNL     1       2.110   6.572  17.649  0.00  0.00    +0.000 N 
ATOM     24  C   UNL     1       1.826   7.551  18.580  0.00  0.00    +0.000 C 
ATOM     25  O   UNL     1       1.945   7.389  19.788  0.00  0.00    +0.000 OA
ATOM     26  H   UNL     1       2.084   6.779  16.655  0.00  0.00    +0.000 HD
BRANCH  24  27
ATOM     27  C   UNL     1       1.348   8.861  18.089  0.00  0.00    +0.000 C 
ATOM     28  C   UNL     1       2.295  10.053  18.085  0.00  0.00    +0.000 C 
ATOM     29  C   UNL     1       1.096  10.031  18.951  0.00  0.00    +0.000 C 
ATOM     30  F   UNL     1       0.048  10.882  18.686  0.00  0.00    +0.000 F 
ATOM     31  F   UNL     1       1.234   9.965  20.319  0.00  0.00    +0.000 F 
ENDBRANCH  24  27
ENDBRANCH   7  23
TORSDOF 4
ENDMDL
MODEL 5
REMARK VINA RESULT:      -7.5      7.634     11.808
REMARK  Name = 
REMARK  6 active torsions:
REMARK  status: ('A' for Active; 'I' for Inactive)
REMARK    1  A    between atoms: C_1  and  C_2
REMARK    2  A    between atoms: N_5  and  C_6
REMARK    3  A    between atoms: N_9  and  C_10
REMARK    4  A    between atoms: N_13  and  C_14
REMARK    5  A    between atoms: C_21  and  N_22
REMARK    6  A    between atoms: C_23  and  C_25
REMARK                            x       y       z     vdW  Elec       q    Type
REMARK                         _______ _______ _______ _____ _____    ______ ____
ROOT
ATOM      1  C   UNL     1      -2.582  10.483  15.400  0.00  0.00    +0.000 C 
ATOM      2  C   UNL     1      -2.528   9.794  16.717  0.00  0.00    +0.000 C 
ATOM      3  C   UNL     1      -3.691   9.736  17.667  0.00  0.00    +0.000 C 
ATOM      4  C   UNL     1      -4.875  10.648  17.552  0.00  0.00    +0.000 C 
ATOM      5  N   UNL     1      -4.467  11.913  18.194  0.00  0.00    +0.000 N 
ATOM      6  C   UNL     1      -2.983  11.990  18.199  0.00  0.00    +0.000 C 
ATOM      7  C   UNL     1      -2.489  10.549  18.047  0.00  0.00    +0.000 C 
ENDROOT
BRANCH   5   8
ATOM      8  C   UNL     1      -4.973  12.069  19.509  0.00  0.00    +0.000 A 
ATOM      9  N   UNL     1      -4.185  12.597  20.465  0.00  0.00    +0.000 NA
ATOM     10  C   UNL     1      -4.657  12.728  21.717  0.00  0.00    +0.000 A 
ATOM     11  N   UNL     1      -3.825  13.206  22.734  0.00  0.00    +0.000 N 
ATOM     12  N   UNL     1      -5.901  12.381  22.077  0.00  0.00    +0.000 NA
ATOM     13  C   UNL     1      -6.677  11.846  21.108  0.00  0.00    +0.000 A 
ATOM     14  C   UNL     1      -6.264  11.670  19.810  0.00  0.00    +0.000 A 
ATOM     15  F   UNL     1      -7.079  11.122  18.899  0.00  0.00    +0.000 F 
ATOM     16  H   UNL     1      -4.347  13.209  23.599  0.00  0.00    +0.000 HD
BRANCH  11  17
ATOM     17  C   UNL     1      -2.491  13.401  22.706  0.00  0.00    +0.000 A 
ATOM     18  C   UNL     1      -1.441  12.526  23.050  0.00  0.00    +0.000 A 
ATOM     19  N   UNL     1      -0.237  13.089  22.933  0.00  0.00    +0.000 NA
ATOM     20  N   UNL     1      -0.521  14.335  22.521  0.00  0.00    +0.000 N 
ATOM     21  C   UNL     1       0.552  15.277  22.317  0.00  0.00    +0.000 C 
ATOM     22  C   UNL     1      -1.857  14.565  22.349  0.00  0.00    +0.000 A 
ENDBRANCH  11  17
ENDBRANCH   5   8
BRANCH   7  23
ATOM     23  N   UNL     1      -1.506  10.102  19.003  0.00  0.00    +0.000 N 
ATOM     24  C   UNL     1      -0.667  11.009  19.618  0.00  0.00    +0.000 C 
ATOM     25  O   UNL     1      -0.719  12.218  19.423  0.00  0.00    +0.000 OA
ATOM     26  H   UNL     1      -1.488   9.120  19.262  0.00  0.00    +0.000 HD
BRANCH  24  27
ATOM     27  C   UNL     1       0.350  10.491  20.558  0.00  0.00    +0.000 C 
ATOM     28  C   UNL     1       1.143   9.244  20.194  0.00  0.00    +0.000 C 
ATOM     29  C   UNL     1       0.205   9.248  21.339  0.00  0.00    +0.000 C 
ATOM     30  F   UNL     1       0.694   9.167  22.622  0.00  0.00    +0.000 F 
ATOM     31  F   UNL     1      -0.945   8.493  21.291  0.00  0.00    +0.000 F 
ENDBRANCH  24  27
ENDBRANCH   7  23
TORSDOF 4
ENDMDL
MODEL 6
REMARK VINA RESULT:      -7.4      9.086     12.481
REMARK  Name = 
REMARK  6 active torsions:
REMARK  status: ('A' for Active; 'I' for Inactive)
REMARK    1  A    between atoms: C_1  and  C_2
REMARK    2  A    between atoms: N_5  and  C_6
REMARK    3  A    between atoms: N_9  and  C_10
REMARK    4  A    between atoms: N_13  and  C_14
REMARK    5  A    between atoms: C_21  and  N_22
REMARK    6  A    between atoms: C_23  and  C_25
REMARK                            x       y       z     vdW  Elec       q    Type
REMARK                         _______ _______ _______ _____ _____    ______ ____
ROOT
ATOM      1  C   UNL     1      -7.913  13.505  18.047  0.00  0.00    +0.000 C 
ATOM      2  C   UNL     1      -6.972  12.392  18.347  0.00  0.00    +0.000 C 
ATOM      3  C   UNL     1      -6.827  11.779  19.712  0.00  0.00    +0.000 C 
ATOM      4  C   UNL     1      -7.335  12.446  20.956  0.00  0.00    +0.000 C 
ATOM      5  N   UNL     1      -6.299  13.427  21.332  0.00  0.00    +0.000 N 
ATOM      6  C   UNL     1      -5.490  13.754  20.130  0.00  0.00    +0.000 C 
ATOM      7  C   UNL     1      -5.691  12.587  19.160  0.00  0.00    +0.000 C 
ENDROOT
BRANCH   5   8
ATOM      8  C   UNL     1      -5.459  12.986  22.386  0.00  0.00    +0.000 A 
ATOM      9  N   UNL     1      -4.137  12.844  22.165  0.00  0.00    +0.000 NA
ATOM     10  C   UNL     1      -3.342  12.407  23.158  0.00  0.00    +0.000 A 
ATOM     11  N   UNL     1      -1.983  12.185  22.920  0.00  0.00    +0.000 N 
ATOM     12  N   UNL     1      -3.787  12.123  24.390  0.00  0.00    +0.000 NA
ATOM     13  C   UNL     1      -5.116  12.264  24.593  0.00  0.00    +0.000 A 
ATOM     14  C   UNL     1      -5.994  12.694  23.628  0.00  0.00    +0.000 A 
ATOM     15  F   UNL     1      -7.303  12.801  23.891  0.00  0.00    +0.000 F 
ATOM     16  H   UNL     1      -1.562  11.838  23.771  0.00  0.00    +0.000 HD
BRANCH  11  17
ATOM     17  C   UNL     1      -1.328  12.161  21.741  0.00  0.00    +0.000 A 
ATOM     18  C   UNL     1      -1.494  11.308  20.631  0.00  0.00    +0.000 A 
ATOM     19  N   UNL     1      -0.627  11.561  19.649  0.00  0.00    +0.000 NA
ATOM     20  N   UNL     1       0.103  12.575  20.139  0.00  0.00    +0.000 N 
ATOM     21  C   UNL     1       1.192  13.109  19.357  0.00  0.00    +0.000 C 
ATOM     22  C   UNL     1      -0.292  12.986  21.381  0.00  0.00    +0.000 A 
ENDBRANCH  11  17
ENDBRANCH   5   8
BRANCH   7  23
ATOM     23  N   UNL     1      -4.495  11.993  18.613  0.00  0.00    +0.000 N 
ATOM     24  C   UNL     1      -4.342  11.861  17.248  0.00  0.00    +0.000 C 
ATOM     25  O   UNL     1      -5.171  12.253  16.434  0.00  0.00    +0.000 OA
ATOM     26  H   UNL     1      -3.744  11.737  19.246  0.00  0.00    +0.000 HD
BRANCH  24  27
ATOM     27  C   UNL     1      -3.116  11.206  16.744  0.00  0.00    +0.000 C 
ATOM     28  C   UNL     1      -3.229  10.070  15.738  0.00  0.00    +0.000 C 
ATOM     29  C   UNL     1      -2.698   9.838  17.099  0.00  0.00    +0.000 C 
ATOM     30  F   UNL     1      -1.366   9.534  17.268  0.00  0.00    +0.000 F 
ATOM     31  F   UNL     1      -3.409   9.073  17.996  0.00  0.00    +0.000 F 
ENDBRANCH  24  27
ENDBRANCH   7  23
TORSDOF 4
ENDMDL
MODEL 7
REMARK VINA RESULT:      -7.3      8.474     11.758
REMARK  Name = 
REMARK  6 active torsions:
REMARK  status: ('A' for Active; 'I' for Inactive)
REMARK    1  A    between atoms: C_1  and  C_2
REMARK    2  A    between atoms: N_5  and  C_6
REMARK    3  A    between atoms: N_9  and  C_10
REMARK    4  A    between atoms: N_13  and  C_14
REMARK    5  A    between atoms: C_21  and  N_22
REMARK    6  A    between atoms: C_23  and  C_25
REMARK                            x       y       z     vdW  Elec       q    Type
REMARK                         _______ _______ _______ _____ _____    ______ ____
ROOT
ATOM      1  C   UNL     1      -0.369  14.564  22.820  0.00  0.00    +0.000 C 
ATOM      2  C   UNL     1      -1.280  13.389  22.864  0.00  0.00    +0.000 C 
ATOM      3  C   UNL     1      -1.067  12.147  22.045  0.00  0.00    +0.000 C 
ATOM      4  C   UNL     1      -0.145  12.107  20.862  0.00  0.00    +0.000 C 
ATOM      5  N   UNL     1      -0.918  12.667  19.737  0.00  0.00    +0.000 N 
ATOM      6  C   UNL     1      -2.015  13.509  20.281  0.00  0.00    +0.000 C 
ATOM      7  C   UNL     1      -2.232  13.034  21.720  0.00  0.00    +0.000 C 
ENDROOT
BRANCH   5   8
ATOM      8  C   UNL     1      -1.441  11.681  18.863  0.00  0.00    +0.000 A 
ATOM      9  N   UNL     1      -2.739  11.731  18.507  0.00  0.00    +0.000 NA
ATOM     10  C   UNL     1      -3.241  10.785  17.695  0.00  0.00    +0.000 A 
ATOM     11  N   UNL     1      -4.603  10.784  17.377  0.00  0.00    +0.000 N 
ATOM     12  N   UNL     1      -2.508   9.785  17.183  0.00  0.00    +0.000 NA
ATOM     13  C   UNL     1      -1.209   9.746  17.555  0.00  0.00    +0.000 A 
ATOM     14  C   UNL     1      -0.626  10.668  18.389  0.00  0.00    +0.000 A 
ATOM     15  F   UNL     1       0.666  10.564  18.729  0.00  0.00    +0.000 F 
ATOM     16  H   UNL     1      -4.792   9.989  16.782  0.00  0.00    +0.000 HD
BRANCH  11  17
ATOM     17  C   UNL     1      -5.595  11.512  17.929  0.00  0.00    +0.000 A 
ATOM     18  C   UNL     1      -6.420  11.227  19.035  0.00  0.00    +0.000 A 
ATOM     19  N   UNL     1      -7.329  12.177  19.263  0.00  0.00    +0.000 NA
ATOM     20  N   UNL     1      -7.088  13.070  18.290  0.00  0.00    +0.000 N 
ATOM     21  C   UNL     1      -7.916  14.246  18.186  0.00  0.00    +0.000 C 
ATOM     22  C   UNL     1      -6.044  12.728  17.477  0.00  0.00    +0.000 A 
ENDBRANCH  11  17
ENDBRANCH   5   8
BRANCH   7  23
ATOM     23  N   UNL     1      -3.589  12.721  22.096  0.00  0.00    +0.000 N 
ATOM     24  C   UNL     1      -4.543  13.716  22.162  0.00  0.00    +0.000 C 
ATOM     25  O   UNL     1      -4.317  14.889  21.886  0.00  0.00    +0.000 OA
ATOM     26  H   UNL     1      -3.842  11.749  22.246  0.00  0.00    +0.000 HD
BRANCH  24  27
ATOM     27  C   UNL     1      -5.907  13.346  22.594  0.00  0.00    +0.000 C 
ATOM     28  C   UNL     1      -6.600  14.159  23.678  0.00  0.00    +0.000 C 
ATOM     29  C   UNL     1      -6.232  12.743  23.900  0.00  0.00    +0.000 C 
ATOM     30  F   UNL     1      -7.220  11.791  24.005  0.00  0.00    +0.000 F 
ATOM     31  F   UNL     1      -5.252  12.419  24.811  0.00  0.00    +0.000 F 
ENDBRANCH  24  27
ENDBRANCH   7  23
TORSDOF 4
ENDMDL
MODEL 8
REMARK VINA RESULT:      -7.2      9.393     12.618
REMARK  Name = 
REMARK  6 active torsions:
REMARK  status: ('A' for Active; 'I' for Inactive)
REMARK    1  A    between atoms: C_1  and  C_2
REMARK    2  A    between atoms: N_5  and  C_6
REMARK    3  A    between atoms: N_9  and  C_10
REMARK    4  A    between atoms: N_13  and  C_14
REMARK    5  A    between atoms: C_21  and  N_22
REMARK    6  A    between atoms: C_23  and  C_25
REMARK                            x       y       z     vdW  Elec       q    Type
REMARK                         _______ _______ _______ _____ _____    ______ ____
ROOT
ATOM      1  C   UNL     1       1.146  14.875  19.456  0.00  0.00    +0.000 C 
ATOM      2  C   UNL     1      -0.298  14.744  19.124  0.00  0.00    +0.000 C 
ATOM      3  C   UNL     1      -1.401  15.166  20.053  0.00  0.00    +0.000 C 
ATOM      4  C   UNL     1      -1.175  15.417  21.515  0.00  0.00    +0.000 C 
ATOM      5  N   UNL     1      -1.200  14.087  22.155  0.00  0.00    +0.000 N 
ATOM      6  C   UNL     1      -0.894  13.056  21.130  0.00  0.00    +0.000 C 
ATOM      7  C   UNL     1      -1.209  13.704  19.779  0.00  0.00    +0.000 C 
ENDROOT
BRANCH   5   8
ATOM      8  C   UNL     1      -2.427  13.793  22.800  0.00  0.00    +0.000 A 
ATOM      9  N   UNL     1      -3.466  13.338  22.072  0.00  0.00    +0.000 NA
ATOM     10  C   UNL     1      -4.637  13.077  22.679  0.00  0.00    +0.000 A 
ATOM     11  N   UNL     1      -5.744  12.675  21.924  0.00  0.00    +0.000 N 
ATOM     12  N   UNL     1      -4.834  13.218  23.998  0.00  0.00    +0.000 NA
ATOM     13  C   UNL     1      -3.784  13.681  24.712  0.00  0.00    +0.000 A 
ATOM     14  C   UNL     1      -2.561  13.981  24.164  0.00  0.00    +0.000 A 
ATOM     15  F   UNL     1      -1.564  14.448  24.927  0.00  0.00    +0.000 F 
ATOM     16  H   UNL     1      -6.529  12.553  22.548  0.00  0.00    +0.000 HD
BRANCH  11  17
ATOM     17  C   UNL     1      -5.894  12.681  20.583  0.00  0.00    +0.000 A 
ATOM     18  C   UNL     1      -5.565  11.695  19.631  0.00  0.00    +0.000 A 
ATOM     19  N   UNL     1      -5.824  12.077  18.379  0.00  0.00    +0.000 NA
ATOM     20  N   UNL     1      -6.312  13.318  18.532  0.00  0.00    +0.000 N 
ATOM     21  C   UNL     1      -6.678  14.085  17.367  0.00  0.00    +0.000 C 
ATOM     22  C   UNL     1      -6.395  13.718  19.836  0.00  0.00    +0.000 A 
ENDBRANCH  11  17
ENDBRANCH   5   8
BRANCH   7  23
ATOM     23  N   UNL     1      -2.058  12.952  18.888  0.00  0.00    +0.000 N 
ATOM     24  C   UNL     1      -1.577  11.829  18.246  0.00  0.00    +0.000 C 
ATOM     25  O   UNL     1      -0.443  11.392  18.407  0.00  0.00    +0.000 OA
ATOM     26  H   UNL     1      -3.032  13.225  18.794  0.00  0.00    +0.000 HD
BRANCH  24  27
ATOM     27  C   UNL     1      -2.478  11.121  17.311  0.00  0.00    +0.000 C 
ATOM     28  C   UNL     1      -3.161   9.835  17.756  0.00  0.00    +0.000 C 
ATOM     29  C   UNL     1      -2.161   9.834  16.665  0.00  0.00    +0.000 C 
ATOM     30  F   UNL     1      -2.562   9.582  15.373  0.00  0.00    +0.000 F 
ATOM     31  F   UNL     1      -0.945   9.214  16.844  0.00  0.00    +0.000 F 
ENDBRANCH  24  27
ENDBRANCH   7  23
TORSDOF 4
ENDMDL
MODEL 9
REMARK VINA RESULT:      -7.1      6.993     10.610
REMARK  Name = 
REMARK  6 active torsions:
REMARK  status: ('A' for Active; 'I' for Inactive)
REMARK    1  A    between atoms: C_1  and  C_2
REMARK    2  A    between atoms: N_5  and  C_6
REMARK    3  A    between atoms: N_9  and  C_10
REMARK    4  A    between atoms: N_13  and  C_14
REMARK    5  A    between atoms: C_21  and  N_22
REMARK    6  A    between atoms: C_23  and  C_25
REMARK                            x       y       z     vdW  Elec       q    Type
REMARK                         _______ _______ _______ _____ _____    ______ ____
ROOT
ATOM      1  C   UNL     1       2.094   8.562  18.750  0.00  0.00    +0.000 C 
ATOM      2  C   UNL     1       1.189   9.636  18.259  0.00  0.00    +0.000 C 
ATOM      3  C   UNL     1       1.039  10.966  18.943  0.00  0.00    +0.000 C 
ATOM      4  C   UNL     1       1.496  11.207  20.350  0.00  0.00    +0.000 C 
ATOM      5  N   UNL     1       0.417  10.689  21.214  0.00  0.00    +0.000 N 
ATOM      6  C   UNL     1      -0.378   9.699  20.443  0.00  0.00    +0.000 C 
ATOM      7  C   UNL     1      -0.115  10.009  18.967  0.00  0.00    +0.000 C 
ENDROOT
BRANCH   5   8
ATOM      8  C   UNL     1      -0.427  11.702  21.734  0.00  0.00    +0.000 A 
ATOM      9  N   UNL     1      -0.397  12.934  21.190  0.00  0.00    +0.000 NA
ATOM     10  C   UNL     1      -1.183  13.901  21.694  0.00  0.00    +0.000 A 
ATOM     11  N   UNL     1      -1.107  15.202  21.187  0.00  0.00    +0.000 N 
ATOM     12  N   UNL     1      -2.035  13.706  22.712  0.00  0.00    +0.000 NA
ATOM     13  C   UNL     1      -2.048  12.466  23.250  0.00  0.00    +0.000 A 
ATOM     14  C   UNL     1      -1.268  11.430  22.798  0.00  0.00    +0.000 A 
ATOM     15  F   UNL     1      -1.320  10.226  23.385  0.00  0.00    +0.000 F 
ATOM     16  H   UNL     1      -1.750  15.785  21.706  0.00  0.00    +0.000 HD
BRANCH  11  17
ATOM     17  C   UNL     1      -0.191  15.725  20.346  0.00  0.00    +0.000 A 
ATOM     18  C   UNL     1      -0.302  16.062  18.983  0.00  0.00    +0.000 A 
ATOM     19  N   UNL     1       0.839  16.522  18.467  0.00  0.00    +0.000 NA
ATOM     20  N   UNL     1       1.687  16.468  19.506  0.00  0.00    +0.000 N 
ATOM     21  C   UNL     1       3.063  16.860  19.321  0.00  0.00    +0.000 C 
ATOM     22  C   UNL     1       1.112  16.018  20.662  0.00  0.00    +0.000 A 
ENDBRANCH  11  17
ENDBRANCH   5   8
BRANCH   7  23
ATOM     23  N   UNL     1      -1.277  10.154  18.124  0.00  0.00    +0.000 N 
ATOM     24  C   UNL     1      -1.828  11.400  17.903  0.00  0.00    +0.000 C 
ATOM     25  O   UNL     1      -1.365  12.436  18.368  0.00  0.00    +0.000 OA
ATOM     26  H   UNL     1      -1.639   9.335  17.645  0.00  0.00    +0.000 HD
BRANCH  24  27
ATOM     27  C   UNL     1      -3.043  11.486  17.065  0.00  0.00    +0.000 C 
ATOM     28  C   UNL     1      -4.265  10.654  17.425  0.00  0.00    +0.000 C 
ATOM     29  C   UNL     1      -3.516  10.411  16.173  0.00  0.00    +0.000 C 
ATOM     30  F   UNL     1      -4.096  10.711  14.962  0.00  0.00    +0.000 F 
ATOM     31  F   UNL     1      -2.807   9.243  16.008  0.00  0.00    +0.000 F 
ENDBRANCH  24  27
ENDBRANCH   7  23
TORSDOF 4
ENDMDL
