MODEL 1
REMARK VINA RESULT:      -6.7      0.000      0.000
REMARK  Name = 
REMARK  5 active torsions:
REMARK  status: ('A' for Active; 'I' for Inactive)
REMARK    1  A    between atoms: C_2  and  C_3
REMARK    2  A    between atoms: C_3  and  C_4
REMARK    3  A    between atoms: C_4  and  C_5
REMARK    4  A    between atoms: N_14  and  C_15
REMARK    5  A    between atoms: C_15  and  C_16
REMARK                            x       y       z     vdW  Elec       q    Type
REMARK                         _______ _______ _______ _____ _____    ______ ____
ROOT
ATOM      1  O   UNL     1       7.696   5.567  14.822  0.00  0.00    +0.000 OA
ATOM      2  C   UNL     1       6.709   4.895  15.126  0.00  0.00    +0.000 C 
ATOM      3  N   UNL     1       6.048   5.054  16.341  0.00  0.00    +0.000 N 
ATOM      4  C   UNL     1       6.536   6.077  17.259  0.00  0.00    +0.000 C 
ATOM      5  C   UNL     1       5.617   7.284  17.421  0.00  0.00    +0.000 C 
ATOM      6  C   UNL     1       4.108   7.057  17.553  0.00  0.00    +0.000 C 
ATOM      7  N   UNL     1       3.587   5.817  18.130  0.00  0.00    +0.000 NA
ATOM      8  C   UNL     1       3.675   4.705  17.174  0.00  0.00    +0.000 C 
ATOM      9  C   UNL     1       5.063   4.107  16.884  0.00  0.00    +0.000 C 
ENDROOT
BRANCH   2  10
ATOM     10  C   UNL     1       6.135   3.880  14.155  0.00  0.00    +0.000 C 
BRANCH  10  11
ATOM     11  C   UNL     1       6.626   4.131  12.729  0.00  0.00    +0.000 C 
BRANCH  11  12
ATOM     12  C   UNL     1       6.585   2.884  11.923  0.00  0.00    +0.000 A 
ATOM     13  C   UNL     1       7.541   2.184  11.220  0.00  0.00    +0.000 A 
ATOM     14  C   UNL     1       6.877   1.070  10.650  0.00  0.00    +0.000 A 
ATOM     15  C   UNL     1       5.564   1.162  11.046  0.00  0.00    +0.000 A 
ATOM     16  O   UNL     1       5.379   2.258  11.825  0.00  0.00    +0.000 OA
ENDBRANCH  11  12
ENDBRANCH  10  11
ENDBRANCH   2  10
BRANCH   7  17
ATOM     17  C   UNL     1       4.084   5.465  19.466  0.00  0.00    +0.000 C 
BRANCH  17  18
ATOM     18  C   UNL     1       3.241   4.408  20.115  0.00  0.00    +0.000 A 
ATOM     19  C   UNL     1       1.969   4.571  20.633  0.00  0.00    +0.000 A 
ATOM     20  S   UNL     1       1.388   3.084  21.254  0.00  0.00    +0.000 S 
ATOM     21  C   UNL     1       2.859   2.338  20.789  0.00  0.00    +0.000 A 
ATOM     22  N   UNL     1       3.746   3.115  20.208  0.00  0.00    +0.000 NA
ENDBRANCH  17  18
ENDBRANCH   7  17
TORSDOF 5
ENDMDL
MODEL 2
REMARK VINA RESULT:      -6.5      5.078      8.593
REMARK  Name = 
REMARK  5 active torsions:
REMARK  status: ('A' for Active; 'I' for Inactive)
REMARK    1  A    between atoms: C_2  and  C_3
REMARK    2  A    between atoms: C_3  and  C_4
REMARK    3  A    between atoms: C_4  and  C_5
REMARK    4  A    between atoms: N_14  and  C_15
REMARK    5  A    between atoms: C_15  and  C_16
REMARK                            x       y       z     vdW  Elec       q    Type
REMARK                         _______ _______ _______ _____ _____    ______ ____
ROOT
ATOM      1  O   UNL     1       0.705   7.668  21.552  0.00  0.00    +0.000 OA
ATOM      2  C   UNL     1       1.376   7.718  20.520  0.00  0.00    +0.000 C 
ATOM      3  N   UNL     1       2.107   6.627  20.056  0.00  0.00    +0.000 N 
ATOM      4  C   UNL     1       2.039   5.382  20.815  0.00  0.00    +0.000 C 
ATOM      5  C   UNL     1       1.280   4.252  20.126  0.00  0.00    +0.000 C 
ATOM      6  C   UNL     1       1.503   4.010  18.631  0.00  0.00    +0.000 C 
ATOM      7  N   UNL     1       2.778   4.355  18.001  0.00  0.00    +0.000 NA
ATOM      8  C   UNL     1       2.894   5.804  17.787  0.00  0.00    +0.000 C 
ATOM      9  C   UNL     1       3.141   6.699  19.014  0.00  0.00    +0.000 C 
ENDROOT
BRANCH   2  10
ATOM     10  C   UNL     1       1.399   8.975  19.671  0.00  0.00    +0.000 C 
BRANCH  10  11
ATOM     11  C   UNL     1       0.425  10.026  20.203  0.00  0.00    +0.000 C 
BRANCH  11  12
ATOM     12  C   UNL     1      -0.609  10.358  19.189  0.00  0.00    +0.000 A 
ATOM     13  C   UNL     1      -0.833   9.932  17.898  0.00  0.00    +0.000 A 
ATOM     14  C   UNL     1      -1.981  10.627  17.446  0.00  0.00    +0.000 A 
ATOM     15  C   UNL     1      -2.383  11.425  18.492  0.00  0.00    +0.000 A 
ATOM     16  O   UNL     1      -1.558  11.263  19.556  0.00  0.00    +0.000 OA
ENDBRANCH  11  12
ENDBRANCH  10  11
ENDBRANCH   2  10
BRANCH   7  17
ATOM     17  C   UNL     1       3.980   3.767  18.606  0.00  0.00    +0.000 C 
BRANCH  17  18
ATOM     18  C   UNL     1       5.211   4.054  17.798  0.00  0.00    +0.000 A 
ATOM     19  C   UNL     1       5.344   3.931  16.427  0.00  0.00    +0.000 A 
ATOM     20  S   UNL     1       6.922   4.390  15.942  0.00  0.00    +0.000 S 
ATOM     21  C   UNL     1       7.307   4.718  17.580  0.00  0.00    +0.000 A 
ATOM     22  N   UNL     1       6.348   4.511  18.455  0.00  0.00    +0.000 NA
ENDBRANCH  17  18
ENDBRANCH   7  17
TORSDOF 5
ENDMDL
MODEL 3
REMARK VINA RESULT:      -6.4      1.021      1.245
REMARK  Name = 
REMARK  5 active torsions:
REMARK  status: ('A' for Active; 'I' for Inactive)
REMARK    1  A    between atoms: C_2  and  C_3
REMARK    2  A    between atoms: C_3  and  C_4
REMARK    3  A    between atoms: C_4  and  C_5
REMARK    4  A    between atoms: N_14  and  C_15
REMARK    5  A    between atoms: C_15  and  C_16
REMARK                            x       y       z     vdW  Elec       q    Type
REMARK                         _______ _______ _______ _____ _____    ______ ____
ROOT
ATOM      1  O   UNL     1       7.659   5.482  15.297  0.00  0.00    +0.000 OA
ATOM      2  C   UNL     1       6.685   4.770  15.544  0.00  0.00    +0.000 C 
ATOM      3  N   UNL     1       5.872   4.982  16.655  0.00  0.00    +0.000 N 
ATOM      4  C   UNL     1       6.182   6.110  17.527  0.00  0.00    +0.000 C 
ATOM      5  C   UNL     1       5.180   7.258  17.471  0.00  0.00    +0.000 C 
ATOM      6  C   UNL     1       3.682   6.937  17.447  0.00  0.00    +0.000 C 
ATOM      7  N   UNL     1       3.171   5.716  18.069  0.00  0.00    +0.000 NA
ATOM      8  C   UNL     1       3.440   4.537  17.234  0.00  0.00    +0.000 C 
ATOM      9  C   UNL     1       4.887   4.017  17.162  0.00  0.00    +0.000 C 
ENDROOT
BRANCH   2  10
ATOM     10  C   UNL     1       6.294   3.641  14.609  0.00  0.00    +0.000 C 
BRANCH  10  11
ATOM     11  C   UNL     1       6.062   4.149  13.186  0.00  0.00    +0.000 C 
BRANCH  11  12
ATOM     12  C   UNL     1       6.231   3.057  12.194  0.00  0.00    +0.000 A 
ATOM     13  C   UNL     1       5.351   2.173  11.605  0.00  0.00    +0.000 A 
ATOM     14  C   UNL     1       6.126   1.360  10.743  0.00  0.00    +0.000 A 
ATOM     15  C   UNL     1       7.423   1.802  10.859  0.00  0.00    +0.000 A 
ATOM     16  O   UNL     1       7.494   2.836  11.735  0.00  0.00    +0.000 OA
ENDBRANCH  11  12
ENDBRANCH  10  11
ENDBRANCH   2  10
BRANCH   7  17
ATOM     17  C   UNL     1       3.521   5.512  19.480  0.00  0.00    +0.000 C 
BRANCH  17  18
ATOM     18  C   UNL     1       2.647   4.479  20.129  0.00  0.00    +0.000 A 
ATOM     19  C   UNL     1       3.023   3.579  21.109  0.00  0.00    +0.000 A 
ATOM     20  S   UNL     1       1.687   2.609  21.566  0.00  0.00    +0.000 S 
ATOM     21  C   UNL     1       0.713   3.454  20.436  0.00  0.00    +0.000 A 
ATOM     22  N   UNL     1       1.311   4.401  19.748  0.00  0.00    +0.000 NA
ENDBRANCH  17  18
ENDBRANCH   7  17
TORSDOF 5
ENDMDL
MODEL 4
REMARK VINA RESULT:      -6.3      1.025      1.417
REMARK  Name = 
REMARK  5 active torsions:
REMARK  status: ('A' for Active; 'I' for Inactive)
REMARK    1  A    between atoms: C_2  and  C_3
REMARK    2  A    between atoms: C_3  and  C_4
REMARK    3  A    between atoms: C_4  and  C_5
REMARK    4  A    between atoms: N_14  and  C_15
REMARK    5  A    between atoms: C_15  and  C_16
REMARK                            x       y       z     vdW  Elec       q    Type
REMARK                         _______ _______ _______ _____ _____    ______ ____
ROOT
ATOM      1  O   UNL     1       8.100   4.776  14.745  0.00  0.00    +0.000 OA
ATOM      2  C   UNL     1       6.896   4.575  14.915  0.00  0.00    +0.000 C 
ATOM      3  N   UNL     1       6.324   4.521  16.184  0.00  0.00    +0.000 N 
ATOM      4  C   UNL     1       7.189   4.742  17.337  0.00  0.00    +0.000 C 
ATOM      5  C   UNL     1       6.953   6.057  18.073  0.00  0.00    +0.000 C 
ATOM      6  C   UNL     1       5.515   6.518  18.328  0.00  0.00    +0.000 C 
ATOM      7  N   UNL     1       4.432   5.545  18.466  0.00  0.00    +0.000 NA
ATOM      8  C   UNL     1       4.030   5.003  17.161  0.00  0.00    +0.000 C 
ATOM      9  C   UNL     1       4.976   4.007  16.468  0.00  0.00    +0.000 C 
ENDROOT
BRANCH   2  10
ATOM     10  C   UNL     1       5.962   4.422  13.730  0.00  0.00    +0.000 C 
BRANCH  10  11
ATOM     11  C   UNL     1       6.739   4.259  12.423  0.00  0.00    +0.000 C 
BRANCH  11  12
ATOM     12  C   UNL     1       6.478   2.933  11.808  0.00  0.00    +0.000 A 
ATOM     13  C   UNL     1       5.328   2.202  11.595  0.00  0.00    +0.000 A 
ATOM     14  C   UNL     1       5.735   1.000  10.967  0.00  0.00    +0.000 A 
ATOM     15  C   UNL     1       7.101   1.078  10.836  0.00  0.00    +0.000 A 
ATOM     16  O   UNL     1       7.560   2.251  11.339  0.00  0.00    +0.000 OA
ENDBRANCH  11  12
ENDBRANCH  10  11
ENDBRANCH   2  10
BRANCH   7  17
ATOM     17  C   UNL     1       4.622   4.504  19.484  0.00  0.00    +0.000 C 
BRANCH  17  18
ATOM     18  C   UNL     1       3.317   4.043  20.063  0.00  0.00    +0.000 A 
ATOM     19  C   UNL     1       3.049   2.799  20.604  0.00  0.00    +0.000 A 
ATOM     20  S   UNL     1       1.430   2.732  21.162  0.00  0.00    +0.000 S 
ATOM     21  C   UNL     1       1.208   4.352  20.648  0.00  0.00    +0.000 A 
ATOM     22  N   UNL     1       2.249   4.934  20.095  0.00  0.00    +0.000 NA
ENDBRANCH  17  18
ENDBRANCH   7  17
TORSDOF 5
ENDMDL
MODEL 5
REMARK VINA RESULT:      -6.3      0.981      1.279
REMARK  Name = 
REMARK  5 active torsions:
REMARK  status: ('A' for Active; 'I' for Inactive)
REMARK    1  A    between atoms: C_2  and  C_3
REMARK    2  A    between atoms: C_3  and  C_4
REMARK    3  A    between atoms: C_4  and  C_5
REMARK    4  A    between atoms: N_14  and  C_15
REMARK    5  A    between atoms: C_15  and  C_16
REMARK                            x       y       z     vdW  Elec       q    Type
REMARK                         _______ _______ _______ _____ _____    ______ ____
ROOT
ATOM      1  O   UNL     1       7.729   5.349  14.737  0.00  0.00    +0.000 OA
ATOM      2  C   UNL     1       6.757   4.675  15.080  0.00  0.00    +0.000 C 
ATOM      3  N   UNL     1       6.088   4.894  16.282  0.00  0.00    +0.000 N 
ATOM      4  C   UNL     1       6.548   5.984  17.136  0.00  0.00    +0.000 C 
ATOM      5  C   UNL     1       5.601   7.177  17.220  0.00  0.00    +0.000 C 
ATOM      6  C   UNL     1       4.098   6.923  17.363  0.00  0.00    +0.000 C 
ATOM      7  N   UNL     1       3.604   5.710  18.014  0.00  0.00    +0.000 NA
ATOM      8  C   UNL     1       3.720   4.543  17.130  0.00  0.00    +0.000 C 
ATOM      9  C   UNL     1       5.123   3.961  16.880  0.00  0.00    +0.000 C 
ENDROOT
BRANCH   2  10
ATOM     10  C   UNL     1       6.209   3.589  14.174  0.00  0.00    +0.000 C 
BRANCH  10  11
ATOM     11  C   UNL     1       6.432   3.927  12.700  0.00  0.00    +0.000 C 
BRANCH  11  12
ATOM     12  C   UNL     1       5.295   3.460  11.866  0.00  0.00    +0.000 A 
ATOM     13  C   UNL     1       4.186   4.091  11.345  0.00  0.00    +0.000 A 
ATOM     14  C   UNL     1       3.461   3.099  10.640  0.00  0.00    +0.000 A 
ATOM     15  C   UNL     1       4.177   1.933  10.773  0.00  0.00    +0.000 A 
ATOM     16  O   UNL     1       5.295   2.144  11.512  0.00  0.00    +0.000 OA
ENDBRANCH  11  12
ENDBRANCH  10  11
ENDBRANCH   2  10
BRANCH   7  17
ATOM     17  C   UNL     1       4.104   5.454  19.371  0.00  0.00    +0.000 C 
BRANCH  17  18
ATOM     18  C   UNL     1       3.279   4.424  20.085  0.00  0.00    +0.000 A 
ATOM     19  C   UNL     1       2.055   4.626  20.695  0.00  0.00    +0.000 A 
ATOM     20  S   UNL     1       1.476   3.158  21.363  0.00  0.00    +0.000 S 
ATOM     21  C   UNL     1       2.886   2.367  20.794  0.00  0.00    +0.000 A 
ATOM     22  N   UNL     1       3.750   3.116  20.145  0.00  0.00    +0.000 NA
ENDBRANCH  17  18
ENDBRANCH   7  17
TORSDOF 5
ENDMDL
MODEL 6
REMARK VINA RESULT:      -6.2      4.959      8.558
REMARK  Name = 
REMARK  5 active torsions:
REMARK  status: ('A' for Active; 'I' for Inactive)
REMARK    1  A    between atoms: C_2  and  C_3
REMARK    2  A    between atoms: C_3  and  C_4
REMARK    3  A    between atoms: C_4  and  C_5
REMARK    4  A    between atoms: N_14  and  C_15
REMARK    5  A    between atoms: C_15  and  C_16
REMARK                            x       y       z     vdW  Elec       q    Type
REMARK                         _______ _______ _______ _____ _____    ______ ____
ROOT
ATOM      1  O   UNL     1       0.811   7.929  21.580  0.00  0.00    +0.000 OA
ATOM      2  C   UNL     1       1.392   7.887  20.494  0.00  0.00    +0.000 C 
ATOM      3  N   UNL     1       2.087   6.759  20.067  0.00  0.00    +0.000 N 
ATOM      4  C   UNL     1       2.092   5.585  20.934  0.00  0.00    +0.000 C 
ATOM      5  C   UNL     1       1.283   4.401  20.415  0.00  0.00    +0.000 C 
ATOM      6  C   UNL     1       1.381   4.028  18.932  0.00  0.00    +0.000 C 
ATOM      7  N   UNL     1       2.595   4.315  18.169  0.00  0.00    +0.000 NA
ATOM      8  C   UNL     1       2.684   5.739  17.820  0.00  0.00    +0.000 C 
ATOM      9  C   UNL     1       3.028   6.738  18.938  0.00  0.00    +0.000 C 
ENDROOT
BRANCH   2  10
ATOM     10  C   UNL     1       1.335   9.065  19.540  0.00  0.00    +0.000 C 
BRANCH  10  11
ATOM     11  C   UNL     1       0.470  10.195  20.099  0.00  0.00    +0.000 C 
BRANCH  11  12
ATOM     12  C   UNL     1      -0.640  10.528  19.169  0.00  0.00    +0.000 A 
ATOM     13  C   UNL     1      -1.702  11.403  19.245  0.00  0.00    +0.000 A 
ATOM     14  C   UNL     1      -2.422  11.256  18.034  0.00  0.00    +0.000 A 
ATOM     15  C   UNL     1      -1.750  10.306  17.301  0.00  0.00    +0.000 A 
ATOM     16  O   UNL     1      -0.663   9.863  17.981  0.00  0.00    +0.000 OA
ENDBRANCH  11  12
ENDBRANCH  10  11
ENDBRANCH   2  10
BRANCH   7  17
ATOM     17  C   UNL     1       3.847   3.780  18.719  0.00  0.00    +0.000 C 
BRANCH  17  18
ATOM     18  C   UNL     1       5.014   4.043  17.812  0.00  0.00    +0.000 A 
ATOM     19  C   UNL     1       6.230   4.594  18.172  0.00  0.00    +0.000 A 
ATOM     20  S   UNL     1       7.265   4.684  16.810  0.00  0.00    +0.000 S 
ATOM     21  C   UNL     1       6.029   3.986  15.850  0.00  0.00    +0.000 A 
ATOM     22  N   UNL     1       4.908   3.693  16.470  0.00  0.00    +0.000 NA
ENDBRANCH  17  18
ENDBRANCH   7  17
TORSDOF 5
ENDMDL
MODEL 7
REMARK VINA RESULT:      -6.2      4.164      6.708
REMARK  Name = 
REMARK  5 active torsions:
REMARK  status: ('A' for Active; 'I' for Inactive)
REMARK    1  A    between atoms: C_2  and  C_3
REMARK    2  A    between atoms: C_3  and  C_4
REMARK    3  A    between atoms: C_4  and  C_5
REMARK    4  A    between atoms: N_14  and  C_15
REMARK    5  A    between atoms: C_15  and  C_16
REMARK                            x       y       z     vdW  Elec       q    Type
REMARK                         _______ _______ _______ _____ _____    ______ ____
ROOT
ATOM      1  O   UNL     1       8.559   6.882  19.265  0.00  0.00    +0.000 OA
ATOM      2  C   UNL     1       7.893   7.097  18.251  0.00  0.00    +0.000 C 
ATOM      3  N   UNL     1       6.810   6.299  17.891  0.00  0.00    +0.000 N 
ATOM      4  C   UNL     1       6.447   5.195  18.774  0.00  0.00    +0.000 C 
ATOM      5  C   UNL     1       5.136   5.384  19.531  0.00  0.00    +0.000 C 
ATOM      6  C   UNL     1       3.925   5.958  18.790  0.00  0.00    +0.000 C 
ATOM      7  N   UNL     1       3.768   5.757  17.349  0.00  0.00    +0.000 NA
ATOM      8  C   UNL     1       4.659   6.642  16.586  0.00  0.00    +0.000 C 
ATOM      9  C   UNL     1       6.163   6.318  16.571  0.00  0.00    +0.000 C 
ENDROOT
BRANCH   2  10
ATOM     10  C   UNL     1       8.200   8.285  17.359  0.00  0.00    +0.000 C 
BRANCH  10  11
ATOM     11  C   UNL     1       7.790   9.601  18.022  0.00  0.00    +0.000 C 
BRANCH  11  12
ATOM     12  C   UNL     1       8.978  10.344  18.515  0.00  0.00    +0.000 A 
ATOM     13  C   UNL     1       9.992  11.028  17.880  0.00  0.00    +0.000 A 
ATOM     14  C   UNL     1      10.841  11.516  18.903  0.00  0.00    +0.000 A 
ATOM     15  C   UNL     1      10.287  11.103  20.091  0.00  0.00    +0.000 A 
ATOM     16  O   UNL     1       9.152  10.395  19.864  0.00  0.00    +0.000 OA
ENDBRANCH  11  12
ENDBRANCH  10  11
ENDBRANCH   2  10
BRANCH   7  17
ATOM     17  C   UNL     1       3.804   4.366  16.881  0.00  0.00    +0.000 C 
BRANCH  17  18
ATOM     18  C   UNL     1       2.892   3.483  17.681  0.00  0.00    +0.000 A 
ATOM     19  C   UNL     1       3.261   2.383  18.434  0.00  0.00    +0.000 A 
ATOM     20  S   UNL     1       1.886   1.698  19.193  0.00  0.00    +0.000 S 
ATOM     21  C   UNL     1       0.910   2.908  18.472  0.00  0.00    +0.000 A 
ATOM     22  N   UNL     1       1.533   3.780  17.711  0.00  0.00    +0.000 NA
ENDBRANCH  17  18
ENDBRANCH   7  17
TORSDOF 5
ENDMDL
MODEL 8
REMARK VINA RESULT:      -6.1      5.008      8.724
REMARK  Name = 
REMARK  5 active torsions:
REMARK  status: ('A' for Active; 'I' for Inactive)
REMARK    1  A    between atoms: C_2  and  C_3
REMARK    2  A    between atoms: C_3  and  C_4
REMARK    3  A    between atoms: C_4  and  C_5
REMARK    4  A    between atoms: N_14  and  C_15
REMARK    5  A    between atoms: C_15  and  C_16
REMARK                            x       y       z     vdW  Elec       q    Type
REMARK                         _______ _______ _______ _____ _____    ______ ____
ROOT
ATOM      1  O   UNL     1       0.666   7.804  21.486  0.00  0.00    +0.000 OA
ATOM      2  C   UNL     1       1.340   7.828  20.455  0.00  0.00    +0.000 C 
ATOM      3  N   UNL     1       2.082   6.731  20.026  0.00  0.00    +0.000 N 
ATOM      4  C   UNL     1       2.023   5.509  20.821  0.00  0.00    +0.000 C 
ATOM      5  C   UNL     1       1.276   4.352  20.164  0.00  0.00    +0.000 C 
ATOM      6  C   UNL     1       1.507   4.067  18.677  0.00  0.00    +0.000 C 
ATOM      7  N   UNL     1       2.780   4.405  18.042  0.00  0.00    +0.000 NA
ATOM      8  C   UNL     1       2.884   5.847  17.785  0.00  0.00    +0.000 C 
ATOM      9  C   UNL     1       3.119   6.781  18.985  0.00  0.00    +0.000 C 
ENDROOT
BRANCH   2  10
ATOM     10  C   UNL     1       1.355   9.060  19.569  0.00  0.00    +0.000 C 
BRANCH  10  11
ATOM     11  C   UNL     1       0.197  10.002  19.902  0.00  0.00    +0.000 C 
BRANCH  11  12
ATOM     12  C   UNL     1       0.404  11.339  19.290  0.00  0.00    +0.000 A 
ATOM     13  C   UNL     1       1.524  12.110  19.064  0.00  0.00    +0.000 A 
ATOM     14  C   UNL     1       1.067  13.300  18.449  0.00  0.00    +0.000 A 
ATOM     15  C   UNL     1      -0.298  13.176  18.336  0.00  0.00    +0.000 A 
ATOM     16  O   UNL     1      -0.708  11.985  18.840  0.00  0.00    +0.000 OA
ENDBRANCH  11  12
ENDBRANCH  10  11
ENDBRANCH   2  10
BRANCH   7  17
ATOM     17  C   UNL     1       3.985   3.846  18.668  0.00  0.00    +0.000 C 
BRANCH  17  18
ATOM     18  C   UNL     1       5.215   4.114  17.852  0.00  0.00    +0.000 A 
ATOM     19  C   UNL     1       5.320   4.053  16.474  0.00  0.00    +0.000 A 
ATOM     20  S   UNL     1       6.910   4.460  15.983  0.00  0.00    +0.000 S 
ATOM     21  C   UNL     1       7.338   4.688  17.627  0.00  0.00    +0.000 A 
ATOM     22  N   UNL     1       6.384   4.483  18.509  0.00  0.00    +0.000 NA
ENDBRANCH  17  18
ENDBRANCH   7  17
TORSDOF 5
ENDMDL
MODEL 9
REMARK VINA RESULT:      -6.0      6.171      8.430
REMARK  Name = 
REMARK  5 active torsions:
REMARK  status: ('A' for Active; 'I' for Inactive)
REMARK    1  A    between atoms: C_2  and  C_3
REMARK    2  A    between atoms: C_3  and  C_4
REMARK    3  A    between atoms: C_4  and  C_5
REMARK    4  A    between atoms: N_14  and  C_15
REMARK    5  A    between atoms: C_15  and  C_16
REMARK                            x       y       z     vdW  Elec       q    Type
REMARK                         _______ _______ _______ _____ _____    ______ ____
ROOT
ATOM      1  O   UNL     1       2.753   8.373  17.266  0.00  0.00    +0.000 OA
ATOM      2  C   UNL     1       2.396   8.078  18.408  0.00  0.00    +0.000 C 
ATOM      3  N   UNL     1       1.704   8.969  19.224  0.00  0.00    +0.000 N 
ATOM      4  C   UNL     1       1.371  10.282  18.680  0.00  0.00    +0.000 C 
ATOM      5  C   UNL     1      -0.112  10.503  18.401  0.00  0.00    +0.000 C 
ATOM      6  C   UNL     1      -1.141  10.021  19.429  0.00  0.00    +0.000 C 
ATOM      7  N   UNL     1      -0.797   9.940  20.848  0.00  0.00    +0.000 NA
ATOM      8  C   UNL     1       0.038   8.765  21.130  0.00  0.00    +0.000 C 
ATOM      9  C   UNL     1       1.507   8.794  20.670  0.00  0.00    +0.000 C 
ENDROOT
BRANCH   2  10
ATOM     10  C   UNL     1       2.660   6.692  18.968  0.00  0.00    +0.000 C 
BRANCH  10  11
ATOM     11  C   UNL     1       2.220   5.603  17.990  0.00  0.00    +0.000 C 
BRANCH  11  12
ATOM     12  C   UNL     1       1.664   4.430  18.712  0.00  0.00    +0.000 A 
ATOM     13  C   UNL     1       1.345   4.200  20.033  0.00  0.00    +0.000 A 
ATOM     14  C   UNL     1       0.860   2.871  20.098  0.00  0.00    +0.000 A 
ATOM     15  C   UNL     1       0.911   2.381  18.815  0.00  0.00    +0.000 A 
ATOM     16  O   UNL     1       1.393   3.323  17.966  0.00  0.00    +0.000 OA
ENDBRANCH  11  12
ENDBRANCH  10  11
ENDBRANCH   2  10
BRANCH   7  17
ATOM     17  C   UNL     1      -0.281  11.171  21.461  0.00  0.00    +0.000 C 
BRANCH  17  18
ATOM     18  C   UNL     1      -1.381  12.015  22.033  0.00  0.00    +0.000 A 
ATOM     19  C   UNL     1      -1.850  13.213  21.527  0.00  0.00    +0.000 A 
ATOM     20  S   UNL     1      -3.131  13.806  22.498  0.00  0.00    +0.000 S 
ATOM     21  C   UNL     1      -2.970  12.434  23.512  0.00  0.00    +0.000 A 
ATOM     22  N   UNL     1      -2.035  11.571  23.178  0.00  0.00    +0.000 NA
ENDBRANCH  17  18
ENDBRANCH   7  17
TORSDOF 5
ENDMDL
