MODEL 1
REMARK VINA RESULT:      -8.2      0.000      0.000
REMARK  Name = 
REMARK  12 active torsions:
REMARK  status: ('A' for Active; 'I' for Inactive)
REMARK    1  A    between atoms: C_2  and  C_3
REMARK    2  A    between atoms: C_3  and  N_4
REMARK    3  A    between atoms: N_7  and  C_8
REMARK    4  A    between atoms: C_8  and  C_9
REMARK    5  A    between atoms: C_8  and  C_15
REMARK    6  A    between atoms: C_18  and  C_19
REMARK    7  A    between atoms: N_21  and  C_22
REMARK    8  A    between atoms: N_21  and  C_25
REMARK    9  A    between atoms: C_22  and  C_23
REMARK   10  A    between atoms: C_23  and  C_24
REMARK   11  A    between atoms: C_25  and  C_26
REMARK   12  A    between atoms: C_26  and  C_27
REMARK                            x       y       z     vdW  Elec       q    Type
REMARK                         _______ _______ _______ _____ _____    ______ ____
ROOT
ATOM      1  C   UNL     1       3.037   5.874  18.302  0.00  0.00    +0.000 C 
ENDROOT
BRANCH   1   5
ATOM      2  N   UNL     1       5.388   5.127  15.380  0.00  0.00    +0.000 NA
ATOM      3  C   UNL     1       4.770   4.140  16.285  0.00  0.00    +0.000 C 
ATOM      4  C   UNL     1       4.978   4.438  17.788  0.00  0.00    +0.000 C 
ATOM      5  N   UNL     1       4.525   5.790  18.230  0.00  0.00    +0.000 NA
ATOM      6  C   UNL     1       5.124   6.783  17.310  0.00  0.00    +0.000 C 
ATOM      7  C   UNL     1       4.943   6.478  15.800  0.00  0.00    +0.000 C 
BRANCH   2   8
ATOM      8  C   UNL     1       6.857   5.053  15.384  0.00  0.00    +0.000 C 
BRANCH   8  10
ATOM      9  C   UNL     1       6.839   4.152  13.039  0.00  0.00    +0.000 C 
ATOM     10  C   UNL     1       7.440   4.844  14.012  0.00  0.00    +0.000 C 
ENDBRANCH   8  10
ENDBRANCH   2   8
ENDBRANCH   1   5
BRANCH   1  11
ATOM     11  C   UNL     1       2.433   4.768  19.189  0.00  0.00    +0.000 A 
ATOM     12  C   UNL     1       1.454   3.883  18.696  0.00  0.00    +0.000 A 
ATOM     13  C   UNL     1       0.782   3.014  19.555  0.00  0.00    +0.000 A 
ATOM     14  C   UNL     1       1.117   2.974  20.906  0.00  0.00    +0.000 A 
ATOM     15  C   UNL     1       2.140   3.784  21.393  0.00  0.00    +0.000 A 
ATOM     16  C   UNL     1       2.797   4.674  20.542  0.00  0.00    +0.000 A 
ENDBRANCH   1  11
BRANCH   1  17
ATOM     17  C   UNL     1       2.478   7.245  18.718  0.00  0.00    +0.000 A 
ATOM     18  C   UNL     1       2.378   8.268  17.759  0.00  0.00    +0.000 A 
ATOM     19  C   UNL     1       1.733   9.479  18.050  0.00  0.00    +0.000 A 
ATOM     20  C   UNL     1       1.244   9.748  19.332  0.00  0.00    +0.000 A 
ATOM     21  C   UNL     1       1.387   8.740  20.304  0.00  0.00    +0.000 A 
ATOM     22  C   UNL     1       1.980   7.503  20.001  0.00  0.00    +0.000 A 
BRANCH  20  23
ATOM     23  C   UNL     1       0.470  10.984  19.718  0.00  0.00    +0.000 C 
ATOM     24  O   UNL     1       1.120  11.862  20.298  0.00  0.00    +0.000 OA
ATOM     25  N   UNL     1      -0.898  11.170  19.428  0.00  0.00    +0.000 N 
BRANCH  25  26
ATOM     26  C   UNL     1      -1.536  12.406  19.928  0.00  0.00    +0.000 C 
BRANCH  26  27
ATOM     27  C   UNL     1      -3.067  12.453  19.791  0.00  0.00    +0.000 C 
ATOM     28  C   UNL     1      -3.784  12.801  21.089  0.00  0.00    +0.000 C 
ENDBRANCH  26  27
ENDBRANCH  25  26
BRANCH  25  29
ATOM     29  C   UNL     1      -1.735  10.190  18.738  0.00  0.00    +0.000 C 
BRANCH  29  30
ATOM     30  C   UNL     1      -1.720  10.186  17.209  0.00  0.00    +0.000 C 
ATOM     31  C   UNL     1      -3.141  10.024  16.686  0.00  0.00    +0.000 C 
ENDBRANCH  29  30
ENDBRANCH  25  29
ENDBRANCH  20  23
ENDBRANCH   1  17
TORSDOF 10
ENDMDL
MODEL 2
REMARK VINA RESULT:      -7.9      0.763      1.488
REMARK  Name = 
REMARK  12 active torsions:
REMARK  status: ('A' for Active; 'I' for Inactive)
REMARK    1  A    between atoms: C_2  and  C_3
REMARK    2  A    between atoms: C_3  and  N_4
REMARK    3  A    between atoms: N_7  and  C_8
REMARK    4  A    between atoms: C_8  and  C_9
REMARK    5  A    between atoms: C_8  and  C_15
REMARK    6  A    between atoms: C_18  and  C_19
REMARK    7  A    between atoms: N_21  and  C_22
REMARK    8  A    between atoms: N_21  and  C_25
REMARK    9  A    between atoms: C_22  and  C_23
REMARK   10  A    between atoms: C_23  and  C_24
REMARK   11  A    between atoms: C_25  and  C_26
REMARK   12  A    between atoms: C_26  and  C_27
REMARK                            x       y       z     vdW  Elec       q    Type
REMARK                         _______ _______ _______ _____ _____    ______ ____
ROOT
ATOM      1  C   UNL     1       2.815   5.881  18.455  0.00  0.00    +0.000 C 
ENDROOT
BRANCH   1   5
ATOM      2  N   UNL     1       5.339   4.891  15.758  0.00  0.00    +0.000 NA
ATOM      3  C   UNL     1       4.707   3.992  16.743  0.00  0.00    +0.000 C 
ATOM      4  C   UNL     1       4.827   4.471  18.208  0.00  0.00    +0.000 C 
ATOM      5  N   UNL     1       4.307   5.847  18.466  0.00  0.00    +0.000 NA
ATOM      6  C   UNL     1       4.921   6.748  17.465  0.00  0.00    +0.000 C 
ATOM      7  C   UNL     1       4.829   6.263  15.994  0.00  0.00    +0.000 C 
BRANCH   2   8
ATOM      8  C   UNL     1       6.808   4.875  15.842  0.00  0.00    +0.000 C 
BRANCH   8  10
ATOM      9  C   UNL     1       6.988   4.420  13.378  0.00  0.00    +0.000 C 
ATOM     10  C   UNL     1       7.476   4.967  14.496  0.00  0.00    +0.000 C 
ENDBRANCH   8  10
ENDBRANCH   2   8
ENDBRANCH   1   5
BRANCH   1  11
ATOM     11  C   UNL     1       2.202   4.848  19.420  0.00  0.00    +0.000 A 
ATOM     12  C   UNL     1       2.611   4.766  20.766  0.00  0.00    +0.000 A 
ATOM     13  C   UNL     1       2.190   3.711  21.576  0.00  0.00    +0.000 A 
ATOM     14  C   UNL     1       1.311   2.756  21.072  0.00  0.00    +0.000 A 
ATOM     15  C   UNL     1       0.833   2.868  19.768  0.00  0.00    +0.000 A 
ATOM     16  C   UNL     1       1.272   3.908  18.946  0.00  0.00    +0.000 A 
ENDBRANCH   1  11
BRANCH   1  17
ATOM     17  C   UNL     1       2.191   7.264  18.700  0.00  0.00    +0.000 A 
ATOM     18  C   UNL     1       1.818   7.630  20.006  0.00  0.00    +0.000 A 
ATOM     19  C   UNL     1       1.393   8.933  20.305  0.00  0.00    +0.000 A 
ATOM     20  C   UNL     1       1.239   9.892  19.299  0.00  0.00    +0.000 A 
ATOM     21  C   UNL     1       1.568   9.510  17.985  0.00  0.00    +0.000 A 
ATOM     22  C   UNL     1       2.051   8.223  17.690  0.00  0.00    +0.000 A 
BRANCH  20  23
ATOM     23  C   UNL     1       0.863  11.334  19.532  0.00  0.00    +0.000 C 
ATOM     24  O   UNL     1       1.801  12.094  19.801  0.00  0.00    +0.000 OA
ATOM     25  N   UNL     1      -0.457  11.822  19.430  0.00  0.00    +0.000 N 
BRANCH  25  26
ATOM     26  C   UNL     1      -0.681  13.248  19.751  0.00  0.00    +0.000 C 
BRANCH  26  27
ATOM     27  C   UNL     1      -1.539  13.511  20.998  0.00  0.00    +0.000 C 
ATOM     28  C   UNL     1      -0.909  13.005  22.289  0.00  0.00    +0.000 C 
ENDBRANCH  26  27
ENDBRANCH  25  26
BRANCH  25  29
ATOM     29  C   UNL     1      -1.619  10.996  19.106  0.00  0.00    +0.000 C 
BRANCH  29  30
ATOM     30  C   UNL     1      -1.928  10.743  17.629  0.00  0.00    +0.000 C 
ATOM     31  C   UNL     1      -3.081   9.755  17.513  0.00  0.00    +0.000 C 
ENDBRANCH  29  30
ENDBRANCH  25  29
ENDBRANCH  20  23
ENDBRANCH   1  17
TORSDOF 10
ENDMDL
MODEL 3
REMARK VINA RESULT:      -7.8      1.566      2.325
REMARK  Name = 
REMARK  12 active torsions:
REMARK  status: ('A' for Active; 'I' for Inactive)
REMARK    1  A    between atoms: C_2  and  C_3
REMARK    2  A    between atoms: C_3  and  N_4
REMARK    3  A    between atoms: N_7  and  C_8
REMARK    4  A    between atoms: C_8  and  C_9
REMARK    5  A    between atoms: C_8  and  C_15
REMARK    6  A    between atoms: C_18  and  C_19
REMARK    7  A    between atoms: N_21  and  C_22
REMARK    8  A    between atoms: N_21  and  C_25
REMARK    9  A    between atoms: C_22  and  C_23
REMARK   10  A    between atoms: C_23  and  C_24
REMARK   11  A    between atoms: C_25  and  C_26
REMARK   12  A    between atoms: C_26  and  C_27
REMARK                            x       y       z     vdW  Elec       q    Type
REMARK                         _______ _______ _______ _____ _____    ______ ____
ROOT
ATOM      1  C   UNL     1       2.966   5.907  18.309  0.00  0.00    +0.000 C 
ENDROOT
BRANCH   1   5
ATOM      2  N   UNL     1       5.344   5.071  15.433  0.00  0.00    +0.000 NA
ATOM      3  C   UNL     1       4.761   4.118  16.396  0.00  0.00    +0.000 C 
ATOM      4  C   UNL     1       4.958   4.512  17.879  0.00  0.00    +0.000 C 
ATOM      5  N   UNL     1       4.457   5.871  18.241  0.00  0.00    +0.000 NA
ATOM      6  C   UNL     1       5.021   6.828  17.262  0.00  0.00    +0.000 C 
ATOM      7  C   UNL     1       4.851   6.427  15.772  0.00  0.00    +0.000 C 
BRANCH   2   8
ATOM      8  C   UNL     1       6.816   5.049  15.440  0.00  0.00    +0.000 C 
BRANCH   8  10
ATOM      9  C   UNL     1       6.849   4.209  13.073  0.00  0.00    +0.000 C 
ATOM     10  C   UNL     1       7.409   4.912  14.063  0.00  0.00    +0.000 C 
ENDBRANCH   8  10
ENDBRANCH   2   8
ENDBRANCH   1   5
BRANCH   1  11
ATOM     11  C   UNL     1       2.398   4.790  19.205  0.00  0.00    +0.000 A 
ATOM     12  C   UNL     1       1.419   3.894  18.733  0.00  0.00    +0.000 A 
ATOM     13  C   UNL     1       0.778   3.013  19.603  0.00  0.00    +0.000 A 
ATOM     14  C   UNL     1       1.145   2.973  20.946  0.00  0.00    +0.000 A 
ATOM     15  C   UNL     1       2.169   3.795  21.413  0.00  0.00    +0.000 A 
ATOM     16  C   UNL     1       2.794   4.697  20.550  0.00  0.00    +0.000 A 
ENDBRANCH   1  11
BRANCH   1  17
ATOM     17  C   UNL     1       2.362   7.262  18.711  0.00  0.00    +0.000 A 
ATOM     18  C   UNL     1       2.073   8.211  17.714  0.00  0.00    +0.000 A 
ATOM     19  C   UNL     1       1.379   9.393  18.012  0.00  0.00    +0.000 A 
ATOM     20  C   UNL     1       1.028   9.714  19.326  0.00  0.00    +0.000 A 
ATOM     21  C   UNL     1       1.360   8.784  20.330  0.00  0.00    +0.000 A 
ATOM     22  C   UNL     1       2.002   7.571  20.028  0.00  0.00    +0.000 A 
BRANCH  20  23
ATOM     23  C   UNL     1       0.217  10.919  19.733  0.00  0.00    +0.000 C 
ATOM     24  O   UNL     1      -0.951  10.689  20.070  0.00  0.00    +0.000 OA
ATOM     25  N   UNL     1       0.734  12.231  19.765  0.00  0.00    +0.000 N 
BRANCH  25  26
ATOM     26  C   UNL     1      -0.200  13.320  20.123  0.00  0.00    +0.000 C 
BRANCH  26  27
ATOM     27  C   UNL     1       0.343  14.342  21.135  0.00  0.00    +0.000 C 
ATOM     28  C   UNL     1       0.462  15.753  20.572  0.00  0.00    +0.000 C 
ENDBRANCH  26  27
ENDBRANCH  25  26
BRANCH  25  29
ATOM     29  C   UNL     1       2.102  12.589  19.396  0.00  0.00    +0.000 C 
BRANCH  29  30
ATOM     30  C   UNL     1       2.323  13.280  18.049  0.00  0.00    +0.000 C 
ATOM     31  C   UNL     1       3.279  14.451  18.229  0.00  0.00    +0.000 C 
ENDBRANCH  29  30
ENDBRANCH  25  29
ENDBRANCH  20  23
ENDBRANCH   1  17
TORSDOF 10
ENDMDL
MODEL 4
REMARK VINA RESULT:      -7.7      1.079      1.866
REMARK  Name = 
REMARK  12 active torsions:
REMARK  status: ('A' for Active; 'I' for Inactive)
REMARK    1  A    between atoms: C_2  and  C_3
REMARK    2  A    between atoms: C_3  and  N_4
REMARK    3  A    between atoms: N_7  and  C_8
REMARK    4  A    between atoms: C_8  and  C_9
REMARK    5  A    between atoms: C_8  and  C_15
REMARK    6  A    between atoms: C_18  and  C_19
REMARK    7  A    between atoms: N_21  and  C_22
REMARK    8  A    between atoms: N_21  and  C_25
REMARK    9  A    between atoms: C_22  and  C_23
REMARK   10  A    between atoms: C_23  and  C_24
REMARK   11  A    between atoms: C_25  and  C_26
REMARK   12  A    between atoms: C_26  and  C_27
REMARK                            x       y       z     vdW  Elec       q    Type
REMARK                         _______ _______ _______ _____ _____    ______ ____
ROOT
ATOM      1  C   UNL     1       2.763   5.992  18.575  0.00  0.00    +0.000 C 
ENDROOT
BRANCH   1   5
ATOM      2  N   UNL     1       5.245   4.984  15.846  0.00  0.00    +0.000 NA
ATOM      3  C   UNL     1       4.636   4.094  16.853  0.00  0.00    +0.000 C 
ATOM      4  C   UNL     1       4.779   4.592  18.310  0.00  0.00    +0.000 C 
ATOM      5  N   UNL     1       4.255   5.967  18.560  0.00  0.00    +0.000 NA
ATOM      6  C   UNL     1       4.845   6.860  17.537  0.00  0.00    +0.000 C 
ATOM      7  C   UNL     1       4.730   6.356  16.074  0.00  0.00    +0.000 C 
BRANCH   2   8
ATOM      8  C   UNL     1       6.715   4.978  15.904  0.00  0.00    +0.000 C 
BRANCH   8  10
ATOM      9  C   UNL     1       6.771   4.293  13.488  0.00  0.00    +0.000 C 
ATOM     10  C   UNL     1       7.358   4.858  14.548  0.00  0.00    +0.000 C 
ENDBRANCH   8  10
ENDBRANCH   2   8
ENDBRANCH   1   5
BRANCH   1  11
ATOM     11  C   UNL     1       2.172   4.902  19.490  0.00  0.00    +0.000 A 
ATOM     12  C   UNL     1       2.557   4.787  20.840  0.00  0.00    +0.000 A 
ATOM     13  C   UNL     1       2.162   3.688  21.603  0.00  0.00    +0.000 A 
ATOM     14  C   UNL     1       1.331   2.718  21.047  0.00  0.00    +0.000 A 
ATOM     15  C   UNL     1       0.875   2.860  19.738  0.00  0.00    +0.000 A 
ATOM     16  C   UNL     1       1.289   3.945  18.963  0.00  0.00    +0.000 A 
ENDBRANCH   1  11
BRANCH   1  17
ATOM     17  C   UNL     1       2.135   7.355  18.909  0.00  0.00    +0.000 A 
ATOM     18  C   UNL     1       1.704   7.612  20.222  0.00  0.00    +0.000 A 
ATOM     19  C   UNL     1       1.271   8.888  20.611  0.00  0.00    +0.000 A 
ATOM     20  C   UNL     1       1.169   9.930  19.686  0.00  0.00    +0.000 A 
ATOM     21  C   UNL     1       1.557   9.659  18.360  0.00  0.00    +0.000 A 
ATOM     22  C   UNL     1       2.047   8.398  17.979  0.00  0.00    +0.000 A 
BRANCH  20  23
ATOM     23  C   UNL     1       0.790  11.351  20.023  0.00  0.00    +0.000 C 
ATOM     24  O   UNL     1       1.416  11.863  20.959  0.00  0.00    +0.000 OA
ATOM     25  N   UNL     1      -0.189  12.084  19.321  0.00  0.00    +0.000 N 
BRANCH  25  26
ATOM     26  C   UNL     1      -0.499  13.445  19.809  0.00  0.00    +0.000 C 
BRANCH  26  27
ATOM     27  C   UNL     1      -0.169  14.583  18.830  0.00  0.00    +0.000 C 
ATOM     28  C   UNL     1       1.105  15.339  19.182  0.00  0.00    +0.000 C 
ENDBRANCH  26  27
ENDBRANCH  25  26
BRANCH  25  29
ATOM     29  C   UNL     1      -0.966  11.560  18.199  0.00  0.00    +0.000 C 
BRANCH  29  30
ATOM     30  C   UNL     1      -2.150  10.645  18.513  0.00  0.00    +0.000 C 
ATOM     31  C   UNL     1      -2.622   9.966  17.234  0.00  0.00    +0.000 C 
ENDBRANCH  29  30
ENDBRANCH  25  29
ENDBRANCH  20  23
ENDBRANCH   1  17
TORSDOF 10
ENDMDL
MODEL 5
REMARK VINA RESULT:      -7.6      1.408      2.090
REMARK  Name = 
REMARK  12 active torsions:
REMARK  status: ('A' for Active; 'I' for Inactive)
REMARK    1  A    between atoms: C_2  and  C_3
REMARK    2  A    between atoms: C_3  and  N_4
REMARK    3  A    between atoms: N_7  and  C_8
REMARK    4  A    between atoms: C_8  and  C_9
REMARK    5  A    between atoms: C_8  and  C_15
REMARK    6  A    between atoms: C_18  and  C_19
REMARK    7  A    between atoms: N_21  and  C_22
REMARK    8  A    between atoms: N_21  and  C_25
REMARK    9  A    between atoms: C_22  and  C_23
REMARK   10  A    between atoms: C_23  and  C_24
REMARK   11  A    between atoms: C_25  and  C_26
REMARK   12  A    between atoms: C_26  and  C_27
REMARK                            x       y       z     vdW  Elec       q    Type
REMARK                         _______ _______ _______ _____ _____    ______ ____
ROOT
ATOM      1  C   UNL     1       2.977   5.762  18.223  0.00  0.00    +0.000 C 
ENDROOT
BRANCH   1   5
ATOM      2  N   UNL     1       5.404   5.074  15.349  0.00  0.00    +0.000 NA
ATOM      3  C   UNL     1       4.812   4.074  16.257  0.00  0.00    +0.000 C 
ATOM      4  C   UNL     1       4.984   4.400  17.759  0.00  0.00    +0.000 C 
ATOM      5  N   UNL     1       4.469   5.738  18.176  0.00  0.00    +0.000 NA
ATOM      6  C   UNL     1       5.042   6.743  17.252  0.00  0.00    +0.000 C 
ATOM      7  C   UNL     1       4.898   6.411  15.743  0.00  0.00    +0.000 C 
BRANCH   2   8
ATOM      8  C   UNL     1       6.875   5.061  15.377  0.00  0.00    +0.000 C 
BRANCH   8  10
ATOM      9  C   UNL     1       6.906   4.229  13.007  0.00  0.00    +0.000 C 
ATOM     10  C   UNL     1       7.489   4.888  14.014  0.00  0.00    +0.000 C 
ENDBRANCH   8  10
ENDBRANCH   2   8
ENDBRANCH   1   5
BRANCH   1  11
ATOM     11  C   UNL     1       2.407   4.680  19.160  0.00  0.00    +0.000 A 
ATOM     12  C   UNL     1       1.394   3.798  18.734  0.00  0.00    +0.000 A 
ATOM     13  C   UNL     1       0.757   2.952  19.641  0.00  0.00    +0.000 A 
ATOM     14  C   UNL     1       1.158   2.934  20.975  0.00  0.00    +0.000 A 
ATOM     15  C   UNL     1       2.213   3.741  21.395  0.00  0.00    +0.000 A 
ATOM     16  C   UNL     1       2.836   4.607  20.495  0.00  0.00    +0.000 A 
ENDBRANCH   1  11
BRANCH   1  17
ATOM     17  C   UNL     1       2.355   7.127  18.557  0.00  0.00    +0.000 A 
ATOM     18  C   UNL     1       2.095   7.456  19.900  0.00  0.00    +0.000 A 
ATOM     19  C   UNL     1       1.677   8.743  20.267  0.00  0.00    +0.000 A 
ATOM     20  C   UNL     1       1.417   9.722  19.304  0.00  0.00    +0.000 A 
ATOM     21  C   UNL     1       1.633   9.377  17.956  0.00  0.00    +0.000 A 
ATOM     22  C   UNL     1       2.109   8.107  17.588  0.00  0.00    +0.000 A 
BRANCH  20  23
ATOM     23  C   UNL     1       1.040  11.151  19.605  0.00  0.00    +0.000 C 
ATOM     24  O   UNL     1       1.686  12.014  18.997  0.00  0.00    +0.000 OA
ATOM     25  N   UNL     1       0.007  11.514  20.495  0.00  0.00    +0.000 N 
BRANCH  25  26
ATOM     26  C   UNL     1      -0.203  12.957  20.739  0.00  0.00    +0.000 C 
BRANCH  26  27
ATOM     27  C   UNL     1      -1.484  13.544  20.126  0.00  0.00    +0.000 C 
ATOM     28  C   UNL     1      -1.954  14.824  20.805  0.00  0.00    +0.000 C 
ENDBRANCH  26  27
ENDBRANCH  25  26
BRANCH  25  29
ATOM     29  C   UNL     1      -0.810  10.561  21.244  0.00  0.00    +0.000 C 
BRANCH  29  30
ATOM     30  C   UNL     1      -0.802  10.655  22.770  0.00  0.00    +0.000 C 
ATOM     31  C   UNL     1      -0.018   9.483  23.348  0.00  0.00    +0.000 C 
ENDBRANCH  29  30
ENDBRANCH  25  29
ENDBRANCH  20  23
ENDBRANCH   1  17
TORSDOF 10
ENDMDL
MODEL 6
REMARK VINA RESULT:      -7.6      1.537      2.533
REMARK  Name = 
REMARK  12 active torsions:
REMARK  status: ('A' for Active; 'I' for Inactive)
REMARK    1  A    between atoms: C_2  and  C_3
REMARK    2  A    between atoms: C_3  and  N_4
REMARK    3  A    between atoms: N_7  and  C_8
REMARK    4  A    between atoms: C_8  and  C_9
REMARK    5  A    between atoms: C_8  and  C_15
REMARK    6  A    between atoms: C_18  and  C_19
REMARK    7  A    between atoms: N_21  and  C_22
REMARK    8  A    between atoms: N_21  and  C_25
REMARK    9  A    between atoms: C_22  and  C_23
REMARK   10  A    between atoms: C_23  and  C_24
REMARK   11  A    between atoms: C_25  and  C_26
REMARK   12  A    between atoms: C_26  and  C_27
REMARK                            x       y       z     vdW  Elec       q    Type
REMARK                         _______ _______ _______ _____ _____    ______ ____
ROOT
ATOM      1  C   UNL     1       2.774   5.832  18.418  0.00  0.00    +0.000 C 
ENDROOT
BRANCH   1   5
ATOM      2  N   UNL     1       5.268   5.066  15.621  0.00  0.00    +0.000 NA
ATOM      3  C   UNL     1       4.621   4.086  16.515  0.00  0.00    +0.000 C 
ATOM      4  C   UNL     1       4.755   4.414  18.020  0.00  0.00    +0.000 C 
ATOM      5  N   UNL     1       4.265   5.767  18.417  0.00  0.00    +0.000 NA
ATOM      6  C   UNL     1       4.894   6.751  17.507  0.00  0.00    +0.000 C 
ATOM      7  C   UNL     1       4.787   6.417  15.996  0.00  0.00    +0.000 C 
BRANCH   2   8
ATOM      8  C   UNL     1       6.736   5.011  15.695  0.00  0.00    +0.000 C 
BRANCH   8  10
ATOM      9  C   UNL     1       6.795   4.167  13.330  0.00  0.00    +0.000 C 
ATOM     10  C   UNL     1       7.385   4.790  14.355  0.00  0.00    +0.000 C 
ENDBRANCH   8  10
ENDBRANCH   2   8
ENDBRANCH   1   5
BRANCH   1  11
ATOM     11  C   UNL     1       2.147   4.814  19.390  0.00  0.00    +0.000 A 
ATOM     12  C   UNL     1       2.541   4.749  20.741  0.00  0.00    +0.000 A 
ATOM     13  C   UNL     1       2.109   3.707  21.561  0.00  0.00    +0.000 A 
ATOM     14  C   UNL     1       1.232   2.747  21.060  0.00  0.00    +0.000 A 
ATOM     15  C   UNL     1       0.769   2.843  19.749  0.00  0.00    +0.000 A 
ATOM     16  C   UNL     1       1.220   3.870  18.919  0.00  0.00    +0.000 A 
ENDBRANCH   1  11
BRANCH   1  17
ATOM     17  C   UNL     1       2.181   7.229  18.665  0.00  0.00    +0.000 A 
ATOM     18  C   UNL     1       1.936   7.649  19.984  0.00  0.00    +0.000 A 
ATOM     19  C   UNL     1       1.545   8.966  20.269  0.00  0.00    +0.000 A 
ATOM     20  C   UNL     1       1.299   9.885  19.245  0.00  0.00    +0.000 A 
ATOM     21  C   UNL     1       1.500   9.449  17.922  0.00  0.00    +0.000 A 
ATOM     22  C   UNL     1       1.948   8.148  17.635  0.00  0.00    +0.000 A 
BRANCH  20  23
ATOM     23  C   UNL     1       0.952  11.338  19.454  0.00  0.00    +0.000 C 
ATOM     24  O   UNL     1       1.590  12.144  18.766  0.00  0.00    +0.000 OA
ATOM     25  N   UNL     1      -0.046  11.780  20.347  0.00  0.00    +0.000 N 
BRANCH  25  26
ATOM     26  C   UNL     1      -0.229  13.240  20.493  0.00  0.00    +0.000 C 
BRANCH  26  27
ATOM     27  C   UNL     1       0.497  13.874  21.691  0.00  0.00    +0.000 C 
ATOM     28  C   UNL     1       1.893  14.383  21.357  0.00  0.00    +0.000 C 
ENDBRANCH  26  27
ENDBRANCH  25  26
BRANCH  25  29
ATOM     29  C   UNL     1      -0.852  10.896  21.188  0.00  0.00    +0.000 C 
BRANCH  29  30
ATOM     30  C   UNL     1      -0.642  10.959  22.701  0.00  0.00    +0.000 C 
ATOM     31  C   UNL     1      -0.325   9.566  23.229  0.00  0.00    +0.000 C 
ENDBRANCH  29  30
ENDBRANCH  25  29
ENDBRANCH  20  23
ENDBRANCH   1  17
TORSDOF 10
ENDMDL
MODEL 7
REMARK VINA RESULT:      -7.5      0.950      1.489
REMARK  Name = 
REMARK  12 active torsions:
REMARK  status: ('A' for Active; 'I' for Inactive)
REMARK    1  A    between atoms: C_2  and  C_3
REMARK    2  A    between atoms: C_3  and  N_4
REMARK    3  A    between atoms: N_7  and  C_8
REMARK    4  A    between atoms: C_8  and  C_9
REMARK    5  A    between atoms: C_8  and  C_15
REMARK    6  A    between atoms: C_18  and  C_19
REMARK    7  A    between atoms: N_21  and  C_22
REMARK    8  A    between atoms: N_21  and  C_25
REMARK    9  A    between atoms: C_22  and  C_23
REMARK   10  A    between atoms: C_23  and  C_24
REMARK   11  A    between atoms: C_25  and  C_26
REMARK   12  A    between atoms: C_26  and  C_27
REMARK                            x       y       z     vdW  Elec       q    Type
REMARK                         _______ _______ _______ _____ _____    ______ ____
ROOT
ATOM      1  C   UNL     1       2.871   5.920  18.420  0.00  0.00    +0.000 C 
ENDROOT
BRANCH   1   5
ATOM      2  N   UNL     1       5.323   5.136  15.592  0.00  0.00    +0.000 NA
ATOM      3  C   UNL     1       4.764   4.176  16.562  0.00  0.00    +0.000 C 
ATOM      4  C   UNL     1       4.923   4.601  18.041  0.00  0.00    +0.000 C 
ATOM      5  N   UNL     1       4.362   5.944  18.374  0.00  0.00    +0.000 NA
ATOM      6  C   UNL     1       4.902   6.907  17.388  0.00  0.00    +0.000 C 
ATOM      7  C   UNL     1       4.772   6.477  15.903  0.00  0.00    +0.000 C 
BRANCH   2   8
ATOM      8  C   UNL     1       6.794   5.174  15.620  0.00  0.00    +0.000 C 
BRANCH   8  10
ATOM      9  C   UNL     1       6.767   4.253  13.284  0.00  0.00    +0.000 C 
ATOM     10  C   UNL     1       7.417   4.845  14.290  0.00  0.00    +0.000 C 
ENDBRANCH   8  10
ENDBRANCH   2   8
ENDBRANCH   1   5
BRANCH   1  11
ATOM     11  C   UNL     1       2.334   4.771  19.295  0.00  0.00    +0.000 A 
ATOM     12  C   UNL     1       1.372   3.864  18.809  0.00  0.00    +0.000 A 
ATOM     13  C   UNL     1       0.758   2.950  19.664  0.00  0.00    +0.000 A 
ATOM     14  C   UNL     1       1.134   2.890  21.004  0.00  0.00    +0.000 A 
ATOM     15  C   UNL     1       2.142   3.724  21.482  0.00  0.00    +0.000 A 
ATOM     16  C   UNL     1       2.741   4.658  20.635  0.00  0.00    +0.000 A 
ENDBRANCH   1  11
BRANCH   1  17
ATOM     17  C   UNL     1       2.208   7.246  18.828  0.00  0.00    +0.000 A 
ATOM     18  C   UNL     1       1.788   7.425  20.158  0.00  0.00    +0.000 A 
ATOM     19  C   UNL     1       1.324   8.668  20.615  0.00  0.00    +0.000 A 
ATOM     20  C   UNL     1       1.178   9.750  19.742  0.00  0.00    +0.000 A 
ATOM     21  C   UNL     1       1.555   9.556  18.400  0.00  0.00    +0.000 A 
ATOM     22  C   UNL     1       2.076   8.330  17.952  0.00  0.00    +0.000 A 
BRANCH  20  23
ATOM     23  C   UNL     1       0.763  11.140  20.154  0.00  0.00    +0.000 C 
ATOM     24  O   UNL     1       1.462  11.672  21.026  0.00  0.00    +0.000 OA
ATOM     25  N   UNL     1      -0.328  11.829  19.584  0.00  0.00    +0.000 N 
BRANCH  25  26
ATOM     26  C   UNL     1      -0.655  13.161  20.136  0.00  0.00    +0.000 C 
BRANCH  26  27
ATOM     27  C   UNL     1       0.013  14.347  19.422  0.00  0.00    +0.000 C 
ATOM     28  C   UNL     1      -0.772  15.648  19.536  0.00  0.00    +0.000 C 
ENDBRANCH  26  27
ENDBRANCH  25  26
BRANCH  25  29
ATOM     29  C   UNL     1      -1.197  11.281  18.543  0.00  0.00    +0.000 C 
BRANCH  29  30
ATOM     30  C   UNL     1      -2.664  11.714  18.534  0.00  0.00    +0.000 C 
ATOM     31  C   UNL     1      -3.327  11.240  17.247  0.00  0.00    +0.000 C 
ENDBRANCH  29  30
ENDBRANCH  25  29
ENDBRANCH  20  23
ENDBRANCH   1  17
TORSDOF 10
ENDMDL
MODEL 8
REMARK VINA RESULT:      -7.4      1.593      2.685
REMARK  Name = 
REMARK  12 active torsions:
REMARK  status: ('A' for Active; 'I' for Inactive)
REMARK    1  A    between atoms: C_2  and  C_3
REMARK    2  A    between atoms: C_3  and  N_4
REMARK    3  A    between atoms: N_7  and  C_8
REMARK    4  A    between atoms: C_8  and  C_9
REMARK    5  A    between atoms: C_8  and  C_15
REMARK    6  A    between atoms: C_18  and  C_19
REMARK    7  A    between atoms: N_21  and  C_22
REMARK    8  A    between atoms: N_21  and  C_25
REMARK    9  A    between atoms: C_22  and  C_23
REMARK   10  A    between atoms: C_23  and  C_24
REMARK   11  A    between atoms: C_25  and  C_26
REMARK   12  A    between atoms: C_26  and  C_27
REMARK                            x       y       z     vdW  Elec       q    Type
REMARK                         _______ _______ _______ _____ _____    ______ ____
ROOT
ATOM      1  C   UNL     1       2.846   6.058  18.378  0.00  0.00    +0.000 C 
ENDROOT
BRANCH   1   5
ATOM      2  N   UNL     1       5.296   5.250  15.555  0.00  0.00    +0.000 NA
ATOM      3  C   UNL     1       4.653   4.283  16.464  0.00  0.00    +0.000 C 
ATOM      4  C   UNL     1       4.811   4.621  17.965  0.00  0.00    +0.000 C 
ATOM      5  N   UNL     1       4.336   5.981  18.357  0.00  0.00    +0.000 NA
ATOM      6  C   UNL     1       4.960   6.954  17.432  0.00  0.00    +0.000 C 
ATOM      7  C   UNL     1       4.830   6.608  15.925  0.00  0.00    +0.000 C 
BRANCH   2   8
ATOM      8  C   UNL     1       6.765   5.185  15.609  0.00  0.00    +0.000 C 
BRANCH   8  10
ATOM      9  C   UNL     1       7.707   5.368  13.288  0.00  0.00    +0.000 C 
ATOM     10  C   UNL     1       7.377   4.629  14.352  0.00  0.00    +0.000 C 
ENDBRANCH   8  10
ENDBRANCH   2   8
ENDBRANCH   1   5
BRANCH   1  11
ATOM     11  C   UNL     1       2.217   4.942  19.234  0.00  0.00    +0.000 A 
ATOM     12  C   UNL     1       2.507   4.817  20.607  0.00  0.00    +0.000 A 
ATOM     13  C   UNL     1       2.085   3.699  21.326  0.00  0.00    +0.000 A 
ATOM     14  C   UNL     1       1.320   2.718  20.700  0.00  0.00    +0.000 A 
ATOM     15  C   UNL     1       0.955   2.867  19.363  0.00  0.00    +0.000 A 
ATOM     16  C   UNL     1       1.397   3.972  18.634  0.00  0.00    +0.000 A 
ENDBRANCH   1  11
BRANCH   1  17
ATOM     17  C   UNL     1       2.267   7.423  18.785  0.00  0.00    +0.000 A 
ATOM     18  C   UNL     1       1.968   8.370  17.790  0.00  0.00    +0.000 A 
ATOM     19  C   UNL     1       1.296   9.562  18.096  0.00  0.00    +0.000 A 
ATOM     20  C   UNL     1       0.976   9.894  19.416  0.00  0.00    +0.000 A 
ATOM     21  C   UNL     1       1.317   8.965  20.417  0.00  0.00    +0.000 A 
ATOM     22  C   UNL     1       1.938   7.743  20.108  0.00  0.00    +0.000 A 
BRANCH  20  23
ATOM     23  C   UNL     1       0.189  11.110  19.833  0.00  0.00    +0.000 C 
ATOM     24  O   UNL     1      -1.014  10.920  20.053  0.00  0.00    +0.000 OA
ATOM     25  N   UNL     1       0.760  12.389  19.999  0.00  0.00    +0.000 N 
BRANCH  25  26
ATOM     26  C   UNL     1      -0.150  13.500  20.349  0.00  0.00    +0.000 C 
BRANCH  26  27
ATOM     27  C   UNL     1      -0.764  14.245  19.153  0.00  0.00    +0.000 C 
ATOM     28  C   UNL     1       0.049  15.452  18.704  0.00  0.00    +0.000 C 
ENDBRANCH  26  27
ENDBRANCH  25  26
BRANCH  25  29
ATOM     29  C   UNL     1       2.171  12.699  19.773  0.00  0.00    +0.000 C 
BRANCH  29  30
ATOM     30  C   UNL     1       2.839  13.717  20.699  0.00  0.00    +0.000 C 
ATOM     31  C   UNL     1       3.666  14.692  19.872  0.00  0.00    +0.000 C 
ENDBRANCH  29  30
ENDBRANCH  25  29
ENDBRANCH  20  23
ENDBRANCH   1  17
TORSDOF 10
ENDMDL
MODEL 9
REMARK VINA RESULT:      -7.4      1.188      1.892
REMARK  Name = 
REMARK  12 active torsions:
REMARK  status: ('A' for Active; 'I' for Inactive)
REMARK    1  A    between atoms: C_2  and  C_3
REMARK    2  A    between atoms: C_3  and  N_4
REMARK    3  A    between atoms: N_7  and  C_8
REMARK    4  A    between atoms: C_8  and  C_9
REMARK    5  A    between atoms: C_8  and  C_15
REMARK    6  A    between atoms: C_18  and  C_19
REMARK    7  A    between atoms: N_21  and  C_22
REMARK    8  A    between atoms: N_21  and  C_25
REMARK    9  A    between atoms: C_22  and  C_23
REMARK   10  A    between atoms: C_23  and  C_24
REMARK   11  A    between atoms: C_25  and  C_26
REMARK   12  A    between atoms: C_26  and  C_27
REMARK                            x       y       z     vdW  Elec       q    Type
REMARK                         _______ _______ _______ _____ _____    ______ ____
ROOT
ATOM      1  C   UNL     1       3.068   5.816  18.237  0.00  0.00    +0.000 C 
ENDROOT
BRANCH   1   5
ATOM      2  N   UNL     1       5.421   5.172  15.291  0.00  0.00    +0.000 NA
ATOM      3  C   UNL     1       4.797   4.153  16.157  0.00  0.00    +0.000 C 
ATOM      4  C   UNL     1       5.005   4.393  17.671  0.00  0.00    +0.000 C 
ATOM      5  N   UNL     1       4.556   5.729  18.165  0.00  0.00    +0.000 NA
ATOM      6  C   UNL     1       5.161   6.754  17.283  0.00  0.00    +0.000 C 
ATOM      7  C   UNL     1       4.981   6.507  15.762  0.00  0.00    +0.000 C 
BRANCH   2   8
ATOM      8  C   UNL     1       6.890   5.092  15.295  0.00  0.00    +0.000 C 
BRANCH   8  10
ATOM      9  C   UNL     1       8.030   5.510  13.096  0.00  0.00    +0.000 C 
ATOM     10  C   UNL     1       7.460   4.671  13.967  0.00  0.00    +0.000 C 
ENDBRANCH   8  10
ENDBRANCH   2   8
ENDBRANCH   1   5
BRANCH   1  11
ATOM     11  C   UNL     1       2.467   4.745  19.168  0.00  0.00    +0.000 A 
ATOM     12  C   UNL     1       1.456   3.870  18.724  0.00  0.00    +0.000 A 
ATOM     13  C   UNL     1       0.790   3.036  19.623  0.00  0.00    +0.000 A 
ATOM     14  C   UNL     1       1.163   3.023  20.965  0.00  0.00    +0.000 A 
ATOM     15  C   UNL     1       2.216   3.822  21.403  0.00  0.00    +0.000 A 
ATOM     16  C   UNL     1       2.867   4.677  20.512  0.00  0.00    +0.000 A 
ENDBRANCH   1  11
BRANCH   1  17
ATOM     17  C   UNL     1       2.512   7.202  18.602  0.00  0.00    +0.000 A 
ATOM     18  C   UNL     1       2.295   8.147  17.584  0.00  0.00    +0.000 A 
ATOM     19  C   UNL     1       1.645   9.363  17.844  0.00  0.00    +0.000 A 
ATOM     20  C   UNL     1       1.268   9.718  19.143  0.00  0.00    +0.000 A 
ATOM     21  C   UNL     1       1.527   8.790  20.169  0.00  0.00    +0.000 A 
ATOM     22  C   UNL     1       2.125   7.546  19.903  0.00  0.00    +0.000 A 
BRANCH  20  23
ATOM     23  C   UNL     1       0.498  10.962  19.508  0.00  0.00    +0.000 C 
ATOM     24  O   UNL     1       0.729  11.958  18.812  0.00  0.00    +0.000 OA
ATOM     25  N   UNL     1      -0.451  11.014  20.551  0.00  0.00    +0.000 N 
BRANCH  25  26
ATOM     26  C   UNL     1      -1.079  12.322  20.834  0.00  0.00    +0.000 C 
BRANCH  26  27
ATOM     27  C   UNL     1      -2.479  12.520  20.232  0.00  0.00    +0.000 C 
ATOM     28  C   UNL     1      -3.501  13.054  21.228  0.00  0.00    +0.000 C 
ENDBRANCH  26  27
ENDBRANCH  25  26
BRANCH  25  29
ATOM     29  C   UNL     1      -0.793   9.883  21.412  0.00  0.00    +0.000 C 
BRANCH  29  30
ATOM     30  C   UNL     1      -0.835  10.121  22.923  0.00  0.00    +0.000 C 
ATOM     31  C   UNL     1       0.343   9.416  23.582  0.00  0.00    +0.000 C 
ENDBRANCH  29  30
ENDBRANCH  25  29
ENDBRANCH  20  23
ENDBRANCH   1  17
TORSDOF 10
ENDMDL
