MODEL 1
REMARK VINA RESULT:      -8.7      0.000      0.000
REMARK  Name = 
REMARK  7 active torsions:
REMARK  status: ('A' for Active; 'I' for Inactive)
REMARK    1  A    between atoms: C_1  and  C_2
REMARK    2  A    between atoms: C_2  and  C_3
REMARK    3  A    between atoms: C_6  and  C_7
REMARK    4  A    between atoms: C_7  and  N_8
REMARK    5  A    between atoms: C_9  and  C_11
REMARK    6  A    between atoms: C_19  and  C_20
REMARK    7  A    between atoms: C_23  and  C_24
REMARK                            x       y       z     vdW  Elec       q    Type
REMARK                         _______ _______ _______ _____ _____    ______ ____
ROOT
ATOM      1  C   UNL     1       2.335   7.544  18.723  0.00  0.00    +0.000 A 
ATOM      2  N   UNL     1       2.596   6.397  18.011  0.00  0.00    +0.000 N 
ATOM      3  C   UNL     1       2.448   5.282  18.811  0.00  0.00    +0.000 A 
ATOM      4  C   UNL     1       2.664   3.917  18.523  0.00  0.00    +0.000 A 
ATOM      5  C   UNL     1       2.418   3.009  19.577  0.00  0.00    +0.000 A 
ATOM      6  C   UNL     1       1.996   3.434  20.841  0.00  0.00    +0.000 A 
ATOM      7  C   UNL     1       1.787   2.458  21.960  0.00  0.00    +0.000 C 
ATOM      8  C   UNL     1       1.787   4.799  21.077  0.00  0.00    +0.000 A 
ATOM      9  C   UNL     1       2.016   5.740  20.055  0.00  0.00    +0.000 A 
ATOM     10  C   UNL     1       1.913   7.166  19.987  0.00  0.00    +0.000 A 
ATOM     11  C   UNL     1       1.459   8.076  21.074  0.00  0.00    +0.000 C 
ATOM     12  H   UNL     1       2.850   6.359  17.029  0.00  0.00    +0.000 HD
ENDROOT
BRANCH   1  14
ATOM     13  C   UNL     1       1.177   9.582  17.859  0.00  0.00    +0.000 C 
ATOM     14  C   UNL     1       2.509   8.901  18.123  0.00  0.00    +0.000 C 
ENDBRANCH   1  14
BRANCH   4  15
ATOM     15  C   UNL     1       3.157   3.406  17.193  0.00  0.00    +0.000 C 
BRANCH  15  16
ATOM     16  N   UNL     1       4.601   3.370  17.115  0.00  0.00    +0.000 N 
ATOM     17  C   UNL     1       5.313   4.422  16.592  0.00  0.00    +0.000 C 
ATOM     18  O   UNL     1       4.760   5.419  16.130  0.00  0.00    +0.000 OA
ATOM     19  H   UNL     1       5.064   2.490  17.295  0.00  0.00    +0.000 HD
BRANCH  17  20
ATOM     20  C   UNL     1       6.834   4.256  16.640  0.00  0.00    +0.000 C 
ATOM     21  C   UNL     1       7.421   4.535  18.026  0.00  0.00    +0.000 C 
ATOM     22  C   UNL     1       7.205   5.983  18.451  0.00  0.00    +0.000 C 
ATOM     23  C   UNL     1       7.465   7.007  17.366  0.00  0.00    +0.000 C 
ATOM     24  O   UNL     1       7.545   8.208  17.618  0.00  0.00    +0.000 OA
ATOM     25  N   UNL     1       7.541   6.570  16.078  0.00  0.00    +0.000 N 
ATOM     26  C   UNL     1       7.519   5.188  15.646  0.00  0.00    +0.000 C 
ATOM     27  H   UNL     1       7.677   7.303  15.391  0.00  0.00    +0.000 HD
ENDBRANCH  17  20
ENDBRANCH  15  16
ENDBRANCH   4  15
TORSDOF 4
ENDMDL
MODEL 2
REMARK VINA RESULT:      -7.5      2.930      7.135
REMARK  Name = 
REMARK  7 active torsions:
REMARK  status: ('A' for Active; 'I' for Inactive)
REMARK    1  A    between atoms: C_1  and  C_2
REMARK    2  A    between atoms: C_2  and  C_3
REMARK    3  A    between atoms: C_6  and  C_7
REMARK    4  A    between atoms: C_7  and  N_8
REMARK    5  A    between atoms: C_9  and  C_11
REMARK    6  A    between atoms: C_19  and  C_20
REMARK    7  A    between atoms: C_23  and  C_24
REMARK                            x       y       z     vdW  Elec       q    Type
REMARK                         _______ _______ _______ _____ _____    ______ ____
ROOT
ATOM      1  C   UNL     1       6.630   3.851  13.028  0.00  0.00    +0.000 A 
ATOM      2  N   UNL     1       5.851   3.458  14.092  0.00  0.00    +0.000 N 
ATOM      3  C   UNL     1       6.149   4.203  15.215  0.00  0.00    +0.000 A 
ATOM      4  C   UNL     1       5.644   4.112  16.530  0.00  0.00    +0.000 A 
ATOM      5  C   UNL     1       6.163   5.036  17.464  0.00  0.00    +0.000 A 
ATOM      6  C   UNL     1       7.132   5.982  17.114  0.00  0.00    +0.000 A 
ATOM      7  C   UNL     1       7.704   6.923  18.133  0.00  0.00    +0.000 C 
ATOM      8  C   UNL     1       7.597   6.040  15.794  0.00  0.00    +0.000 A 
ATOM      9  C   UNL     1       7.106   5.141  14.828  0.00  0.00    +0.000 A 
ATOM     10  C   UNL     1       7.384   4.938  13.439  0.00  0.00    +0.000 A 
ATOM     11  C   UNL     1       8.319   5.731  12.596  0.00  0.00    +0.000 C 
ATOM     12  H   UNL     1       5.142   2.733  14.065  0.00  0.00    +0.000 HD
ENDROOT
BRANCH   1  14
ATOM     13  C   UNL     1       5.212   2.541  11.442  0.00  0.00    +0.000 C 
ATOM     14  C   UNL     1       6.578   3.148  11.711  0.00  0.00    +0.000 C 
ENDBRANCH   1  14
BRANCH   4  15
ATOM     15  C   UNL     1       4.631   3.087  16.973  0.00  0.00    +0.000 C 
BRANCH  15  16
ATOM     16  N   UNL     1       3.412   3.691  17.466  0.00  0.00    +0.000 N 
ATOM     17  C   UNL     1       2.428   2.934  18.054  0.00  0.00    +0.000 C 
ATOM     18  O   UNL     1       2.517   1.710  18.152  0.00  0.00    +0.000 OA
ATOM     19  H   UNL     1       3.225   4.653  17.216  0.00  0.00    +0.000 HD
BRANCH  17  20
ATOM     20  C   UNL     1       1.232   3.730  18.580  0.00  0.00    +0.000 C 
ATOM     21  C   UNL     1       1.643   5.000  19.329  0.00  0.00    +0.000 C 
ATOM     22  C   UNL     1       2.442   4.679  20.588  0.00  0.00    +0.000 C 
ATOM     23  C   UNL     1       1.894   3.532  21.411  0.00  0.00    +0.000 C 
ATOM     24  O   UNL     1       2.298   3.304  22.549  0.00  0.00    +0.000 OA
ATOM     25  N   UNL     1       0.982   2.704  20.828  0.00  0.00    +0.000 N 
ATOM     26  C   UNL     1       0.382   2.885  19.523  0.00  0.00    +0.000 C 
ATOM     27  H   UNL     1       0.680   1.932  21.412  0.00  0.00    +0.000 HD
ENDBRANCH  17  20
ENDBRANCH  15  16
ENDBRANCH   4  15
TORSDOF 4
ENDMDL
MODEL 3
REMARK VINA RESULT:      -7.3      1.183      1.411
REMARK  Name = 
REMARK  7 active torsions:
REMARK  status: ('A' for Active; 'I' for Inactive)
REMARK    1  A    between atoms: C_1  and  C_2
REMARK    2  A    between atoms: C_2  and  C_3
REMARK    3  A    between atoms: C_6  and  C_7
REMARK    4  A    between atoms: C_7  and  N_8
REMARK    5  A    between atoms: C_9  and  C_11
REMARK    6  A    between atoms: C_19  and  C_20
REMARK    7  A    between atoms: C_23  and  C_24
REMARK                            x       y       z     vdW  Elec       q    Type
REMARK                         _______ _______ _______ _____ _____    ______ ____
ROOT
ATOM      1  C   UNL     1       2.088   8.025  18.785  0.00  0.00    +0.000 A 
ATOM      2  N   UNL     1       2.480   7.009  17.946  0.00  0.00    +0.000 N 
ATOM      3  C   UNL     1       2.597   5.821  18.639  0.00  0.00    +0.000 A 
ATOM      4  C   UNL     1       3.019   4.547  18.202  0.00  0.00    +0.000 A 
ATOM      5  C   UNL     1       3.027   3.524  19.175  0.00  0.00    +0.000 A 
ATOM      6  C   UNL     1       2.650   3.756  20.502  0.00  0.00    +0.000 A 
ATOM      7  C   UNL     1       2.711   2.665  21.530  0.00  0.00    +0.000 C 
ATOM      8  C   UNL     1       2.230   5.036  20.887  0.00  0.00    +0.000 A 
ATOM      9  C   UNL     1       2.203   6.087  19.950  0.00  0.00    +0.000 A 
ATOM     10  C   UNL     1       1.851   7.471  20.033  0.00  0.00    +0.000 A 
ATOM     11  C   UNL     1       1.344   8.188  21.234  0.00  0.00    +0.000 C 
ATOM     12  H   UNL     1       2.650   7.102  16.949  0.00  0.00    +0.000 HD
ENDROOT
BRANCH   1  14
ATOM     13  C   UNL     1       0.524   9.866  18.145  0.00  0.00    +0.000 C 
ATOM     14  C   UNL     1       1.972   9.438  18.313  0.00  0.00    +0.000 C 
ENDBRANCH   1  14
BRANCH   4  15
ATOM     15  C   UNL     1       3.474   4.249  16.796  0.00  0.00    +0.000 C 
BRANCH  15  16
ATOM     16  N   UNL     1       4.894   4.460  16.617  0.00  0.00    +0.000 N 
ATOM     17  C   UNL     1       5.395   5.697  16.287  0.00  0.00    +0.000 C 
ATOM     18  O   UNL     1       4.662   6.665  16.087  0.00  0.00    +0.000 OA
ATOM     19  H   UNL     1       5.493   3.647  16.573  0.00  0.00    +0.000 HD
BRANCH  17  20
ATOM     20  C   UNL     1       6.920   5.769  16.198  0.00  0.00    +0.000 C 
ATOM     21  C   UNL     1       7.611   4.521  16.755  0.00  0.00    +0.000 C 
ATOM     22  C   UNL     1       7.346   4.346  18.246  0.00  0.00    +0.000 C 
ATOM     23  C   UNL     1       7.446   5.618  19.061  0.00  0.00    +0.000 C 
ATOM     24  O   UNL     1       7.475   5.597  20.290  0.00  0.00    +0.000 OA
ATOM     25  N   UNL     1       7.434   6.807  18.396  0.00  0.00    +0.000 N 
ATOM     26  C   UNL     1       7.458   6.978  16.959  0.00  0.00    +0.000 C 
ATOM     27  H   UNL     1       7.464   7.625  18.994  0.00  0.00    +0.000 HD
ENDBRANCH  17  20
ENDBRANCH  15  16
ENDBRANCH   4  15
TORSDOF 4
ENDMDL
MODEL 4
REMARK VINA RESULT:      -7.2      1.540      3.818
REMARK  Name = 
REMARK  7 active torsions:
REMARK  status: ('A' for Active; 'I' for Inactive)
REMARK    1  A    between atoms: C_1  and  C_2
REMARK    2  A    between atoms: C_2  and  C_3
REMARK    3  A    between atoms: C_6  and  C_7
REMARK    4  A    between atoms: C_7  and  N_8
REMARK    5  A    between atoms: C_9  and  C_11
REMARK    6  A    between atoms: C_19  and  C_20
REMARK    7  A    between atoms: C_23  and  C_24
REMARK                            x       y       z     vdW  Elec       q    Type
REMARK                         _______ _______ _______ _____ _____    ______ ____
ROOT
ATOM      1  C   UNL     1       2.443   3.263  18.766  0.00  0.00    +0.000 A 
ATOM      2  N   UNL     1       2.856   4.351  18.033  0.00  0.00    +0.000 N 
ATOM      3  C   UNL     1       2.573   5.525  18.702  0.00  0.00    +0.000 A 
ATOM      4  C   UNL     1       2.766   6.867  18.311  0.00  0.00    +0.000 A 
ATOM      5  C   UNL     1       2.364   7.853  19.238  0.00  0.00    +0.000 A 
ATOM      6  C   UNL     1       1.792   7.524  20.473  0.00  0.00    +0.000 A 
ATOM      7  C   UNL     1       1.328   8.587  21.423  0.00  0.00    +0.000 C 
ATOM      8  C   UNL     1       1.628   6.177  20.821  0.00  0.00    +0.000 A 
ATOM      9  C   UNL     1       2.018   5.160  19.928  0.00  0.00    +0.000 A 
ATOM     10  C   UNL     1       1.967   3.731  19.980  0.00  0.00    +0.000 A 
ATOM     11  C   UNL     1       1.479   2.900  21.115  0.00  0.00    +0.000 C 
ATOM     12  H   UNL     1       3.319   4.311  17.131  0.00  0.00    +0.000 HD
ENDROOT
BRANCH   1  14
ATOM     13  C   UNL     1       3.912   1.260  18.496  0.00  0.00    +0.000 C 
ATOM     14  C   UNL     1       2.545   1.870  18.236  0.00  0.00    +0.000 C 
ENDBRANCH   1  14
BRANCH   4  15
ATOM     15  C   UNL     1       3.339   7.281  16.979  0.00  0.00    +0.000 C 
BRANCH  15  16
ATOM     16  N   UNL     1       4.774   7.105  16.914  0.00  0.00    +0.000 N 
ATOM     17  C   UNL     1       5.331   6.022  16.279  0.00  0.00    +0.000 C 
ATOM     18  O   UNL     1       4.643   5.136  15.775  0.00  0.00    +0.000 OA
ATOM     19  H   UNL     1       5.351   7.703  17.490  0.00  0.00    +0.000 HD
BRANCH  17  20
ATOM     20  C   UNL     1       6.861   6.017  16.243  0.00  0.00    +0.000 C 
ATOM     21  C   UNL     1       7.464   4.680  16.682  0.00  0.00    +0.000 C 
ATOM     22  C   UNL     1       7.137   4.363  18.138  0.00  0.00    +0.000 C 
ATOM     23  C   UNL     1       7.277   5.534  19.087  0.00  0.00    +0.000 C 
ATOM     24  O   UNL     1       7.261   5.382  20.307  0.00  0.00    +0.000 OA
ATOM     25  N   UNL     1       7.352   6.786  18.554  0.00  0.00    +0.000 N 
ATOM     26  C   UNL     1       7.435   7.106  17.144  0.00  0.00    +0.000 C 
ATOM     27  H   UNL     1       7.405   7.533  19.237  0.00  0.00    +0.000 HD
ENDBRANCH  17  20
ENDBRANCH  15  16
ENDBRANCH   4  15
TORSDOF 4
ENDMDL
MODEL 5
REMARK VINA RESULT:      -7.2      2.749      6.704
REMARK  Name = 
REMARK  7 active torsions:
REMARK  status: ('A' for Active; 'I' for Inactive)
REMARK    1  A    between atoms: C_1  and  C_2
REMARK    2  A    between atoms: C_2  and  C_3
REMARK    3  A    between atoms: C_6  and  C_7
REMARK    4  A    between atoms: C_7  and  N_8
REMARK    5  A    between atoms: C_9  and  C_11
REMARK    6  A    between atoms: C_19  and  C_20
REMARK    7  A    between atoms: C_23  and  C_24
REMARK                            x       y       z     vdW  Elec       q    Type
REMARK                         _______ _______ _______ _____ _____    ______ ____
ROOT
ATOM      1  C   UNL     1       6.224   3.802  13.245  0.00  0.00    +0.000 A 
ATOM      2  N   UNL     1       5.397   3.401  14.267  0.00  0.00    +0.000 N 
ATOM      3  C   UNL     1       5.773   3.988  15.459  0.00  0.00    +0.000 A 
ATOM      4  C   UNL     1       5.251   3.827  16.760  0.00  0.00    +0.000 A 
ATOM      5  C   UNL     1       5.870   4.583  17.780  0.00  0.00    +0.000 A 
ATOM      6  C   UNL     1       6.947   5.438  17.522  0.00  0.00    +0.000 A 
ATOM      7  C   UNL     1       7.619   6.197  18.627  0.00  0.00    +0.000 C 
ATOM      8  C   UNL     1       7.425   5.573  16.212  0.00  0.00    +0.000 A 
ATOM      9  C   UNL     1       6.837   4.839  15.163  0.00  0.00    +0.000 A 
ATOM     10  C   UNL     1       7.099   4.746  13.760  0.00  0.00    +0.000 A 
ATOM     11  C   UNL     1       8.128   5.502  12.996  0.00  0.00    +0.000 C 
ATOM     12  H   UNL     1       4.607   2.771  14.171  0.00  0.00    +0.000 HD
ENDROOT
BRANCH   1  14
ATOM     13  C   UNL     1       4.648   3.106  11.437  0.00  0.00    +0.000 C 
ATOM     14  C   UNL     1       6.098   3.247  11.864  0.00  0.00    +0.000 C 
ENDBRANCH   1  14
BRANCH   4  15
ATOM     15  C   UNL     1       4.120   2.890  17.103  0.00  0.00    +0.000 C 
BRANCH  15  16
ATOM     16  N   UNL     1       3.746   2.962  18.499  0.00  0.00    +0.000 N 
ATOM     17  C   UNL     1       2.541   2.471  18.940  0.00  0.00    +0.000 C 
ATOM     18  O   UNL     1       1.711   1.990  18.170  0.00  0.00    +0.000 OA
ATOM     19  H   UNL     1       4.313   3.530  19.113  0.00  0.00    +0.000 HD
BRANCH  17  20
ATOM     20  C   UNL     1       2.324   2.564  20.452  0.00  0.00    +0.000 C 
ATOM     21  C   UNL     1       0.930   3.073  20.825  0.00  0.00    +0.000 C 
ATOM     22  C   UNL     1       0.700   4.501  20.340  0.00  0.00    +0.000 C 
ATOM     23  C   UNL     1       1.867   5.441  20.565  0.00  0.00    +0.000 C 
ATOM     24  O   UNL     1       1.751   6.657  20.429  0.00  0.00    +0.000 OA
ATOM     25  N   UNL     1       3.081   4.896  20.856  0.00  0.00    +0.000 N 
ATOM     26  C   UNL     1       3.348   3.493  21.097  0.00  0.00    +0.000 C 
ATOM     27  H   UNL     1       3.832   5.569  20.957  0.00  0.00    +0.000 HD
ENDBRANCH  17  20
ENDBRANCH  15  16
ENDBRANCH   4  15
TORSDOF 4
ENDMDL
MODEL 6
REMARK VINA RESULT:      -7.2      3.145      6.844
REMARK  Name = 
REMARK  7 active torsions:
REMARK  status: ('A' for Active; 'I' for Inactive)
REMARK    1  A    between atoms: C_1  and  C_2
REMARK    2  A    between atoms: C_2  and  C_3
REMARK    3  A    between atoms: C_6  and  C_7
REMARK    4  A    between atoms: C_7  and  N_8
REMARK    5  A    between atoms: C_9  and  C_11
REMARK    6  A    between atoms: C_19  and  C_20
REMARK    7  A    between atoms: C_23  and  C_24
REMARK                            x       y       z     vdW  Elec       q    Type
REMARK                         _______ _______ _______ _____ _____    ______ ____
ROOT
ATOM      1  C   UNL     1       2.470   3.511  19.553  0.00  0.00    +0.000 A 
ATOM      2  N   UNL     1       2.206   4.680  18.879  0.00  0.00    +0.000 N 
ATOM      3  C   UNL     1       3.380   5.303  18.505  0.00  0.00    +0.000 A 
ATOM      4  C   UNL     1       3.591   6.535  17.850  0.00  0.00    +0.000 A 
ATOM      5  C   UNL     1       4.936   6.893  17.609  0.00  0.00    +0.000 A 
ATOM      6  C   UNL     1       6.004   6.081  18.006  0.00  0.00    +0.000 A 
ATOM      7  C   UNL     1       7.426   6.503  17.782  0.00  0.00    +0.000 C 
ATOM      8  C   UNL     1       5.745   4.862  18.645  0.00  0.00    +0.000 A 
ATOM      9  C   UNL     1       4.419   4.463  18.903  0.00  0.00    +0.000 A 
ATOM     10  C   UNL     1       3.841   3.317  19.535  0.00  0.00    +0.000 A 
ATOM     11  C   UNL     1       4.572   2.144  20.088  0.00  0.00    +0.000 C 
ATOM     12  H   UNL     1       1.282   5.041  18.666  0.00  0.00    +0.000 HD
ENDROOT
BRANCH   1  14
ATOM     13  C   UNL     1       1.372   2.760  21.668  0.00  0.00    +0.000 C 
ATOM     14  C   UNL     1       1.380   2.683  20.151  0.00  0.00    +0.000 C 
ENDBRANCH   1  14
BRANCH   4  15
ATOM     15  C   UNL     1       2.481   7.469  17.437  0.00  0.00    +0.000 C 
BRANCH  15  16
ATOM     16  N   UNL     1       2.008   8.285  18.534  0.00  0.00    +0.000 N 
ATOM     17  C   UNL     1       1.791   9.633  18.378  0.00  0.00    +0.000 C 
ATOM     18  O   UNL     1       2.027  10.213  17.319  0.00  0.00    +0.000 OA
ATOM     19  H   UNL     1       2.002   7.879  19.460  0.00  0.00    +0.000 HD
BRANCH  17  20
ATOM     20  C   UNL     1       1.230  10.340  19.613  0.00  0.00    +0.000 C 
ATOM     21  C   UNL     1      -0.173   9.859  19.991  0.00  0.00    +0.000 C 
ATOM     22  C   UNL     1      -1.192  10.176  18.902  0.00  0.00    +0.000 C 
ATOM     23  C   UNL     1      -1.070  11.562  18.304  0.00  0.00    +0.000 C 
ATOM     24  O   UNL     1      -1.946  12.033  17.582  0.00  0.00    +0.000 OA
ATOM     25  N   UNL     1       0.080  12.258  18.530  0.00  0.00    +0.000 N 
ATOM     26  C   UNL     1       1.164  11.850  19.398  0.00  0.00    +0.000 C 
ATOM     27  H   UNL     1       0.122  13.162  18.073  0.00  0.00    +0.000 HD
ENDBRANCH  17  20
ENDBRANCH  15  16
ENDBRANCH   4  15
TORSDOF 4
ENDMDL
MODEL 7
REMARK VINA RESULT:      -7.1      2.939      6.302
REMARK  Name = 
REMARK  7 active torsions:
REMARK  status: ('A' for Active; 'I' for Inactive)
REMARK    1  A    between atoms: C_1  and  C_2
REMARK    2  A    between atoms: C_2  and  C_3
REMARK    3  A    between atoms: C_6  and  C_7
REMARK    4  A    between atoms: C_7  and  N_8
REMARK    5  A    between atoms: C_9  and  C_11
REMARK    6  A    between atoms: C_19  and  C_20
REMARK    7  A    between atoms: C_23  and  C_24
REMARK                            x       y       z     vdW  Elec       q    Type
REMARK                         _______ _______ _______ _____ _____    ______ ____
ROOT
ATOM      1  C   UNL     1       4.946   6.151  17.581  0.00  0.00    +0.000 A 
ATOM      2  N   UNL     1       4.129   6.496  18.633  0.00  0.00    +0.000 N 
ATOM      3  C   UNL     1       3.154   5.539  18.828  0.00  0.00    +0.000 A 
ATOM      4  C   UNL     1       2.081   5.503  19.744  0.00  0.00    +0.000 A 
ATOM      5  C   UNL     1       1.248   4.364  19.687  0.00  0.00    +0.000 A 
ATOM      6  C   UNL     1       1.462   3.332  18.767  0.00  0.00    +0.000 A 
ATOM      7  C   UNL     1       0.537   2.153  18.691  0.00  0.00    +0.000 C 
ATOM      8  C   UNL     1       2.545   3.408  17.882  0.00  0.00    +0.000 A 
ATOM      9  C   UNL     1       3.404   4.524  17.905  0.00  0.00    +0.000 A 
ATOM     10  C   UNL     1       4.555   4.896  17.142  0.00  0.00    +0.000 A 
ATOM     11  C   UNL     1       5.203   4.099  16.064  0.00  0.00    +0.000 C 
ATOM     12  H   UNL     1       4.227   7.329  19.204  0.00  0.00    +0.000 HD
ENDROOT
BRANCH   1  14
ATOM     13  C   UNL     1       7.379   6.705  17.701  0.00  0.00    +0.000 C 
ATOM     14  C   UNL     1       6.031   7.055  17.095  0.00  0.00    +0.000 C 
ENDBRANCH   1  14
BRANCH   4  15
ATOM     15  C   UNL     1       1.779   6.604  20.729  0.00  0.00    +0.000 C 
BRANCH  15  16
ATOM     16  N   UNL     1       1.823   7.916  20.122  0.00  0.00    +0.000 N 
ATOM     17  C   UNL     1       0.957   8.910  20.510  0.00  0.00    +0.000 C 
ATOM     18  O   UNL     1       0.083   8.721  21.355  0.00  0.00    +0.000 OA
ATOM     19  H   UNL     1       2.387   8.036  19.293  0.00  0.00    +0.000 HD
BRANCH  17  20
ATOM     20  C   UNL     1       1.175  10.257  19.819  0.00  0.00    +0.000 C 
ATOM     21  C   UNL     1      -0.034  11.190  19.933  0.00  0.00    +0.000 C 
ATOM     22  C   UNL     1      -1.258  10.617  19.227  0.00  0.00    +0.000 C 
ATOM     23  C   UNL     1      -0.978  10.005  17.870  0.00  0.00    +0.000 C 
ATOM     24  O   UNL     1      -1.885   9.705  17.097  0.00  0.00    +0.000 OA
ATOM     25  N   UNL     1       0.316   9.724  17.549  0.00  0.00    +0.000 N 
ATOM     26  C   UNL     1       1.481  10.070  18.336  0.00  0.00    +0.000 C 
ATOM     27  H   UNL     1       0.440   9.280  16.647  0.00  0.00    +0.000 HD
ENDBRANCH  17  20
ENDBRANCH  15  16
ENDBRANCH   4  15
TORSDOF 4
ENDMDL
MODEL 8
REMARK VINA RESULT:      -6.9      2.048      3.299
REMARK  Name = 
REMARK  7 active torsions:
REMARK  status: ('A' for Active; 'I' for Inactive)
REMARK    1  A    between atoms: C_1  and  C_2
REMARK    2  A    between atoms: C_2  and  C_3
REMARK    3  A    between atoms: C_6  and  C_7
REMARK    4  A    between atoms: C_7  and  N_8
REMARK    5  A    between atoms: C_9  and  C_11
REMARK    6  A    between atoms: C_19  and  C_20
REMARK    7  A    between atoms: C_23  and  C_24
REMARK                            x       y       z     vdW  Elec       q    Type
REMARK                         _______ _______ _______ _____ _____    ______ ____
ROOT
ATOM      1  C   UNL     1       0.769  10.227  20.348  0.00  0.00    +0.000 A 
ATOM      2  N   UNL     1       1.518   9.693  19.325  0.00  0.00    +0.000 N 
ATOM      3  C   UNL     1       1.763   8.353  19.549  0.00  0.00    +0.000 A 
ATOM      4  C   UNL     1       2.524   7.428  18.803  0.00  0.00    +0.000 A 
ATOM      5  C   UNL     1       2.578   6.111  19.309  0.00  0.00    +0.000 A 
ATOM      6  C   UNL     1       1.926   5.740  20.490  0.00  0.00    +0.000 A 
ATOM      7  C   UNL     1       2.035   4.347  21.035  0.00  0.00    +0.000 C 
ATOM      8  C   UNL     1       1.175   6.692  21.192  0.00  0.00    +0.000 A 
ATOM      9  C   UNL     1       1.090   8.017  20.723  0.00  0.00    +0.000 A 
ATOM     10  C   UNL     1       0.436   9.193  21.208  0.00  0.00    +0.000 A 
ATOM     11  C   UNL     1      -0.424   9.296  22.419  0.00  0.00    +0.000 C 
ATOM     12  H   UNL     1       1.841  10.199  18.507  0.00  0.00    +0.000 HD
ENDROOT
BRANCH   1  14
ATOM     13  C   UNL     1       0.392  12.311  19.023  0.00  0.00    +0.000 C 
ATOM     14  C   UNL     1       0.436  11.683  20.405  0.00  0.00    +0.000 C 
ENDBRANCH   1  14
BRANCH   4  15
ATOM     15  C   UNL     1       3.280   7.780  17.546  0.00  0.00    +0.000 C 
BRANCH  15  16
ATOM     16  N   UNL     1       3.970   6.642  16.979  0.00  0.00    +0.000 N 
ATOM     17  C   UNL     1       5.343   6.590  16.936  0.00  0.00    +0.000 C 
ATOM     18  O   UNL     1       6.044   7.518  17.336  0.00  0.00    +0.000 OA
ATOM     19  H   UNL     1       3.425   5.966  16.463  0.00  0.00    +0.000 HD
BRANCH  17  20
ATOM     20  C   UNL     1       5.918   5.293  16.365  0.00  0.00    +0.000 C 
ATOM     21  C   UNL     1       4.863   4.199  16.186  0.00  0.00    +0.000 C 
ATOM     22  C   UNL     1       4.263   3.768  17.520  0.00  0.00    +0.000 C 
ATOM     23  C   UNL     1       5.269   3.589  18.638  0.00  0.00    +0.000 C 
ATOM     24  O   UNL     1       4.967   3.040  19.696  0.00  0.00    +0.000 OA
ATOM     25  N   UNL     1       6.514   4.117  18.471  0.00  0.00    +0.000 N 
ATOM     26  C   UNL     1       7.019   4.737  17.264  0.00  0.00    +0.000 C 
ATOM     27  H   UNL     1       7.132   4.001  19.266  0.00  0.00    +0.000 HD
ENDBRANCH  17  20
ENDBRANCH  15  16
ENDBRANCH   4  15
TORSDOF 4
ENDMDL
MODEL 9
REMARK VINA RESULT:      -6.9      3.054      6.401
REMARK  Name = 
REMARK  7 active torsions:
REMARK  status: ('A' for Active; 'I' for Inactive)
REMARK    1  A    between atoms: C_1  and  C_2
REMARK    2  A    between atoms: C_2  and  C_3
REMARK    3  A    between atoms: C_6  and  C_7
REMARK    4  A    between atoms: C_7  and  N_8
REMARK    5  A    between atoms: C_9  and  C_11
REMARK    6  A    between atoms: C_19  and  C_20
REMARK    7  A    between atoms: C_23  and  C_24
REMARK                            x       y       z     vdW  Elec       q    Type
REMARK                         _______ _______ _______ _____ _____    ______ ____
ROOT
ATOM      1  C   UNL     1       4.992   6.180  17.464  0.00  0.00    +0.000 A 
ATOM      2  N   UNL     1       4.265   6.528  18.578  0.00  0.00    +0.000 N 
ATOM      3  C   UNL     1       3.278   5.596  18.827  0.00  0.00    +0.000 A 
ATOM      4  C   UNL     1       2.274   5.572  19.818  0.00  0.00    +0.000 A 
ATOM      5  C   UNL     1       1.405   4.459  19.802  0.00  0.00    +0.000 A 
ATOM      6  C   UNL     1       1.520   3.440  18.850  0.00  0.00    +0.000 A 
ATOM      7  C   UNL     1       0.557   2.290  18.822  0.00  0.00    +0.000 C 
ATOM      8  C   UNL     1       2.538   3.502  17.890  0.00  0.00    +0.000 A 
ATOM      9  C   UNL     1       3.430   4.592  17.871  0.00  0.00    +0.000 A 
ATOM     10  C   UNL     1       4.534   4.946  17.032  0.00  0.00    +0.000 A 
ATOM     11  C   UNL     1       5.077   4.152  15.897  0.00  0.00    +0.000 C 
ATOM     12  H   UNL     1       4.429   7.346  19.155  0.00  0.00    +0.000 HD
ENDROOT
BRANCH   1  14
ATOM     13  C   UNL     1       7.403   6.821  17.595  0.00  0.00    +0.000 C 
ATOM     14  C   UNL     1       6.067   7.062  16.916  0.00  0.00    +0.000 C 
ENDBRANCH   1  14
BRANCH   4  15
ATOM     15  C   UNL     1       2.077   6.662  20.842  0.00  0.00    +0.000 C 
BRANCH  15  16
ATOM     16  N   UNL     1       1.011   7.572  20.483  0.00  0.00    +0.000 N 
ATOM     17  C   UNL     1       0.840   8.765  21.144  0.00  0.00    +0.000 C 
ATOM     18  O   UNL     1       1.552   9.094  22.091  0.00  0.00    +0.000 OA
ATOM     19  H   UNL     1       0.294   7.238  19.854  0.00  0.00    +0.000 HD
BRANCH  17  20
ATOM     20  C   UNL     1      -0.291   9.642  20.603  0.00  0.00    +0.000 C 
ATOM     21  C   UNL     1      -0.098  10.026  19.134  0.00  0.00    +0.000 C 
ATOM     22  C   UNL     1       1.148  10.883  18.933  0.00  0.00    +0.000 C 
ATOM     23  C   UNL     1       1.342  11.970  19.969  0.00  0.00    +0.000 C 
ATOM     24  O   UNL     1       2.169  12.867  19.815  0.00  0.00    +0.000 OA
ATOM     25  N   UNL     1       0.620  11.894  21.122  0.00  0.00    +0.000 N 
ATOM     26  C   UNL     1      -0.421  10.930  21.410  0.00  0.00    +0.000 C 
ATOM     27  H   UNL     1       0.820  12.626  21.794  0.00  0.00    +0.000 HD
ENDBRANCH  17  20
ENDBRANCH  15  16
ENDBRANCH   4  15
TORSDOF 4
ENDMDL
