MODEL 1
REMARK VINA RESULT:      -6.8      0.000      0.000
REMARK  Name = 
REMARK  11 active torsions:
REMARK  status: ('A' for Active; 'I' for Inactive)
REMARK    1  A    between atoms: C_1  and  C_2
REMARK    2  A    between atoms: C_2  and  C_3
REMARK    3  A    between atoms: C_3  and  C_4
REMARK    4  A    between atoms: C_4  and  C_5
REMARK    5  A    between atoms: C_6  and  C_7
REMARK    6  A    between atoms: C_7  and  O_9
REMARK    7  A    between atoms: C_10  and  C_11
REMARK    8  A    between atoms: C_24  and  O_25
REMARK    9  A    between atoms: O_25  and  C_26
REMARK   10  A    between atoms: C_26  and  C_27
REMARK   11  A    between atoms: C_26  and  C_28
REMARK                            x       y       z     vdW  Elec       q    Type
REMARK                         _______ _______ _______ _____ _____    ______ ____
ROOT
ATOM      1  C   UNL     1       2.750   4.423  18.536  0.00  0.00    +0.000 C 
ATOM      2  C   UNL     1       3.927   3.751  18.434  0.00  0.00    +0.000 C 
ATOM      3  C   UNL     1       5.215   4.495  18.097  0.00  0.00    +0.000 C 
ATOM      4  O   UNL     1       5.237   5.863  18.549  0.00  0.00    +0.000 OA
ATOM      5  C   UNL     1       4.065   6.541  18.380  0.00  0.00    +0.000 A 
ATOM      6  C   UNL     1       4.186   7.927  18.258  0.00  0.00    +0.000 A 
ATOM      7  C   UNL     1       3.073   8.700  17.948  0.00  0.00    +0.000 A 
ATOM      8  C   UNL     1       1.849   8.076  17.739  0.00  0.00    +0.000 A 
ATOM      9  C   UNL     1       1.724   6.694  17.945  0.00  0.00    +0.000 A 
ATOM     10  C   UNL     1       2.825   5.895  18.291  0.00  0.00    +0.000 A 
ENDROOT
BRANCH   3  11
ATOM     11  C   UNL     1       5.575   4.405  16.609  0.00  0.00    +0.000 A 
ATOM     12  C   UNL     1       4.813   3.625  15.699  0.00  0.00    +0.000 A 
ATOM     13  C   UNL     1       5.152   3.530  14.348  0.00  0.00    +0.000 A 
ATOM     14  C   UNL     1       6.266   4.218  13.927  0.00  0.00    +0.000 A 
ATOM     15  C   UNL     1       7.018   4.977  14.788  0.00  0.00    +0.000 A 
ATOM     16  C   UNL     1       6.703   5.091  16.127  0.00  0.00    +0.000 A 
ATOM     17  O   UNL     1       8.074   5.569  14.165  0.00  0.00    +0.000 OA
ATOM     18  C   UNL     1       7.911   5.067  12.822  0.00  0.00    +0.000 C 
ATOM     19  O   UNL     1       6.743   4.240  12.656  0.00  0.00    +0.000 OA
ENDBRANCH   3  11
BRANCH   2  20
ATOM     20  C   UNL     1       4.221   2.310  18.692  0.00  0.00    +0.000 C 
ATOM     21  O   UNL     1       3.676   1.406  18.066  0.00  0.00    +0.000 OA
BRANCH  20  22
ATOM     22  O   UNL     1       5.087   2.018  19.675  0.00  0.00    +0.000 OA
ATOM     23  H   UNL     1       6.012   2.244  19.507  0.00  0.00    +0.000 HD
ENDBRANCH  20  22
ENDBRANCH   2  20
BRANCH   1  24
ATOM     24  C   UNL     1       1.402   3.853  18.924  0.00  0.00    +0.000 C 
BRANCH  24  25
ATOM     25  C   UNL     1       0.967   4.283  20.323  0.00  0.00    +0.000 C 
BRANCH  25  27
ATOM     26  C   UNL     1       1.933   2.434  21.695  0.00  0.00    +0.000 C 
ATOM     27  C   UNL     1       2.016   3.914  21.368  0.00  0.00    +0.000 C 
ENDBRANCH  25  27
ENDBRANCH  24  25
ENDBRANCH   1  24
BRANCH   8  28
ATOM     28  O   UNL     1       0.701   8.695  17.330  0.00  0.00    +0.000 OA
BRANCH  28  29
ATOM     29  C   UNL     1       0.282   9.876  18.029  0.00  0.00    +0.000 C 
ATOM     30  C   UNL     1      -1.181  10.218  17.741  0.00  0.00    +0.000 C 
ATOM     31  C   UNL     1       0.436   9.563  19.517  0.00  0.00    +0.000 C 
ENDBRANCH  28  29
ENDBRANCH   8  28
TORSDOF 8
ENDMDL
MODEL 2
REMARK VINA RESULT:      -6.6      4.769      9.431
REMARK  Name = 
REMARK  11 active torsions:
REMARK  status: ('A' for Active; 'I' for Inactive)
REMARK    1  A    between atoms: C_1  and  C_2
REMARK    2  A    between atoms: C_2  and  C_3
REMARK    3  A    between atoms: C_3  and  C_4
REMARK    4  A    between atoms: C_4  and  C_5
REMARK    5  A    between atoms: C_6  and  C_7
REMARK    6  A    between atoms: C_7  and  O_9
REMARK    7  A    between atoms: C_10  and  C_11
REMARK    8  A    between atoms: C_24  and  O_25
REMARK    9  A    between atoms: O_25  and  C_26
REMARK   10  A    between atoms: C_26  and  C_27
REMARK   11  A    between atoms: C_26  and  C_28
REMARK                            x       y       z     vdW  Elec       q    Type
REMARK                         _______ _______ _______ _____ _____    ______ ____
ROOT
ATOM      1  C   UNL     1      -2.055  12.946  20.208  0.00  0.00    +0.000 C 
ATOM      2  C   UNL     1      -0.701  12.858  20.282  0.00  0.00    +0.000 C 
ATOM      3  C   UNL     1       0.078  12.056  19.245  0.00  0.00    +0.000 C 
ATOM      4  O   UNL     1      -0.548  12.009  17.948  0.00  0.00    +0.000 OA
ATOM      5  C   UNL     1      -1.902  11.846  17.971  0.00  0.00    +0.000 A 
ATOM      6  C   UNL     1      -2.452  11.246  16.836  0.00  0.00    +0.000 A 
ATOM      7  C   UNL     1      -3.801  10.908  16.810  0.00  0.00    +0.000 A 
ATOM      8  C   UNL     1      -4.585  11.155  17.932  0.00  0.00    +0.000 A 
ATOM      9  C   UNL     1      -4.039  11.832  19.032  0.00  0.00    +0.000 A 
ATOM     10  C   UNL     1      -2.689  12.212  19.070  0.00  0.00    +0.000 A 
ENDROOT
BRANCH   3  11
ATOM     11  C   UNL     1       0.428  10.645  19.734  0.00  0.00    +0.000 A 
ATOM     12  C   UNL     1      -0.072  10.130  20.959  0.00  0.00    +0.000 A 
ATOM     13  C   UNL     1       0.261   8.851  21.411  0.00  0.00    +0.000 A 
ATOM     14  C   UNL     1       1.106   8.104  20.625  0.00  0.00    +0.000 A 
ATOM     15  C   UNL     1       1.603   8.581  19.437  0.00  0.00    +0.000 A 
ATOM     16  C   UNL     1       1.287   9.839  18.965  0.00  0.00    +0.000 A 
ATOM     17  O   UNL     1       2.418   7.682  18.821  0.00  0.00    +0.000 OA
ATOM     18  C   UNL     1       2.398   6.601  19.777  0.00  0.00    +0.000 C 
ATOM     19  O   UNL     1       1.537   6.847  20.905  0.00  0.00    +0.000 OA
ENDBRANCH   3  11
BRANCH   2  20
ATOM     20  C   UNL     1       0.242  13.524  21.228  0.00  0.00    +0.000 C 
ATOM     21  O   UNL     1       1.091  14.327  20.853  0.00  0.00    +0.000 OA
BRANCH  20  22
ATOM     22  O   UNL     1       0.164  13.187  22.525  0.00  0.00    +0.000 OA
ATOM     23  H   UNL     1       0.136  13.921  23.153  0.00  0.00    +0.000 HD
ENDBRANCH  20  22
ENDBRANCH   2  20
BRANCH   1  24
ATOM     24  C   UNL     1      -2.970  13.749  21.109  0.00  0.00    +0.000 C 
BRANCH  24  25
ATOM     25  C   UNL     1      -3.359  12.987  22.373  0.00  0.00    +0.000 C 
BRANCH  25  27
ATOM     26  C   UNL     1      -5.569  14.024  21.848  0.00  0.00    +0.000 C 
ATOM     27  C   UNL     1      -4.874  12.836  22.487  0.00  0.00    +0.000 C 
ENDBRANCH  25  27
ENDBRANCH  24  25
ENDBRANCH   1  24
BRANCH   8  28
ATOM     28  O   UNL     1      -5.891  10.784  18.083  0.00  0.00    +0.000 OA
BRANCH  28  29
ATOM     29  C   UNL     1      -6.464  10.837  19.398  0.00  0.00    +0.000 C 
ATOM     30  C   UNL     1      -7.554  11.904  19.502  0.00  0.00    +0.000 C 
ATOM     31  C   UNL     1      -7.087   9.462  19.643  0.00  0.00    +0.000 C 
ENDBRANCH  28  29
ENDBRANCH   8  28
TORSDOF 8
ENDMDL
MODEL 3
REMARK VINA RESULT:      -6.5      5.372     11.759
REMARK  Name = 
REMARK  11 active torsions:
REMARK  status: ('A' for Active; 'I' for Inactive)
REMARK    1  A    between atoms: C_1  and  C_2
REMARK    2  A    between atoms: C_2  and  C_3
REMARK    3  A    between atoms: C_3  and  C_4
REMARK    4  A    between atoms: C_4  and  C_5
REMARK    5  A    between atoms: C_6  and  C_7
REMARK    6  A    between atoms: C_7  and  O_9
REMARK    7  A    between atoms: C_10  and  C_11
REMARK    8  A    between atoms: C_24  and  O_25
REMARK    9  A    between atoms: O_25  and  C_26
REMARK   10  A    between atoms: C_26  and  C_27
REMARK   11  A    between atoms: C_26  and  C_28
REMARK                            x       y       z     vdW  Elec       q    Type
REMARK                         _______ _______ _______ _____ _____    ______ ____
ROOT
ATOM      1  C   UNL     1       0.470  12.854  21.494  0.00  0.00    +0.000 C 
ATOM      2  C   UNL     1      -0.388  13.512  22.318  0.00  0.00    +0.000 C 
ATOM      3  C   UNL     1      -1.429  12.743  23.124  0.00  0.00    +0.000 C 
ATOM      4  O   UNL     1      -1.027  11.403  23.473  0.00  0.00    +0.000 OA
ATOM      5  C   UNL     1      -0.380  10.723  22.482  0.00  0.00    +0.000 A 
ATOM      6  C   UNL     1      -0.483   9.332  22.545  0.00  0.00    +0.000 A 
ATOM      7  C   UNL     1       0.022   8.548  21.514  0.00  0.00    +0.000 A 
ATOM      8  C   UNL     1       0.607   9.166  20.414  0.00  0.00    +0.000 A 
ATOM      9  C   UNL     1       0.777  10.558  20.402  0.00  0.00    +0.000 A 
ATOM     10  C   UNL     1       0.306  11.369  21.446  0.00  0.00    +0.000 A 
ENDROOT
BRANCH   3  11
ATOM     11  C   UNL     1      -2.809  12.743  22.457  0.00  0.00    +0.000 A 
ATOM     12  C   UNL     1      -2.964  12.887  21.053  0.00  0.00    +0.000 A 
ATOM     13  C   UNL     1      -4.222  12.904  20.448  0.00  0.00    +0.000 A 
ATOM     14  C   UNL     1      -5.318  12.784  21.269  0.00  0.00    +0.000 A 
ATOM     15  C   UNL     1      -5.194  12.644  22.629  0.00  0.00    +0.000 A 
ATOM     16  C   UNL     1      -3.963  12.620  23.251  0.00  0.00    +0.000 A 
ATOM     17  O   UNL     1      -6.402  12.542  23.249  0.00  0.00    +0.000 OA
ATOM     18  C   UNL     1      -7.295  12.666  22.122  0.00  0.00    +0.000 C 
ATOM     19  O   UNL     1      -6.613  12.781  20.859  0.00  0.00    +0.000 OA
ENDBRANCH   3  11
BRANCH   2  20
ATOM     20  C   UNL     1      -0.447  14.964  22.661  0.00  0.00    +0.000 C 
ATOM     21  O   UNL     1       0.030  15.414  23.698  0.00  0.00    +0.000 OA
BRANCH  20  22
ATOM     22  O   UNL     1      -1.084  15.781  21.807  0.00  0.00    +0.000 OA
ATOM     23  H   UNL     1      -0.825  16.711  21.836  0.00  0.00    +0.000 HD
ENDBRANCH  20  22
ENDBRANCH   2  20
BRANCH   1  24
ATOM     24  C   UNL     1       1.597  13.454  20.679  0.00  0.00    +0.000 C 
BRANCH  24  25
ATOM     25  C   UNL     1       1.089  14.291  19.509  0.00  0.00    +0.000 C 
BRANCH  25  27
ATOM     26  C   UNL     1      -0.640  13.137  18.125  0.00  0.00    +0.000 C 
ATOM     27  C   UNL     1       0.842  13.428  18.275  0.00  0.00    +0.000 C 
ENDBRANCH  25  27
ENDBRANCH  24  25
ENDBRANCH   1  24
BRANCH   8  28
ATOM     28  O   UNL     1       1.050   8.529  19.289  0.00  0.00    +0.000 OA
BRANCH  28  29
ATOM     29  C   UNL     1       2.334   7.891  19.331  0.00  0.00    +0.000 C 
ATOM     30  C   UNL     1       2.228   6.427  19.762  0.00  0.00    +0.000 C 
ATOM     31  C   UNL     1       2.883   7.952  17.905  0.00  0.00    +0.000 C 
ENDBRANCH  28  29
ENDBRANCH   8  28
TORSDOF 8
ENDMDL
MODEL 4
REMARK VINA RESULT:      -6.4      6.507      9.643
REMARK  Name = 
REMARK  11 active torsions:
REMARK  status: ('A' for Active; 'I' for Inactive)
REMARK    1  A    between atoms: C_1  and  C_2
REMARK    2  A    between atoms: C_2  and  C_3
REMARK    3  A    between atoms: C_3  and  C_4
REMARK    4  A    between atoms: C_4  and  C_5
REMARK    5  A    between atoms: C_6  and  C_7
REMARK    6  A    between atoms: C_7  and  O_9
REMARK    7  A    between atoms: C_10  and  C_11
REMARK    8  A    between atoms: C_24  and  O_25
REMARK    9  A    between atoms: O_25  and  C_26
REMARK   10  A    between atoms: C_26  and  C_27
REMARK   11  A    between atoms: C_26  and  C_28
REMARK                            x       y       z     vdW  Elec       q    Type
REMARK                         _______ _______ _______ _____ _____    ______ ____
ROOT
ATOM      1  C   UNL     1      -0.958  10.981  19.208  0.00  0.00    +0.000 C 
ATOM      2  C   UNL     1       0.389  10.880  19.352  0.00  0.00    +0.000 C 
ATOM      3  C   UNL     1       1.102  11.609  20.486  0.00  0.00    +0.000 C 
ATOM      4  O   UNL     1       0.293  11.792  21.664  0.00  0.00    +0.000 OA
ATOM      5  C   UNL     1      -1.004  12.139  21.420  0.00  0.00    +0.000 A 
ATOM      6  C   UNL     1      -1.635  12.854  22.441  0.00  0.00    +0.000 A 
ATOM      7  C   UNL     1      -2.909  13.373  22.244  0.00  0.00    +0.000 A 
ATOM      8  C   UNL     1      -3.534  13.192  21.015  0.00  0.00    +0.000 A 
ATOM      9  C   UNL     1      -2.924  12.403  20.029  0.00  0.00    +0.000 A 
ATOM     10  C   UNL     1      -1.652  11.840  20.215  0.00  0.00    +0.000 A 
ENDROOT
BRANCH   3  11
ATOM     11  C   UNL     1       1.720  12.937  20.035  0.00  0.00    +0.000 A 
ATOM     12  C   UNL     1       1.253  13.632  18.889  0.00  0.00    +0.000 A 
ATOM     13  C   UNL     1       1.828  14.833  18.470  0.00  0.00    +0.000 A 
ATOM     14  C   UNL     1       2.880  15.321  19.208  0.00  0.00    +0.000 A 
ATOM     15  C   UNL     1       3.350  14.667  20.320  0.00  0.00    +0.000 A 
ATOM     16  C   UNL     1       2.798  13.480  20.758  0.00  0.00    +0.000 A 
ATOM     17  O   UNL     1       4.395  15.320  20.899  0.00  0.00    +0.000 OA
ATOM     18  C   UNL     1       4.542  16.441  20.003  0.00  0.00    +0.000 C 
ATOM     19  O   UNL     1       3.559  16.468  18.950  0.00  0.00    +0.000 OA
ENDBRANCH   3  11
BRANCH   2  20
ATOM     20  C   UNL     1       1.365  10.053  18.582  0.00  0.00    +0.000 C 
ATOM     21  O   UNL     1       1.732   8.945  18.961  0.00  0.00    +0.000 OA
BRANCH  20  22
ATOM     22  O   UNL     1       1.876  10.579  17.457  0.00  0.00    +0.000 OA
ATOM     23  H   UNL     1       1.335  10.485  16.661  0.00  0.00    +0.000 HD
ENDBRANCH  20  22
ENDBRANCH   2  20
BRANCH   1  24
ATOM     24  C   UNL     1      -1.825  10.276  18.185  0.00  0.00    +0.000 C 
BRANCH  24  25
ATOM     25  C   UNL     1      -2.069  11.126  16.942  0.00  0.00    +0.000 C 
BRANCH  25  27
ATOM     26  C   UNL     1      -2.997  10.167  14.831  0.00  0.00    +0.000 C 
ATOM     27  C   UNL     1      -3.338  10.693  16.213  0.00  0.00    +0.000 C 
ENDBRANCH  25  27
ENDBRANCH  24  25
ENDBRANCH   1  24
BRANCH   8  28
ATOM     28  O   UNL     1      -4.735  13.732  20.648  0.00  0.00    +0.000 OA
BRANCH  28  29
ATOM     29  C   UNL     1      -5.643  12.918  19.892  0.00  0.00    +0.000 C 
ATOM     30  C   UNL     1      -6.599  12.140  20.798  0.00  0.00    +0.000 C 
ATOM     31  C   UNL     1      -6.452  13.881  19.024  0.00  0.00    +0.000 C 
ENDBRANCH  28  29
ENDBRANCH   8  28
TORSDOF 8
ENDMDL
MODEL 5
REMARK VINA RESULT:      -6.4      4.380      9.144
REMARK  Name = 
REMARK  11 active torsions:
REMARK  status: ('A' for Active; 'I' for Inactive)
REMARK    1  A    between atoms: C_1  and  C_2
REMARK    2  A    between atoms: C_2  and  C_3
REMARK    3  A    between atoms: C_3  and  C_4
REMARK    4  A    between atoms: C_4  and  C_5
REMARK    5  A    between atoms: C_6  and  C_7
REMARK    6  A    between atoms: C_7  and  O_9
REMARK    7  A    between atoms: C_10  and  C_11
REMARK    8  A    between atoms: C_24  and  O_25
REMARK    9  A    between atoms: O_25  and  C_26
REMARK   10  A    between atoms: C_26  and  C_27
REMARK   11  A    between atoms: C_26  and  C_28
REMARK                            x       y       z     vdW  Elec       q    Type
REMARK                         _______ _______ _______ _____ _____    ______ ____
ROOT
ATOM      1  C   UNL     1      -1.636  13.013  20.166  0.00  0.00    +0.000 C 
ATOM      2  C   UNL     1      -0.291  12.940  19.987  0.00  0.00    +0.000 C 
ATOM      3  C   UNL     1       0.291  12.163  18.811  0.00  0.00    +0.000 C 
ATOM      4  O   UNL     1      -0.563  12.128  17.651  0.00  0.00    +0.000 OA
ATOM      5  C   UNL     1      -1.888  11.947  17.922  0.00  0.00    +0.000 A 
ATOM      6  C   UNL     1      -2.633  11.356  16.898  0.00  0.00    +0.000 A 
ATOM      7  C   UNL     1      -3.960  11.003  17.116  0.00  0.00    +0.000 A 
ATOM      8  C   UNL     1      -4.525  11.222  18.368  0.00  0.00    +0.000 A 
ATOM      9  C   UNL     1      -3.792  11.890  19.359  0.00  0.00    +0.000 A 
ATOM     10  C   UNL     1      -2.462  12.287  19.154  0.00  0.00    +0.000 A 
ENDROOT
BRANCH   3  11
ATOM     11  C   UNL     1       0.740  10.751  19.202  0.00  0.00    +0.000 A 
ATOM     12  C   UNL     1       0.490  10.215  20.494  0.00  0.00    +0.000 A 
ATOM     13  C   UNL     1       0.914   8.935  20.854  0.00  0.00    +0.000 A 
ATOM     14  C   UNL     1       1.596   8.206  19.909  0.00  0.00    +0.000 A 
ATOM     15  C   UNL     1       1.850   8.702  18.655  0.00  0.00    +0.000 A 
ATOM     16  C   UNL     1       1.439   9.963  18.271  0.00  0.00    +0.000 A 
ATOM     17  O   UNL     1       2.537   7.819  17.880  0.00  0.00    +0.000 OA
ATOM     18  C   UNL     1       2.710   6.726  18.806  0.00  0.00    +0.000 C 
ATOM     19  O   UNL     1       2.082   6.950  20.083  0.00  0.00    +0.000 OA
ENDBRANCH   3  11
BRANCH   2  20
ATOM     20  C   UNL     1       0.805  13.605  20.753  0.00  0.00    +0.000 C 
ATOM     21  O   UNL     1       1.083  13.292  21.907  0.00  0.00    +0.000 OA
BRANCH  20  22
ATOM     22  O   UNL     1       1.469  14.604  20.151  0.00  0.00    +0.000 OA
ATOM     23  H   UNL     1       2.200  14.341  19.577  0.00  0.00    +0.000 HD
ENDBRANCH  20  22
ENDBRANCH   2  20
BRANCH   1  24
ATOM     24  C   UNL     1      -2.376  13.790  21.235  0.00  0.00    +0.000 C 
BRANCH  24  25
ATOM     25  C   UNL     1      -2.385  13.069  22.580  0.00  0.00    +0.000 C 
BRANCH  25  27
ATOM     26  C   UNL     1      -4.016  12.723  24.439  0.00  0.00    +0.000 C 
ATOM     27  C   UNL     1      -3.787  12.590  22.944  0.00  0.00    +0.000 C 
ENDBRANCH  25  27
ENDBRANCH  24  25
ENDBRANCH   1  24
BRANCH   8  28
ATOM     28  O   UNL     1      -5.777  10.832  18.752  0.00  0.00    +0.000 OA
BRANCH  28  29
ATOM     29  C   UNL     1      -6.555  11.737  19.550  0.00  0.00    +0.000 C 
ATOM     30  C   UNL     1      -7.522  12.560  18.697  0.00  0.00    +0.000 C 
ATOM     31  C   UNL     1      -7.359  10.865  20.514  0.00  0.00    +0.000 C 
ENDBRANCH  28  29
ENDBRANCH   8  28
TORSDOF 8
ENDMDL
MODEL 6
REMARK VINA RESULT:      -6.4      7.842     10.610
REMARK  Name = 
REMARK  11 active torsions:
REMARK  status: ('A' for Active; 'I' for Inactive)
REMARK    1  A    between atoms: C_1  and  C_2
REMARK    2  A    between atoms: C_2  and  C_3
REMARK    3  A    between atoms: C_3  and  C_4
REMARK    4  A    between atoms: C_4  and  C_5
REMARK    5  A    between atoms: C_6  and  C_7
REMARK    6  A    between atoms: C_7  and  O_9
REMARK    7  A    between atoms: C_10  and  C_11
REMARK    8  A    between atoms: C_24  and  O_25
REMARK    9  A    between atoms: O_25  and  C_26
REMARK   10  A    between atoms: C_26  and  C_27
REMARK   11  A    between atoms: C_26  and  C_28
REMARK                            x       y       z     vdW  Elec       q    Type
REMARK                         _______ _______ _______ _____ _____    ______ ____
ROOT
ATOM      1  C   UNL     1      -0.175  13.696  21.713  0.00  0.00    +0.000 C 
ATOM      2  C   UNL     1      -0.346  12.348  21.715  0.00  0.00    +0.000 C 
ATOM      3  C   UNL     1       0.242  11.492  20.599  0.00  0.00    +0.000 C 
ATOM      4  O   UNL     1       1.442  12.036  20.014  0.00  0.00    +0.000 OA
ATOM      5  C   UNL     1       1.424  13.386  19.819  0.00  0.00    +0.000 A 
ATOM      6  C   UNL     1       2.250  13.855  18.796  0.00  0.00    +0.000 A 
ATOM      7  C   UNL     1       2.207  15.193  18.422  0.00  0.00    +0.000 A 
ATOM      8  C   UNL     1       1.318  16.049  19.063  0.00  0.00    +0.000 A 
ATOM      9  C   UNL     1       0.554  15.584  20.144  0.00  0.00    +0.000 A 
ATOM     10  C   UNL     1       0.604  14.246  20.562  0.00  0.00    +0.000 A 
ENDROOT
BRANCH   3  11
ATOM     11  C   UNL     1      -0.787  11.150  19.515  0.00  0.00    +0.000 A 
ATOM     12  C   UNL     1      -0.503  10.223  18.477  0.00  0.00    +0.000 A 
ATOM     13  C   UNL     1      -1.435   9.925  17.481  0.00  0.00    +0.000 A 
ATOM     14  C   UNL     1      -2.645  10.573  17.534  0.00  0.00    +0.000 A 
ATOM     15  C   UNL     1      -2.942  11.474  18.527  0.00  0.00    +0.000 A 
ATOM     16  C   UNL     1      -2.041  11.784  19.525  0.00  0.00    +0.000 A 
ATOM     17  O   UNL     1      -4.191  11.999  18.390  0.00  0.00    +0.000 OA
ATOM     18  C   UNL     1      -4.627  11.345  17.180  0.00  0.00    +0.000 C 
ATOM     19  O   UNL     1      -3.666  10.410  16.653  0.00  0.00    +0.000 OA
ENDBRANCH   3  11
BRANCH   2  20
ATOM     20  C   UNL     1      -0.993  11.476  22.740  0.00  0.00    +0.000 C 
ATOM     21  O   UNL     1      -2.171  11.602  23.061  0.00  0.00    +0.000 OA
BRANCH  20  22
ATOM     22  O   UNL     1      -0.228  10.555  23.347  0.00  0.00    +0.000 OA
ATOM     23  H   UNL     1      -0.699   9.871  23.841  0.00  0.00    +0.000 HD
ENDBRANCH  20  22
ENDBRANCH   2  20
BRANCH   1  24
ATOM     24  C   UNL     1      -0.633  14.678  22.771  0.00  0.00    +0.000 C 
BRANCH  24  25
ATOM     25  C   UNL     1      -2.100  15.070  22.608  0.00  0.00    +0.000 C 
BRANCH  25  27
ATOM     26  C   UNL     1      -3.683  17.001  22.587  0.00  0.00    +0.000 C 
ATOM     27  C   UNL     1      -2.250  16.565  22.342  0.00  0.00    +0.000 C 
ENDBRANCH  25  27
ENDBRANCH  24  25
ENDBRANCH   1  24
BRANCH   8  28
ATOM     28  O   UNL     1       1.097  17.356  18.731  0.00  0.00    +0.000 OA
BRANCH  28  29
ATOM     29  C   UNL     1       0.078  17.648  17.764  0.00  0.00    +0.000 C 
ATOM     30  C   UNL     1      -1.096  18.407  18.385  0.00  0.00    +0.000 C 
ATOM     31  C   UNL     1       0.740  18.532  16.707  0.00  0.00    +0.000 C 
ENDBRANCH  28  29
ENDBRANCH   8  28
TORSDOF 8
ENDMDL
MODEL 7
REMARK VINA RESULT:      -6.3      4.344     10.791
REMARK  Name = 
REMARK  11 active torsions:
REMARK  status: ('A' for Active; 'I' for Inactive)
REMARK    1  A    between atoms: C_1  and  C_2
REMARK    2  A    between atoms: C_2  and  C_3
REMARK    3  A    between atoms: C_3  and  C_4
REMARK    4  A    between atoms: C_4  and  C_5
REMARK    5  A    between atoms: C_6  and  C_7
REMARK    6  A    between atoms: C_7  and  O_9
REMARK    7  A    between atoms: C_10  and  C_11
REMARK    8  A    between atoms: C_24  and  O_25
REMARK    9  A    between atoms: O_25  and  C_26
REMARK   10  A    between atoms: C_26  and  C_27
REMARK   11  A    between atoms: C_26  and  C_28
REMARK                            x       y       z     vdW  Elec       q    Type
REMARK                         _______ _______ _______ _____ _____    ______ ____
ROOT
ATOM      1  C   UNL     1       1.213  12.675  18.787  0.00  0.00    +0.000 C 
ATOM      2  C   UNL     1       0.248  13.398  19.414  0.00  0.00    +0.000 C 
ATOM      3  C   UNL     1      -0.722  12.721  20.376  0.00  0.00    +0.000 C 
ATOM      4  O   UNL     1      -0.173  11.570  21.049  0.00  0.00    +0.000 OA
ATOM      5  C   UNL     1       0.592  10.758  20.263  0.00  0.00    +0.000 A 
ATOM      6  C   UNL     1       0.659   9.423  20.668  0.00  0.00    +0.000 A 
ATOM      7  C   UNL     1       1.298   8.483  19.867  0.00  0.00    +0.000 A 
ATOM      8  C   UNL     1       1.847   8.884  18.654  0.00  0.00    +0.000 A 
ATOM      9  C   UNL     1       1.845  10.241  18.299  0.00  0.00    +0.000 A 
ATOM     10  C   UNL     1       1.236  11.215  19.105  0.00  0.00    +0.000 A 
ENDROOT
BRANCH   3  11
ATOM     11  C   UNL     1      -2.063  12.379  19.717  0.00  0.00    +0.000 A 
ATOM     12  C   UNL     1      -2.137  11.789  18.428  0.00  0.00    +0.000 A 
ATOM     13  C   UNL     1      -3.360  11.495  17.822  0.00  0.00    +0.000 A 
ATOM     14  C   UNL     1      -4.502  11.807  18.520  0.00  0.00    +0.000 A 
ATOM     15  C   UNL     1      -4.456  12.379  19.767  0.00  0.00    +0.000 A 
ATOM     16  C   UNL     1      -3.261  12.677  20.390  0.00  0.00    +0.000 A 
ATOM     17  O   UNL     1      -5.698  12.606  20.277  0.00  0.00    +0.000 OA
ATOM     18  C   UNL     1      -6.524  12.138  19.190  0.00  0.00    +0.000 C 
ATOM     19  O   UNL     1      -5.772  11.595  18.088  0.00  0.00    +0.000 OA
ENDBRANCH   3  11
BRANCH   2  20
ATOM     20  C   UNL     1      -0.002  14.869  19.386  0.00  0.00    +0.000 C 
ATOM     21  O   UNL     1      -0.342  15.459  18.365  0.00  0.00    +0.000 OA
BRANCH  20  22
ATOM     22  O   UNL     1       0.196  15.556  20.522  0.00  0.00    +0.000 OA
ATOM     23  H   UNL     1       0.906  15.236  21.093  0.00  0.00    +0.000 HD
ENDBRANCH  20  22
ENDBRANCH   2  20
BRANCH   1  24
ATOM     24  C   UNL     1       2.290  13.197  17.859  0.00  0.00    +0.000 C 
BRANCH  24  25
ATOM     25  C   UNL     1       3.273  14.124  18.569  0.00  0.00    +0.000 C 
BRANCH  25  27
ATOM     26  C   UNL     1       3.092  16.592  18.237  0.00  0.00    +0.000 C 
ATOM     27  C   UNL     1       3.667  15.302  17.682  0.00  0.00    +0.000 C 
ENDBRANCH  25  27
ENDBRANCH  24  25
ENDBRANCH   1  24
BRANCH   8  28
ATOM     28  O   UNL     1       2.410   8.054  17.725  0.00  0.00    +0.000 OA
BRANCH  28  29
ATOM     29  C   UNL     1       3.145   6.914  18.191  0.00  0.00    +0.000 C 
ATOM     30  C   UNL     1       2.354   5.616  18.015  0.00  0.00    +0.000 C 
ATOM     31  C   UNL     1       4.409   6.847  17.334  0.00  0.00    +0.000 C 
ENDBRANCH  28  29
ENDBRANCH   8  28
TORSDOF 8
ENDMDL
MODEL 8
REMARK VINA RESULT:      -6.3      6.598      9.984
REMARK  Name = 
REMARK  11 active torsions:
REMARK  status: ('A' for Active; 'I' for Inactive)
REMARK    1  A    between atoms: C_1  and  C_2
REMARK    2  A    between atoms: C_2  and  C_3
REMARK    3  A    between atoms: C_3  and  C_4
REMARK    4  A    between atoms: C_4  and  C_5
REMARK    5  A    between atoms: C_6  and  C_7
REMARK    6  A    between atoms: C_7  and  O_9
REMARK    7  A    between atoms: C_10  and  C_11
REMARK    8  A    between atoms: C_24  and  O_25
REMARK    9  A    between atoms: O_25  and  C_26
REMARK   10  A    between atoms: C_26  and  C_27
REMARK   11  A    between atoms: C_26  and  C_28
REMARK                            x       y       z     vdW  Elec       q    Type
REMARK                         _______ _______ _______ _____ _____    ______ ____
ROOT
ATOM      1  C   UNL     1      -1.154  10.872  18.866  0.00  0.00    +0.000 C 
ATOM      2  C   UNL     1       0.179  10.916  19.131  0.00  0.00    +0.000 C 
ATOM      3  C   UNL     1       0.708  11.748  20.294  0.00  0.00    +0.000 C 
ATOM      4  O   UNL     1      -0.219  11.881  21.389  0.00  0.00    +0.000 OA
ATOM      5  C   UNL     1      -1.517  12.084  21.019  0.00  0.00    +0.000 A 
ATOM      6  C   UNL     1      -2.307  12.759  21.952  0.00  0.00    +0.000 A 
ATOM      7  C   UNL     1      -3.605  13.137  21.624  0.00  0.00    +0.000 A 
ATOM      8  C   UNL     1      -4.093  12.856  20.353  0.00  0.00    +0.000 A 
ATOM      9  C   UNL     1      -3.319  12.106  19.456  0.00  0.00    +0.000 A 
ATOM     10  C   UNL     1      -2.020  11.684  19.774  0.00  0.00    +0.000 A 
ENDROOT
BRANCH   3  11
ATOM     11  C   UNL     1       1.228  13.120  19.849  0.00  0.00    +0.000 A 
ATOM     12  C   UNL     1       2.590  13.491  20.001  0.00  0.00    +0.000 A 
ATOM     13  C   UNL     1       3.058  14.747  19.610  0.00  0.00    +0.000 A 
ATOM     14  C   UNL     1       2.145  15.624  19.077  0.00  0.00    +0.000 A 
ATOM     15  C   UNL     1       0.822  15.288  18.921  0.00  0.00    +0.000 A 
ATOM     16  C   UNL     1       0.334  14.053  19.295  0.00  0.00    +0.000 A 
ATOM     17  O   UNL     1       0.094  16.301  18.376  0.00  0.00    +0.000 OA
ATOM     18  C   UNL     1       1.108  17.319  18.239  0.00  0.00    +0.000 C 
ATOM     19  O   UNL     1       2.419  16.882  18.646  0.00  0.00    +0.000 OA
ENDBRANCH   3  11
BRANCH   2  20
ATOM     20  C   UNL     1       1.299  10.173  18.482  0.00  0.00    +0.000 C 
ATOM     21  O   UNL     1       1.635   9.048  18.838  0.00  0.00    +0.000 OA
BRANCH  20  22
ATOM     22  O   UNL     1       1.973  10.794  17.501  0.00  0.00    +0.000 OA
ATOM     23  H   UNL     1       2.425  11.612  17.748  0.00  0.00    +0.000 HD
ENDBRANCH  20  22
ENDBRANCH   2  20
BRANCH   1  24
ATOM     24  C   UNL     1      -1.848  10.051  17.798  0.00  0.00    +0.000 C 
BRANCH  24  25
ATOM     25  C   UNL     1      -2.145  10.862  16.540  0.00  0.00    +0.000 C 
BRANCH  25  27
ATOM     26  C   UNL     1      -3.152  10.051  14.404  0.00  0.00    +0.000 C 
ATOM     27  C   UNL     1      -3.424  10.383  15.860  0.00  0.00    +0.000 C 
ENDBRANCH  25  27
ENDBRANCH  24  25
ENDBRANCH   1  24
BRANCH   8  28
ATOM     28  O   UNL     1      -5.304  13.258  19.862  0.00  0.00    +0.000 OA
BRANCH  28  29
ATOM     29  C   UNL     1      -6.400  12.334  19.921  0.00  0.00    +0.000 C 
ATOM     30  C   UNL     1      -7.317  12.615  21.113  0.00  0.00    +0.000 C 
ATOM     31  C   UNL     1      -7.190  12.532  18.627  0.00  0.00    +0.000 C 
ENDBRANCH  28  29
ENDBRANCH   8  28
TORSDOF 8
ENDMDL
MODEL 9
REMARK VINA RESULT:      -6.3      8.470     11.649
REMARK  Name = 
REMARK  11 active torsions:
REMARK  status: ('A' for Active; 'I' for Inactive)
REMARK    1  A    between atoms: C_1  and  C_2
REMARK    2  A    between atoms: C_2  and  C_3
REMARK    3  A    between atoms: C_3  and  C_4
REMARK    4  A    between atoms: C_4  and  C_5
REMARK    5  A    between atoms: C_6  and  C_7
REMARK    6  A    between atoms: C_7  and  O_9
REMARK    7  A    between atoms: C_10  and  C_11
REMARK    8  A    between atoms: C_24  and  O_25
REMARK    9  A    between atoms: O_25  and  C_26
REMARK   10  A    between atoms: C_26  and  C_27
REMARK   11  A    between atoms: C_26  and  C_28
REMARK                            x       y       z     vdW  Elec       q    Type
REMARK                         _______ _______ _______ _____ _____    ______ ____
ROOT
ATOM      1  C   UNL     1       9.923  13.505  20.233  0.00  0.00    +0.000 C 
ATOM      2  C   UNL     1       9.763  14.422  19.242  0.00  0.00    +0.000 C 
ATOM      3  C   UNL     1       8.956  15.692  19.487  0.00  0.00    +0.000 C 
ATOM      4  O   UNL     1       8.983  16.149  20.853  0.00  0.00    +0.000 OA
ATOM      5  C   UNL     1       8.888  15.161  21.790  0.00  0.00    +0.000 A 
ATOM      6  C   UNL     1       8.354  15.552  23.020  0.00  0.00    +0.000 A 
ATOM      7  C   UNL     1       8.087  14.600  23.998  0.00  0.00    +0.000 A 
ATOM      8  C   UNL     1       8.337  13.259  23.727  0.00  0.00    +0.000 A 
ATOM      9  C   UNL     1       8.949  12.891  22.520  0.00  0.00    +0.000 A 
ATOM     10  C   UNL     1       9.259  13.836  21.531  0.00  0.00    +0.000 A 
ENDROOT
BRANCH   3  11
ATOM     11  C   UNL     1       7.515  15.582  18.977  0.00  0.00    +0.000 A 
ATOM     12  C   UNL     1       7.066  14.457  18.235  0.00  0.00    +0.000 A 
ATOM     13  C   UNL     1       5.757  14.366  17.757  0.00  0.00    +0.000 A 
ATOM     14  C   UNL     1       4.912  15.417  18.023  0.00  0.00    +0.000 A 
ATOM     15  C   UNL     1       5.324  16.515  18.737  0.00  0.00    +0.000 A 
ATOM     16  C   UNL     1       6.610  16.629  19.225  0.00  0.00    +0.000 A 
ATOM     17  O   UNL     1       4.332  17.436  18.884  0.00  0.00    +0.000 OA
ATOM     18  C   UNL     1       3.263  16.799  18.153  0.00  0.00    +0.000 C 
ATOM     19  O   UNL     1       3.613  15.501  17.637  0.00  0.00    +0.000 OA
ENDBRANCH   3  11
BRANCH   2  20
ATOM     20  C   UNL     1      10.350  14.445  17.869  0.00  0.00    +0.000 C 
ATOM     21  O   UNL     1      11.164  15.293  17.517  0.00  0.00    +0.000 OA
BRANCH  20  22
ATOM     22  O   UNL     1       9.926  13.519  16.995  0.00  0.00    +0.000 OA
ATOM     23  H   UNL     1       9.492  13.854  16.200  0.00  0.00    +0.000 HD
ENDBRANCH  20  22
ENDBRANCH   2  20
BRANCH   1  24
ATOM     24  C   UNL     1      10.742  12.232  20.178  0.00  0.00    +0.000 C 
BRANCH  24  25
ATOM     25  C   UNL     1       9.875  10.988  20.002  0.00  0.00    +0.000 C 
BRANCH  25  27
ATOM     26  C   UNL     1       8.589   9.593  18.379  0.00  0.00    +0.000 C 
ATOM     27  C   UNL     1       9.635  10.683  18.527  0.00  0.00    +0.000 C 
ENDBRANCH  25  27
ENDBRANCH  24  25
ENDBRANCH   1  24
BRANCH   8  28
ATOM     28  O   UNL     1       8.028  12.213  24.551  0.00  0.00    +0.000 OA
BRANCH  28  29
ATOM     29  C   UNL     1       6.824  12.293  25.327  0.00  0.00    +0.000 C 
ATOM     30  C   UNL     1       5.826  11.200  24.944  0.00  0.00    +0.000 C 
ATOM     31  C   UNL     1       7.247  12.093  26.783  0.00  0.00    +0.000 C 
ENDBRANCH  28  29
ENDBRANCH   8  28
TORSDOF 8
ENDMDL
