MODEL 1
REMARK VINA RESULT:      -8.1      0.000      0.000
REMARK  Name = 
REMARK  7 active torsions:
REMARK  status: ('A' for Active; 'I' for Inactive)
REMARK    1  A    between atoms: C_1  and  C_2
REMARK    2  A    between atoms: C_2  and  O_3
REMARK    3  A    between atoms: O_3  and  C_4
REMARK    4  A    between atoms: C_7  and  C_8
REMARK    5  A    between atoms: C_14  and  C_15
REMARK    6  A    between atoms: C_29  and  O_30
REMARK    7  A    between atoms: O_30  and  C_31
REMARK                            x       y       z     vdW  Elec       q    Type
REMARK                         _______ _______ _______ _____ _____    ______ ____
ROOT
ATOM      1  C   UNL     1       5.656   5.254  17.447  0.00  0.00    +0.000 C 
ATOM      2  C   UNL     1       6.854   4.714  18.224  0.00  0.00    +0.000 C 
ATOM      3  C   UNL     1       7.593   5.732  19.052  0.00  0.00    +0.000 C 
ATOM      4  O   UNL     1       8.083   5.481  20.151  0.00  0.00    +0.000 OA
ATOM      5  N   UNL     1       7.759   6.981  18.454  0.00  0.00    +0.000 N 
ATOM      6  N   UNL     1       8.484   7.954  19.047  0.00  0.00    +0.000 NA
ATOM      7  C   UNL     1       8.419   8.954  18.157  0.00  0.00    +0.000 A 
ATOM      8  N   UNL     1       7.687   8.667  17.033  0.00  0.00    +0.000 NA
ATOM      9  C   UNL     1       7.274   7.443  17.258  0.00  0.00    +0.000 A 
ATOM     10  S   UNL     1       6.281   6.481  16.229  0.00  0.00    +0.000 S 
ENDROOT
BRANCH   7  11
ATOM     11  C   UNL     1       9.101  10.272  18.430  0.00  0.00    +0.000 C 
ATOM     12  C   UNL     1       9.338  10.435  19.958  0.00  0.00    +0.000 C 
ATOM     13  C   UNL     1       9.947  11.807  20.281  0.00  0.00    +0.000 C 
ATOM     14  C   UNL     1      11.300  11.938  19.569  0.00  0.00    +0.000 C 
ATOM     15  C   UNL     1      11.109  11.797  18.050  0.00  0.00    +0.000 C 
ATOM     16  C   UNL     1      10.175  12.918  17.567  0.00  0.00    +0.000 C 
ATOM     17  C   UNL     1       8.811  12.799  18.262  0.00  0.00    +0.000 C 
ATOM     18  C   UNL     1       8.995  12.908  19.785  0.00  0.00    +0.000 C 
ATOM     19  C   UNL     1       8.196  11.434  17.930  0.00  0.00    +0.000 C 
ATOM     20  C   UNL     1      10.479  10.421  17.729  0.00  0.00    +0.000 C 
ENDBRANCH   7  11
BRANCH   1  24
ATOM     21  C   UNL     1       2.233   6.589  19.820  0.00  0.00    +0.000 A 
ATOM     22  C   UNL     1       2.733   7.386  18.776  0.00  0.00    +0.000 A 
ATOM     23  C   UNL     1       3.829   6.990  18.002  0.00  0.00    +0.000 A 
ATOM     24  C   UNL     1       4.485   5.785  18.263  0.00  0.00    +0.000 A 
ATOM     25  C   UNL     1       4.055   5.058  19.387  0.00  0.00    +0.000 A 
ATOM     26  C   UNL     1       2.942   5.431  20.162  0.00  0.00    +0.000 A 
BRANCH  26  27
ATOM     27  O   UNL     1       2.734   4.538  21.175  0.00  0.00    +0.000 OA
ATOM     28  C   UNL     1       2.095   3.304  20.908  0.00  0.00    +0.000 C 
ENDBRANCH  26  27
BRANCH  21  29
ATOM     29  O   UNL     1       1.090   6.925  20.503  0.00  0.00    +0.000 OA
BRANCH  29  31
ATOM     30  C   UNL     1      -0.272   8.545  21.667  0.00  0.00    +0.000 C 
ATOM     31  C   UNL     1       1.109   8.213  21.134  0.00  0.00    +0.000 C 
ENDBRANCH  29  31
ENDBRANCH  21  29
ENDBRANCH   1  24
TORSDOF 5
ENDMDL
MODEL 2
REMARK VINA RESULT:      -8.1      0.144      1.367
REMARK  Name = 
REMARK  7 active torsions:
REMARK  status: ('A' for Active; 'I' for Inactive)
REMARK    1  A    between atoms: C_1  and  C_2
REMARK    2  A    between atoms: C_2  and  O_3
REMARK    3  A    between atoms: O_3  and  C_4
REMARK    4  A    between atoms: C_7  and  C_8
REMARK    5  A    between atoms: C_14  and  C_15
REMARK    6  A    between atoms: C_29  and  O_30
REMARK    7  A    between atoms: O_30  and  C_31
REMARK                            x       y       z     vdW  Elec       q    Type
REMARK                         _______ _______ _______ _____ _____    ______ ____
ROOT
ATOM      1  C   UNL     1       5.731   5.274  17.437  0.00  0.00    +0.000 C 
ATOM      2  C   UNL     1       6.928   4.751  18.227  0.00  0.00    +0.000 C 
ATOM      3  C   UNL     1       7.643   5.779  19.063  0.00  0.00    +0.000 C 
ATOM      4  O   UNL     1       8.124   5.536  20.168  0.00  0.00    +0.000 OA
ATOM      5  N   UNL     1       7.797   7.032  18.468  0.00  0.00    +0.000 N 
ATOM      6  N   UNL     1       8.502   8.014  19.070  0.00  0.00    +0.000 NA
ATOM      7  C   UNL     1       8.433   9.013  18.179  0.00  0.00    +0.000 A 
ATOM      8  N   UNL     1       7.718   8.717  17.046  0.00  0.00    +0.000 NA
ATOM      9  C   UNL     1       7.319   7.487  17.267  0.00  0.00    +0.000 A 
ATOM     10  S   UNL     1       6.353   6.511  16.226  0.00  0.00    +0.000 S 
ENDROOT
BRANCH   7  11
ATOM     11  C   UNL     1       9.092  10.341  18.460  0.00  0.00    +0.000 C 
ATOM     12  C   UNL     1      10.451  10.423  17.709  0.00  0.00    +0.000 C 
ATOM     13  C   UNL     1      11.193  11.725  18.046  0.00  0.00    +0.000 C 
ATOM     14  C   UNL     1      10.333  12.921  17.616  0.00  0.00    +0.000 C 
ATOM     15  C   UNL     1       8.982  12.887  18.349  0.00  0.00    +0.000 C 
ATOM     16  C   UNL     1       9.242  12.971  19.862  0.00  0.00    +0.000 C 
ATOM     17  C   UNL     1      10.095  11.776  20.313  0.00  0.00    +0.000 C 
ATOM     18  C   UNL     1      11.436  11.785  19.563  0.00  0.00    +0.000 C 
ATOM     19  C   UNL     1       9.349  10.476  19.988  0.00  0.00    +0.000 C 
ATOM     20  C   UNL     1       8.245  11.567  18.021  0.00  0.00    +0.000 C 
ENDBRANCH   7  11
BRANCH   1  24
ATOM     21  C   UNL     1       2.264   6.559  19.772  0.00  0.00    +0.000 A 
ATOM     22  C   UNL     1       2.758   7.360  18.729  0.00  0.00    +0.000 A 
ATOM     23  C   UNL     1       3.869   6.980  17.966  0.00  0.00    +0.000 A 
ATOM     24  C   UNL     1       4.543   5.788  18.240  0.00  0.00    +0.000 A 
ATOM     25  C   UNL     1       4.117   5.059  19.363  0.00  0.00    +0.000 A 
ATOM     26  C   UNL     1       2.990   5.416  20.126  0.00  0.00    +0.000 A 
BRANCH  26  27
ATOM     27  O   UNL     1       2.789   4.524  21.142  0.00  0.00    +0.000 OA
ATOM     28  C   UNL     1       1.716   3.604  21.071  0.00  0.00    +0.000 C 
ENDBRANCH  26  27
BRANCH  21  29
ATOM     29  O   UNL     1       1.109   6.878  20.443  0.00  0.00    +0.000 OA
BRANCH  29  31
ATOM     30  C   UNL     1      -0.237   8.542  21.563  0.00  0.00    +0.000 C 
ATOM     31  C   UNL     1       1.168   8.076  21.231  0.00  0.00    +0.000 C 
ENDBRANCH  29  31
ENDBRANCH  21  29
ENDBRANCH   1  24
TORSDOF 5
ENDMDL
MODEL 3
REMARK VINA RESULT:      -8.0      5.915      9.135
REMARK  Name = 
REMARK  7 active torsions:
REMARK  status: ('A' for Active; 'I' for Inactive)
REMARK    1  A    between atoms: C_1  and  C_2
REMARK    2  A    between atoms: C_2  and  O_3
REMARK    3  A    between atoms: O_3  and  C_4
REMARK    4  A    between atoms: C_7  and  C_8
REMARK    5  A    between atoms: C_14  and  C_15
REMARK    6  A    between atoms: C_29  and  O_30
REMARK    7  A    between atoms: O_30  and  C_31
REMARK                            x       y       z     vdW  Elec       q    Type
REMARK                         _______ _______ _______ _____ _____    ______ ____
ROOT
ATOM      1  C   UNL     1       0.544  11.400  19.961  0.00  0.00    +0.000 C 
ATOM      2  C   UNL     1       1.755  11.403  19.030  0.00  0.00    +0.000 C 
ATOM      3  C   UNL     1       2.018  10.104  18.317  0.00  0.00    +0.000 C 
ATOM      4  O   UNL     1       2.432  10.040  17.161  0.00  0.00    +0.000 OA
ATOM      5  N   UNL     1       1.833   8.953  19.084  0.00  0.00    +0.000 N 
ATOM      6  N   UNL     1       2.126   7.728  18.595  0.00  0.00    +0.000 NA
ATOM      7  C   UNL     1       1.841   6.923  19.628  0.00  0.00    +0.000 A 
ATOM      8  N   UNL     1       1.379   7.573  20.744  0.00  0.00    +0.000 NA
ATOM      9  C   UNL     1       1.366   8.829  20.366  0.00  0.00    +0.000 A 
ATOM     10  S   UNL     1       0.870  10.187  21.304  0.00  0.00    +0.000 S 
ENDROOT
BRANCH   7  11
ATOM     11  C   UNL     1       2.017   5.429  19.510  0.00  0.00    +0.000 C 
ATOM     12  C   UNL     1       3.478   5.041  19.874  0.00  0.00    +0.000 C 
ATOM     13  C   UNL     1       3.717   3.537  19.676  0.00  0.00    +0.000 C 
ATOM     14  C   UNL     1       2.769   2.751  20.592  0.00  0.00    +0.000 C 
ATOM     15  C   UNL     1       1.309   3.095  20.255  0.00  0.00    +0.000 C 
ATOM     16  C   UNL     1       1.038   2.704  18.793  0.00  0.00    +0.000 C 
ATOM     17  C   UNL     1       1.971   3.487  17.860  0.00  0.00    +0.000 C 
ATOM     18  C   UNL     1       3.435   3.173  18.209  0.00  0.00    +0.000 C 
ATOM     19  C   UNL     1       1.724   4.990  18.048  0.00  0.00    +0.000 C 
ATOM     20  C   UNL     1       1.076   4.613  20.439  0.00  0.00    +0.000 C 
ENDBRANCH   7  11
BRANCH   1  24
ATOM     21  C   UNL     1      -3.466  10.890  18.291  0.00  0.00    +0.000 A 
ATOM     22  C   UNL     1      -2.387  10.132  17.804  0.00  0.00    +0.000 A 
ATOM     23  C   UNL     1      -1.092  10.275  18.313  0.00  0.00    +0.000 A 
ATOM     24  C   UNL     1      -0.822  11.206  19.318  0.00  0.00    +0.000 A 
ATOM     25  C   UNL     1      -1.882  12.043  19.709  0.00  0.00    +0.000 A 
ATOM     26  C   UNL     1      -3.193  11.898  19.224  0.00  0.00    +0.000 A 
BRANCH  26  27
ATOM     27  O   UNL     1      -4.025  12.825  19.786  0.00  0.00    +0.000 OA
ATOM     28  C   UNL     1      -4.417  12.695  21.139  0.00  0.00    +0.000 C 
ENDBRANCH  26  27
BRANCH  21  29
ATOM     29  O   UNL     1      -4.754  10.668  17.872  0.00  0.00    +0.000 OA
BRANCH  29  31
ATOM     30  C   UNL     1      -6.622  12.168  17.567  0.00  0.00    +0.000 C 
ATOM     31  C   UNL     1      -5.300  11.677  17.009  0.00  0.00    +0.000 C 
ENDBRANCH  29  31
ENDBRANCH  21  29
ENDBRANCH   1  24
TORSDOF 5
ENDMDL
MODEL 4
REMARK VINA RESULT:      -8.0      5.906      9.139
REMARK  Name = 
REMARK  7 active torsions:
REMARK  status: ('A' for Active; 'I' for Inactive)
REMARK    1  A    between atoms: C_1  and  C_2
REMARK    2  A    between atoms: C_2  and  O_3
REMARK    3  A    between atoms: O_3  and  C_4
REMARK    4  A    between atoms: C_7  and  C_8
REMARK    5  A    between atoms: C_14  and  C_15
REMARK    6  A    between atoms: C_29  and  O_30
REMARK    7  A    between atoms: O_30  and  C_31
REMARK                            x       y       z     vdW  Elec       q    Type
REMARK                         _______ _______ _______ _____ _____    ______ ____
ROOT
ATOM      1  C   UNL     1       0.503  11.390  20.111  0.00  0.00    +0.000 C 
ATOM      2  C   UNL     1       1.734  11.438  19.210  0.00  0.00    +0.000 C 
ATOM      3  C   UNL     1       2.023  10.169  18.452  0.00  0.00    +0.000 C 
ATOM      4  O   UNL     1       2.464  10.154  17.304  0.00  0.00    +0.000 OA
ATOM      5  N   UNL     1       1.829   8.987  19.168  0.00  0.00    +0.000 N 
ATOM      6  N   UNL     1       2.142   7.785  18.638  0.00  0.00    +0.000 NA
ATOM      7  C   UNL     1       1.839   6.938  19.632  0.00  0.00    +0.000 A 
ATOM      8  N   UNL     1       1.347   7.540  20.762  0.00  0.00    +0.000 NA
ATOM      9  C   UNL     1       1.333   8.810  20.433  0.00  0.00    +0.000 A 
ATOM     10  S   UNL     1       0.806  10.126  21.412  0.00  0.00    +0.000 S 
ENDROOT
BRANCH   7  11
ATOM     11  C   UNL     1       2.028   5.451  19.459  0.00  0.00    +0.000 C 
ATOM     12  C   UNL     1       1.088   4.685  20.432  0.00  0.00    +0.000 C 
ATOM     13  C   UNL     1       1.321   3.169  20.349  0.00  0.00    +0.000 C 
ATOM     14  C   UNL     1       1.026   2.692  18.920  0.00  0.00    +0.000 C 
ATOM     15  C   UNL     1       1.947   3.416  17.925  0.00  0.00    +0.000 C 
ATOM     16  C   UNL     1       3.406   3.085  18.276  0.00  0.00    +0.000 C 
ATOM     17  C   UNL     1       3.724   3.562  19.700  0.00  0.00    +0.000 C 
ATOM     18  C   UNL     1       2.787   2.867  20.700  0.00  0.00    +0.000 C 
ATOM     19  C   UNL     1       3.504   5.079  19.781  0.00  0.00    +0.000 C 
ATOM     20  C   UNL     1       1.723   4.943  18.024  0.00  0.00    +0.000 C 
ENDBRANCH   7  11
BRANCH   1  24
ATOM     21  C   UNL     1      -3.464  10.923  18.328  0.00  0.00    +0.000 A 
ATOM     22  C   UNL     1      -2.373  10.181  17.846  0.00  0.00    +0.000 A 
ATOM     23  C   UNL     1      -1.090  10.311  18.391  0.00  0.00    +0.000 A 
ATOM     24  C   UNL     1      -0.847  11.213  19.429  0.00  0.00    +0.000 A 
ATOM     25  C   UNL     1      -1.917  12.038  19.817  0.00  0.00    +0.000 A 
ATOM     26  C   UNL     1      -3.216  11.906  19.295  0.00  0.00    +0.000 A 
BRANCH  26  27
ATOM     27  O   UNL     1      -4.063  12.816  19.862  0.00  0.00    +0.000 OA
ATOM     28  C   UNL     1      -4.311  12.778  21.254  0.00  0.00    +0.000 C 
ENDBRANCH  26  27
BRANCH  21  29
ATOM     29  O   UNL     1      -4.741  10.712  17.871  0.00  0.00    +0.000 OA
BRANCH  29  31
ATOM     30  C   UNL     1      -6.244  12.485  17.213  0.00  0.00    +0.000 C 
ATOM     31  C   UNL     1      -5.142  11.541  16.770  0.00  0.00    +0.000 C 
ENDBRANCH  29  31
ENDBRANCH  21  29
ENDBRANCH   1  24
TORSDOF 5
ENDMDL
MODEL 5
REMARK VINA RESULT:      -8.0      0.168      1.357
REMARK  Name = 
REMARK  7 active torsions:
REMARK  status: ('A' for Active; 'I' for Inactive)
REMARK    1  A    between atoms: C_1  and  C_2
REMARK    2  A    between atoms: C_2  and  O_3
REMARK    3  A    between atoms: O_3  and  C_4
REMARK    4  A    between atoms: C_7  and  C_8
REMARK    5  A    between atoms: C_14  and  C_15
REMARK    6  A    between atoms: C_29  and  O_30
REMARK    7  A    between atoms: O_30  and  C_31
REMARK                            x       y       z     vdW  Elec       q    Type
REMARK                         _______ _______ _______ _____ _____    ______ ____
ROOT
ATOM      1  C   UNL     1       5.591   5.260  17.344  0.00  0.00    +0.000 C 
ATOM      2  C   UNL     1       6.827   4.685  18.032  0.00  0.00    +0.000 C 
ATOM      3  C   UNL     1       7.597   5.659  18.884  0.00  0.00    +0.000 C 
ATOM      4  O   UNL     1       8.139   5.348  19.942  0.00  0.00    +0.000 OA
ATOM      5  N   UNL     1       7.727   6.943  18.354  0.00  0.00    +0.000 N 
ATOM      6  N   UNL     1       8.474   7.885  18.971  0.00  0.00    +0.000 NA
ATOM      7  C   UNL     1       8.362   8.935  18.146  0.00  0.00    +0.000 A 
ATOM      8  N   UNL     1       7.580   8.710  17.041  0.00  0.00    +0.000 NA
ATOM      9  C   UNL     1       7.185   7.471  17.212  0.00  0.00    +0.000 A 
ATOM     10  S   UNL     1       6.151   6.563  16.174  0.00  0.00    +0.000 S 
ENDROOT
BRANCH   7  11
ATOM     11  C   UNL     1       9.047  10.241  18.466  0.00  0.00    +0.000 C 
ATOM     12  C   UNL     1       8.159  11.429  18.002  0.00  0.00    +0.000 C 
ATOM     13  C   UNL     1       8.868  12.773  18.228  0.00  0.00    +0.000 C 
ATOM     14  C   UNL     1       9.155  12.944  19.726  0.00  0.00    +0.000 C 
ATOM     15  C   UNL     1      10.046  11.795  20.224  0.00  0.00    +0.000 C 
ATOM     16  C   UNL     1      11.373  11.830  19.449  0.00  0.00    +0.000 C 
ATOM     17  C   UNL     1      11.107  11.652  17.947  0.00  0.00    +0.000 C 
ATOM     18  C   UNL     1      10.191  12.780  17.446  0.00  0.00    +0.000 C 
ATOM     19  C   UNL     1      10.410  10.304  17.718  0.00  0.00    +0.000 C 
ATOM     20  C   UNL     1       9.337  10.442  19.979  0.00  0.00    +0.000 C 
ENDBRANCH   7  11
BRANCH   1  24
ATOM     21  C   UNL     1       2.272   6.422  19.945  0.00  0.00    +0.000 A 
ATOM     22  C   UNL     1       2.732   7.293  18.942  0.00  0.00    +0.000 A 
ATOM     23  C   UNL     1       3.795   6.953  18.098  0.00  0.00    +0.000 A 
ATOM     24  C   UNL     1       4.455   5.732  18.243  0.00  0.00    +0.000 A 
ATOM     25  C   UNL     1       4.068   4.925  19.328  0.00  0.00    +0.000 A 
ATOM     26  C   UNL     1       2.989   5.241  20.172  0.00  0.00    +0.000 A 
BRANCH  26  27
ATOM     27  O   UNL     1       2.818   4.277  21.125  0.00  0.00    +0.000 OA
ATOM     28  C   UNL     1       1.929   3.202  20.889  0.00  0.00    +0.000 C 
ENDBRANCH  26  27
BRANCH  21  29
ATOM     29  O   UNL     1       1.159   6.708  20.696  0.00  0.00    +0.000 OA
BRANCH  29  31
ATOM     30  C   UNL     1      -0.364   8.295  21.695  0.00  0.00    +0.000 C 
ATOM     31  C   UNL     1       0.985   8.093  21.031  0.00  0.00    +0.000 C 
ENDBRANCH  29  31
ENDBRANCH  21  29
ENDBRANCH   1  24
TORSDOF 5
ENDMDL
MODEL 6
REMARK VINA RESULT:      -8.0      5.929      9.140
REMARK  Name = 
REMARK  7 active torsions:
REMARK  status: ('A' for Active; 'I' for Inactive)
REMARK    1  A    between atoms: C_1  and  C_2
REMARK    2  A    between atoms: C_2  and  O_3
REMARK    3  A    between atoms: O_3  and  C_4
REMARK    4  A    between atoms: C_7  and  C_8
REMARK    5  A    between atoms: C_14  and  C_15
REMARK    6  A    between atoms: C_29  and  O_30
REMARK    7  A    between atoms: O_30  and  C_31
REMARK                            x       y       z     vdW  Elec       q    Type
REMARK                         _______ _______ _______ _____ _____    ______ ____
ROOT
ATOM      1  C   UNL     1       0.393  11.494  20.096  0.00  0.00    +0.000 C 
ATOM      2  C   UNL     1       1.621  11.579  19.193  0.00  0.00    +0.000 C 
ATOM      3  C   UNL     1       1.953  10.317  18.442  0.00  0.00    +0.000 C 
ATOM      4  O   UNL     1       2.393  10.309  17.295  0.00  0.00    +0.000 OA
ATOM      5  N   UNL     1       1.800   9.133  19.166  0.00  0.00    +0.000 N 
ATOM      6  N   UNL     1       2.153   7.939  18.642  0.00  0.00    +0.000 NA
ATOM      7  C   UNL     1       1.880   7.088  19.641  0.00  0.00    +0.000 A 
ATOM      8  N   UNL     1       1.368   7.679  20.768  0.00  0.00    +0.000 NA
ATOM      9  C   UNL     1       1.311   8.946  20.432  0.00  0.00    +0.000 A 
ATOM     10  S   UNL     1       0.740  10.249  21.404  0.00  0.00    +0.000 S 
ENDROOT
BRANCH   7  11
ATOM     11  C   UNL     1       2.119   5.607  19.477  0.00  0.00    +0.000 C 
ATOM     12  C   UNL     1       1.755   5.173  18.029  0.00  0.00    +0.000 C 
ATOM     13  C   UNL     1       1.899   3.654  17.854  0.00  0.00    +0.000 C 
ATOM     14  C   UNL     1       3.356   3.252  18.123  0.00  0.00    +0.000 C 
ATOM     15  C   UNL     1       3.754   3.651  19.553  0.00  0.00    +0.000 C 
ATOM     16  C   UNL     1       2.837   2.915  20.543  0.00  0.00    +0.000 C 
ATOM     17  C   UNL     1       1.374   3.310  20.294  0.00  0.00    +0.000 C 
ATOM     18  C   UNL     1       0.975   2.943  18.856  0.00  0.00    +0.000 C 
ATOM     19  C   UNL     1       1.226   4.826  20.482  0.00  0.00    +0.000 C 
ATOM     20  C   UNL     1       3.591   5.179  19.732  0.00  0.00    +0.000 C 
ENDBRANCH   7  11
BRANCH   1  24
ATOM     21  C   UNL     1      -3.557  10.882  18.320  0.00  0.00    +0.000 A 
ATOM     22  C   UNL     1      -2.441  10.176  17.839  0.00  0.00    +0.000 A 
ATOM     23  C   UNL     1      -1.163  10.353  18.383  0.00  0.00    +0.000 A 
ATOM     24  C   UNL     1      -0.951  11.267  19.416  0.00  0.00    +0.000 A 
ATOM     25  C   UNL     1      -2.049  12.056  19.802  0.00  0.00    +0.000 A 
ATOM     26  C   UNL     1      -3.343  11.876  19.282  0.00  0.00    +0.000 A 
BRANCH  26  27
ATOM     27  O   UNL     1      -4.221  12.759  19.846  0.00  0.00    +0.000 OA
ATOM     28  C   UNL     1      -4.182  13.000  21.240  0.00  0.00    +0.000 C 
ENDBRANCH  26  27
BRANCH  21  29
ATOM     29  O   UNL     1      -4.826  10.625  17.864  0.00  0.00    +0.000 OA
BRANCH  29  31
ATOM     30  C   UNL     1      -6.633  12.170  17.437  0.00  0.00    +0.000 C 
ATOM     31  C   UNL     1      -5.341  11.571  16.916  0.00  0.00    +0.000 C 
ENDBRANCH  29  31
ENDBRANCH  21  29
ENDBRANCH   1  24
TORSDOF 5
ENDMDL
MODEL 7
REMARK VINA RESULT:      -8.0      0.768      2.217
REMARK  Name = 
REMARK  7 active torsions:
REMARK  status: ('A' for Active; 'I' for Inactive)
REMARK    1  A    between atoms: C_1  and  C_2
REMARK    2  A    between atoms: C_2  and  O_3
REMARK    3  A    between atoms: O_3  and  C_4
REMARK    4  A    between atoms: C_7  and  C_8
REMARK    5  A    between atoms: C_14  and  C_15
REMARK    6  A    between atoms: C_29  and  O_30
REMARK    7  A    between atoms: O_30  and  C_31
REMARK                            x       y       z     vdW  Elec       q    Type
REMARK                         _______ _______ _______ _____ _____    ______ ____
ROOT
ATOM      1  C   UNL     1       5.803   5.193  17.242  0.00  0.00    +0.000 C 
ATOM      2  C   UNL     1       7.062   4.677  17.934  0.00  0.00    +0.000 C 
ATOM      3  C   UNL     1       7.771   5.679  18.806  0.00  0.00    +0.000 C 
ATOM      4  O   UNL     1       8.319   5.384  19.866  0.00  0.00    +0.000 OA
ATOM      5  N   UNL     1       7.835   6.976  18.295  0.00  0.00    +0.000 N 
ATOM      6  N   UNL     1       8.523   7.949  18.932  0.00  0.00    +0.000 NA
ATOM      7  C   UNL     1       8.361   9.003  18.120  0.00  0.00    +0.000 A 
ATOM      8  N   UNL     1       7.603   8.750  17.005  0.00  0.00    +0.000 NA
ATOM      9  C   UNL     1       7.274   7.489  17.155  0.00  0.00    +0.000 A 
ATOM     10  S   UNL     1       6.301   6.541  16.095  0.00  0.00    +0.000 S 
ENDROOT
BRANCH   7  11
ATOM     11  C   UNL     1       8.972  10.339  18.464  0.00  0.00    +0.000 C 
ATOM     12  C   UNL     1      10.359  10.476  17.776  0.00  0.00    +0.000 C 
ATOM     13  C   UNL     1      11.051  11.787  18.180  0.00  0.00    +0.000 C 
ATOM     14  C   UNL     1      10.179  12.972  17.741  0.00  0.00    +0.000 C 
ATOM     15  C   UNL     1       8.798  12.883  18.412  0.00  0.00    +0.000 C 
ATOM     16  C   UNL     1       8.989  12.934  19.937  0.00  0.00    +0.000 C 
ATOM     17  C   UNL     1       9.852  11.750  20.396  0.00  0.00    +0.000 C 
ATOM     18  C   UNL     1      11.225  11.813  19.707  0.00  0.00    +0.000 C 
ATOM     19  C   UNL     1       9.157  10.440  20.005  0.00  0.00    +0.000 C 
ATOM     20  C   UNL     1       8.112  11.554  18.018  0.00  0.00    +0.000 C 
ENDBRANCH   7  11
BRANCH   1  24
ATOM     21  C   UNL     1       2.468   6.520  19.742  0.00  0.00    +0.000 A 
ATOM     22  C   UNL     1       3.302   5.470  20.162  0.00  0.00    +0.000 A 
ATOM     23  C   UNL     1       4.373   5.018  19.383  0.00  0.00    +0.000 A 
ATOM     24  C   UNL     1       4.635   5.590  18.137  0.00  0.00    +0.000 A 
ATOM     25  C   UNL     1       3.721   6.552  17.673  0.00  0.00    +0.000 A 
ATOM     26  C   UNL     1       2.653   7.032  18.452  0.00  0.00    +0.000 A 
BRANCH  26  27
ATOM     27  O   UNL     1       1.939   7.976  17.768  0.00  0.00    +0.000 OA
ATOM     28  C   UNL     1       2.375   9.321  17.759  0.00  0.00    +0.000 C 
ENDBRANCH  26  27
BRANCH  21  29
ATOM     29  O   UNL     1       1.490   7.037  20.555  0.00  0.00    +0.000 OA
BRANCH  29  31
ATOM     30  C   UNL     1       0.406   9.114  21.142  0.00  0.00    +0.000 C 
ATOM     31  C   UNL     1       1.724   8.374  21.022  0.00  0.00    +0.000 C 
ENDBRANCH  29  31
ENDBRANCH  21  29
ENDBRANCH   1  24
TORSDOF 5
ENDMDL
MODEL 8
REMARK VINA RESULT:      -7.9      0.928      1.879
REMARK  Name = 
REMARK  7 active torsions:
REMARK  status: ('A' for Active; 'I' for Inactive)
REMARK    1  A    between atoms: C_1  and  C_2
REMARK    2  A    between atoms: C_2  and  O_3
REMARK    3  A    between atoms: O_3  and  C_4
REMARK    4  A    between atoms: C_7  and  C_8
REMARK    5  A    between atoms: C_14  and  C_15
REMARK    6  A    between atoms: C_29  and  O_30
REMARK    7  A    between atoms: O_30  and  C_31
REMARK                            x       y       z     vdW  Elec       q    Type
REMARK                         _______ _______ _______ _____ _____    ______ ____
ROOT
ATOM      1  C   UNL     1       5.861   5.342  17.356  0.00  0.00    +0.000 C 
ATOM      2  C   UNL     1       6.997   4.818  18.232  0.00  0.00    +0.000 C 
ATOM      3  C   UNL     1       7.667   5.852  19.097  0.00  0.00    +0.000 C 
ATOM      4  O   UNL     1       8.071   5.621  20.235  0.00  0.00    +0.000 OA
ATOM      5  N   UNL     1       7.875   7.093  18.494  0.00  0.00    +0.000 N 
ATOM      6  N   UNL     1       8.550   8.078  19.126  0.00  0.00    +0.000 NA
ATOM      7  C   UNL     1       8.551   9.063  18.218  0.00  0.00    +0.000 A 
ATOM      8  N   UNL     1       7.909   8.756  17.045  0.00  0.00    +0.000 NA
ATOM      9  C   UNL     1       7.483   7.534  17.257  0.00  0.00    +0.000 A 
ATOM     10  S   UNL     1       6.575   6.552  16.170  0.00  0.00    +0.000 S 
ENDROOT
BRANCH   7  11
ATOM     11  C   UNL     1       9.206  10.388  18.522  0.00  0.00    +0.000 C 
ATOM     12  C   UNL     1       9.404  10.537  20.057  0.00  0.00    +0.000 C 
ATOM     13  C   UNL     1       9.985  11.915  20.409  0.00  0.00    +0.000 C 
ATOM     14  C   UNL     1      11.353  12.074  19.731  0.00  0.00    +0.000 C 
ATOM     15  C   UNL     1      11.199  11.948  18.206  0.00  0.00    +0.000 C 
ATOM     16  C   UNL     1      10.260  13.060  17.713  0.00  0.00    +0.000 C 
ATOM     17  C   UNL     1       8.882  12.913  18.375  0.00  0.00    +0.000 C 
ATOM     18  C   UNL     1       9.029  13.007  19.902  0.00  0.00    +0.000 C 
ATOM     19  C   UNL     1       8.295  11.542  18.013  0.00  0.00    +0.000 C 
ATOM     20  C   UNL     1      10.598  10.566  17.855  0.00  0.00    +0.000 C 
ENDBRANCH   7  11
BRANCH   1  24
ATOM     21  C   UNL     1       2.373   7.076  19.345  0.00  0.00    +0.000 A 
ATOM     22  C   UNL     1       2.997   5.930  19.867  0.00  0.00    +0.000 A 
ATOM     23  C   UNL     1       4.111   5.348  19.252  0.00  0.00    +0.000 A 
ATOM     24  C   UNL     1       4.629   5.881  18.070  0.00  0.00    +0.000 A 
ATOM     25  C   UNL     1       3.922   6.950  17.492  0.00  0.00    +0.000 A 
ATOM     26  C   UNL     1       2.815   7.560  18.108  0.00  0.00    +0.000 A 
BRANCH  26  27
ATOM     27  O   UNL     1       2.336   8.585  17.342  0.00  0.00    +0.000 OA
ATOM     28  C   UNL     1       1.972   9.810  17.949  0.00  0.00    +0.000 C 
ENDBRANCH  26  27
BRANCH  21  29
ATOM     29  O   UNL     1       1.354   7.711  20.010  0.00  0.00    +0.000 OA
BRANCH  29  31
ATOM     30  C   UNL     1       0.486   8.890  21.931  0.00  0.00    +0.000 C 
ATOM     31  C   UNL     1       1.663   8.132  21.347  0.00  0.00    +0.000 C 
ENDBRANCH  29  31
ENDBRANCH  21  29
ENDBRANCH   1  24
TORSDOF 5
ENDMDL
MODEL 9
REMARK VINA RESULT:      -7.8      4.929      8.282
REMARK  Name = 
REMARK  7 active torsions:
REMARK  status: ('A' for Active; 'I' for Inactive)
REMARK    1  A    between atoms: C_1  and  C_2
REMARK    2  A    between atoms: C_2  and  O_3
REMARK    3  A    between atoms: O_3  and  C_4
REMARK    4  A    between atoms: C_7  and  C_8
REMARK    5  A    between atoms: C_14  and  C_15
REMARK    6  A    between atoms: C_29  and  O_30
REMARK    7  A    between atoms: O_30  and  C_31
REMARK                            x       y       z     vdW  Elec       q    Type
REMARK                         _______ _______ _______ _____ _____    ______ ____
ROOT
ATOM      1  C   UNL     1      -0.040  11.140  19.567  0.00  0.00    +0.000 C 
ATOM      2  C   UNL     1      -0.192  10.243  20.792  0.00  0.00    +0.000 C 
ATOM      3  C   UNL     1       0.924   9.255  21.005  0.00  0.00    +0.000 C 
ATOM      4  O   UNL     1       1.348   8.945  22.117  0.00  0.00    +0.000 OA
ATOM      5  N   UNL     1       1.410   8.643  19.849  0.00  0.00    +0.000 N 
ATOM      6  N   UNL     1       2.344   7.669  19.909  0.00  0.00    +0.000 NA
ATOM      7  C   UNL     1       2.508   7.340  18.620  0.00  0.00    +0.000 A 
ATOM      8  N   UNL     1       1.730   8.057  17.747  0.00  0.00    +0.000 NA
ATOM      9  C   UNL     1       1.076   8.872  18.540  0.00  0.00    +0.000 A 
ATOM     10  S   UNL     1      -0.074  10.067  18.074  0.00  0.00    +0.000 S 
ENDROOT
BRANCH   7  11
ATOM     11  C   UNL     1       3.496   6.272  18.219  0.00  0.00    +0.000 C 
ATOM     12  C   UNL     1       2.735   5.029  17.678  0.00  0.00    +0.000 C 
ATOM     13  C   UNL     1       3.706   3.886  17.346  0.00  0.00    +0.000 C 
ATOM     14  C   UNL     1       4.688   4.357  16.264  0.00  0.00    +0.000 C 
ATOM     15  C   UNL     1       5.474   5.580  16.765  0.00  0.00    +0.000 C 
ATOM     16  C   UNL     1       6.263   5.175  18.020  0.00  0.00    +0.000 C 
ATOM     17  C   UNL     1       5.297   4.709  19.118  0.00  0.00    +0.000 C 
ATOM     18  C   UNL     1       4.484   3.505  18.616  0.00  0.00    +0.000 C 
ATOM     19  C   UNL     1       4.335   5.854  19.460  0.00  0.00    +0.000 C 
ATOM     20  C   UNL     1       4.492   6.723  17.115  0.00  0.00    +0.000 C 
ENDBRANCH   7  11
BRANCH   1  24
ATOM     21  C   UNL     1       3.224  14.050  19.670  0.00  0.00    +0.000 A 
ATOM     22  C   UNL     1       3.025  13.239  18.539  0.00  0.00    +0.000 A 
ATOM     23  C   UNL     1       1.994  12.295  18.477  0.00  0.00    +0.000 A 
ATOM     24  C   UNL     1       1.134  12.111  19.561  0.00  0.00    +0.000 A 
ATOM     25  C   UNL     1       1.419  12.838  20.730  0.00  0.00    +0.000 A 
ATOM     26  C   UNL     1       2.437  13.805  20.802  0.00  0.00    +0.000 A 
BRANCH  26  27
ATOM     27  O   UNL     1       2.481  14.374  22.044  0.00  0.00    +0.000 OA
ATOM     28  C   UNL     1       1.895  15.643  22.260  0.00  0.00    +0.000 C 
ENDBRANCH  26  27
BRANCH  21  29
ATOM     29  O   UNL     1       4.162  15.052  19.685  0.00  0.00    +0.000 OA
BRANCH  29  31
ATOM     30  C   UNL     1       2.923  16.827  18.613  0.00  0.00    +0.000 C 
ATOM     31  C   UNL     1       4.143  15.927  18.548  0.00  0.00    +0.000 C 
ENDBRANCH  29  31
ENDBRANCH  21  29
ENDBRANCH   1  24
TORSDOF 5
ENDMDL
