MODEL 1
REMARK VINA RESULT:      -6.6      0.000      0.000
REMARK  Name = 
REMARK  4 active torsions:
REMARK  status: ('A' for Active; 'I' for Inactive)
REMARK    1  A    between atoms: C_1  and  C_2
REMARK    2  A    between atoms: C_6  and  C_7
REMARK    3  A    between atoms: N_10  and  C_11
REMARK    4  A    between atoms: C_11  and  C_12
REMARK                            x       y       z     vdW  Elec       q    Type
REMARK                         _______ _______ _______ _____ _____    ______ ____
ROOT
ATOM      1  C   UNL     1       5.982   4.874  15.793  0.00  0.00    +0.000 C 
ATOM      2  C   UNL     1       4.729   4.042  16.056  0.00  0.00    +0.000 C 
ATOM      3  C   UNL     1       4.130   4.470  17.393  0.00  0.00    +0.000 C 
ATOM      4  N   UNL     1       5.074   4.368  18.523  0.00  0.00    +0.000 NA
ATOM      5  C   UNL     1       6.389   4.979  18.240  0.00  0.00    +0.000 C 
ATOM      6  C   UNL     1       6.992   4.558  16.893  0.00  0.00    +0.000 C 
ENDROOT
BRANCH   1  12
ATOM      7  C   UNL     1       5.705   2.439  11.615  0.00  0.00    +0.000 C 
ATOM      8  C   UNL     1       6.352   3.529  12.406  0.00  0.00    +0.000 A 
ATOM      9  C   UNL     1       7.395   4.287  11.897  0.00  0.00    +0.000 A 
ATOM     10  N   UNL     1       7.992   5.281  12.598  0.00  0.00    +0.000 NA
ATOM     11  C   UNL     1       7.510   5.484  13.848  0.00  0.00    +0.000 A 
ATOM     12  C   UNL     1       6.469   4.734  14.379  0.00  0.00    +0.000 A 
ATOM     13  N   UNL     1       5.875   3.750  13.652  0.00  0.00    +0.000 NA
ENDBRANCH   1  12
BRANCH   4  14
ATOM     14  C   UNL     1       4.509   5.014  19.732  0.00  0.00    +0.000 C 
BRANCH  14  15
ATOM     15  C   UNL     1       3.203   4.382  20.129  0.00  0.00    +0.000 A 
ATOM     16  C   UNL     1       1.923   5.019  20.036  0.00  0.00    +0.000 A 
ATOM     17  C   UNL     1       0.903   4.236  20.524  0.00  0.00    +0.000 A 
ATOM     18  S   UNL     1       1.464   2.714  21.061  0.00  0.00    +0.000 S 
ATOM     19  C   UNL     1       3.080   3.106  20.652  0.00  0.00    +0.000 A 
ENDBRANCH  14  15
ENDBRANCH   4  14
TORSDOF 3
ENDMDL
MODEL 2
REMARK VINA RESULT:      -6.6      0.714      1.146
REMARK  Name = 
REMARK  4 active torsions:
REMARK  status: ('A' for Active; 'I' for Inactive)
REMARK    1  A    between atoms: C_1  and  C_2
REMARK    2  A    between atoms: C_6  and  C_7
REMARK    3  A    between atoms: N_10  and  C_11
REMARK    4  A    between atoms: C_11  and  C_12
REMARK                            x       y       z     vdW  Elec       q    Type
REMARK                         _______ _______ _______ _____ _____    ______ ____
ROOT
ATOM      1  C   UNL     1       5.783   4.741  15.791  0.00  0.00    +0.000 C 
ATOM      2  C   UNL     1       5.406   6.171  16.170  0.00  0.00    +0.000 C 
ATOM      3  C   UNL     1       5.161   6.230  17.675  0.00  0.00    +0.000 C 
ATOM      4  N   UNL     1       4.138   5.274  18.144  0.00  0.00    +0.000 NA
ATOM      5  C   UNL     1       4.339   3.905  17.629  0.00  0.00    +0.000 C 
ATOM      6  C   UNL     1       4.594   3.842  16.117  0.00  0.00    +0.000 C 
ENDROOT
BRANCH   1  12
ATOM      7  C   UNL     1       5.736   2.396  11.553  0.00  0.00    +0.000 C 
ATOM      8  C   UNL     1       6.318   3.486  12.390  0.00  0.00    +0.000 A 
ATOM      9  C   UNL     1       7.355   4.288  11.938  0.00  0.00    +0.000 A 
ATOM     10  N   UNL     1       7.895   5.283  12.682  0.00  0.00    +0.000 NA
ATOM     11  C   UNL     1       7.361   5.442  13.917  0.00  0.00    +0.000 A 
ATOM     12  C   UNL     1       6.326   4.649  14.393  0.00  0.00    +0.000 A 
ATOM     13  N   UNL     1       5.790   3.664  13.623  0.00  0.00    +0.000 NA
ENDBRANCH   1  12
BRANCH   4  14
ATOM     14  C   UNL     1       4.120   5.219  19.626  0.00  0.00    +0.000 C 
BRANCH  14  15
ATOM     15  C   UNL     1       2.958   4.405  20.128  0.00  0.00    +0.000 A 
ATOM     16  C   UNL     1       1.585   4.651  19.805  0.00  0.00    +0.000 A 
ATOM     17  C   UNL     1       0.724   3.793  20.449  0.00  0.00    +0.000 A 
ATOM     18  S   UNL     1       1.557   2.657  21.416  0.00  0.00    +0.000 S 
ATOM     19  C   UNL     1       3.075   3.322  20.983  0.00  0.00    +0.000 A 
ENDBRANCH  14  15
ENDBRANCH   4  14
TORSDOF 3
ENDMDL
MODEL 3
REMARK VINA RESULT:      -6.5      1.105      1.386
REMARK  Name = 
REMARK  4 active torsions:
REMARK  status: ('A' for Active; 'I' for Inactive)
REMARK    1  A    between atoms: C_1  and  C_2
REMARK    2  A    between atoms: C_6  and  C_7
REMARK    3  A    between atoms: N_10  and  C_11
REMARK    4  A    between atoms: C_11  and  C_12
REMARK                            x       y       z     vdW  Elec       q    Type
REMARK                         _______ _______ _______ _____ _____    ______ ____
ROOT
ATOM      1  C   UNL     1       5.542   4.930  15.734  0.00  0.00    +0.000 C 
ATOM      2  C   UNL     1       6.440   4.441  16.868  0.00  0.00    +0.000 C 
ATOM      3  C   UNL     1       5.620   4.388  18.154  0.00  0.00    +0.000 C 
ATOM      4  N   UNL     1       4.987   5.676  18.504  0.00  0.00    +0.000 NA
ATOM      5  C   UNL     1       4.275   6.302  17.371  0.00  0.00    +0.000 C 
ATOM      6  C   UNL     1       5.093   6.349  16.074  0.00  0.00    +0.000 C 
ENDROOT
BRANCH   1  12
ATOM      7  C   UNL     1       5.577   2.438  11.581  0.00  0.00    +0.000 C 
ATOM      8  C   UNL     1       6.199   3.501  12.426  0.00  0.00    +0.000 A 
ATOM      9  C   UNL     1       7.337   4.185  12.028  0.00  0.00    +0.000 A 
ATOM     10  N   UNL     1       7.915   5.154  12.780  0.00  0.00    +0.000 NA
ATOM     11  C   UNL     1       7.311   5.409  13.965  0.00  0.00    +0.000 A 
ATOM     12  C   UNL     1       6.173   4.734  14.386  0.00  0.00    +0.000 A 
ATOM     13  N   UNL     1       5.603   3.775  13.609  0.00  0.00    +0.000 NA
ENDBRANCH   1  12
BRANCH   4  14
ATOM     14  C   UNL     1       4.027   5.497  19.619  0.00  0.00    +0.000 C 
BRANCH  14  15
ATOM     15  C   UNL     1       3.050   4.390  19.326  0.00  0.00    +0.000 A 
ATOM     16  C   UNL     1       1.960   4.483  18.402  0.00  0.00    +0.000 A 
ATOM     17  C   UNL     1       1.188   3.346  18.374  0.00  0.00    +0.000 A 
ATOM     18  S   UNL     1       1.786   2.139  19.425  0.00  0.00    +0.000 S 
ATOM     19  C   UNL     1       3.076   3.144  19.931  0.00  0.00    +0.000 A 
ENDBRANCH  14  15
ENDBRANCH   4  14
TORSDOF 3
ENDMDL
MODEL 4
REMARK VINA RESULT:      -6.5      1.538      2.145
REMARK  Name = 
REMARK  4 active torsions:
REMARK  status: ('A' for Active; 'I' for Inactive)
REMARK    1  A    between atoms: C_1  and  C_2
REMARK    2  A    between atoms: C_6  and  C_7
REMARK    3  A    between atoms: N_10  and  C_11
REMARK    4  A    between atoms: C_11  and  C_12
REMARK                            x       y       z     vdW  Elec       q    Type
REMARK                         _______ _______ _______ _____ _____    ______ ____
ROOT
ATOM      1  C   UNL     1       4.750   5.435  16.779  0.00  0.00    +0.000 C 
ATOM      2  C   UNL     1       5.368   4.992  18.103  0.00  0.00    +0.000 C 
ATOM      3  C   UNL     1       4.273   4.947  19.164  0.00  0.00    +0.000 C 
ATOM      4  N   UNL     1       3.552   6.226  19.323  0.00  0.00    +0.000 NA
ATOM      5  C   UNL     1       3.111   6.810  18.039  0.00  0.00    +0.000 C 
ATOM      6  C   UNL     1       4.208   6.850  16.967  0.00  0.00    +0.000 C 
ENDROOT
BRANCH   1  12
ATOM      7  C   UNL     1       5.530   3.246  12.529  0.00  0.00    +0.000 C 
ATOM      8  C   UNL     1       6.050   4.135  13.610  0.00  0.00    +0.000 A 
ATOM      9  C   UNL     1       7.338   4.646  13.586  0.00  0.00    +0.000 A 
ATOM     10  N   UNL     1       7.828   5.456  14.557  0.00  0.00    +0.000 NA
ATOM     11  C   UNL     1       6.974   5.730  15.572  0.00  0.00    +0.000 A 
ATOM     12  C   UNL     1       5.681   5.226  15.620  0.00  0.00    +0.000 A 
ATOM     13  N   UNL     1       5.207   4.426  14.627  0.00  0.00    +0.000 NA
ENDBRANCH   1  12
BRANCH   4  14
ATOM     14  C   UNL     1       2.361   6.047  20.188  0.00  0.00    +0.000 C 
BRANCH  14  15
ATOM     15  C   UNL     1       1.875   4.624  20.161  0.00  0.00    +0.000 A 
ATOM     16  C   UNL     1       1.906   3.725  21.276  0.00  0.00    +0.000 A 
ATOM     17  C   UNL     1       1.456   2.465  20.957  0.00  0.00    +0.000 A 
ATOM     18  S   UNL     1       0.954   2.357  19.327  0.00  0.00    +0.000 S 
ATOM     19  C   UNL     1       1.351   3.998  19.041  0.00  0.00    +0.000 A 
ENDBRANCH  14  15
ENDBRANCH   4  14
TORSDOF 3
ENDMDL
MODEL 5
REMARK VINA RESULT:      -6.3      1.139      1.982
REMARK  Name = 
REMARK  4 active torsions:
REMARK  status: ('A' for Active; 'I' for Inactive)
REMARK    1  A    between atoms: C_1  and  C_2
REMARK    2  A    between atoms: C_6  and  C_7
REMARK    3  A    between atoms: N_10  and  C_11
REMARK    4  A    between atoms: C_11  and  C_12
REMARK                            x       y       z     vdW  Elec       q    Type
REMARK                         _______ _______ _______ _____ _____    ______ ____
ROOT
ATOM      1  C   UNL     1       5.784   4.716  15.842  0.00  0.00    +0.000 C 
ATOM      2  C   UNL     1       5.263   6.135  16.058  0.00  0.00    +0.000 C 
ATOM      3  C   UNL     1       4.955   6.322  17.541  0.00  0.00    +0.000 C 
ATOM      4  N   UNL     1       4.004   5.327  18.076  0.00  0.00    +0.000 NA
ATOM      5  C   UNL     1       4.350   3.937  17.713  0.00  0.00    +0.000 C 
ATOM      6  C   UNL     1       4.669   3.746  16.224  0.00  0.00    +0.000 C 
ENDROOT
BRANCH   1  12
ATOM      7  C   UNL     1       9.101   6.186  12.632  0.00  0.00    +0.000 C 
ATOM      8  C   UNL     1       7.953   5.283  12.944  0.00  0.00    +0.000 A 
ATOM      9  C   UNL     1       7.425   4.412  12.003  0.00  0.00    +0.000 A 
ATOM     10  N   UNL     1       6.385   3.584  12.268  0.00  0.00    +0.000 NA
ATOM     11  C   UNL     1       5.879   3.668  13.522  0.00  0.00    +0.000 A 
ATOM     12  C   UNL     1       6.388   4.535  14.479  0.00  0.00    +0.000 A 
ATOM     13  N   UNL     1       7.441   5.348  14.195  0.00  0.00    +0.000 NA
ENDBRANCH   1  12
BRANCH   4  14
ATOM     14  C   UNL     1       3.932   5.420  19.554  0.00  0.00    +0.000 C 
BRANCH  14  15
ATOM     15  C   UNL     1       2.874   4.506  20.108  0.00  0.00    +0.000 A 
ATOM     16  C   UNL     1       1.478   4.584  19.794  0.00  0.00    +0.000 A 
ATOM     17  C   UNL     1       0.725   3.666  20.487  0.00  0.00    +0.000 A 
ATOM     18  S   UNL     1       1.687   2.674  21.492  0.00  0.00    +0.000 S 
ATOM     19  C   UNL     1       3.118   3.482  21.009  0.00  0.00    +0.000 A 
ENDBRANCH  14  15
ENDBRANCH   4  14
TORSDOF 3
ENDMDL
MODEL 6
REMARK VINA RESULT:      -6.3      5.126      7.211
REMARK  Name = 
REMARK  4 active torsions:
REMARK  status: ('A' for Active; 'I' for Inactive)
REMARK    1  A    between atoms: C_1  and  C_2
REMARK    2  A    between atoms: C_6  and  C_7
REMARK    3  A    between atoms: N_10  and  C_11
REMARK    4  A    between atoms: C_11  and  C_12
REMARK                            x       y       z     vdW  Elec       q    Type
REMARK                         _______ _______ _______ _____ _____    ______ ____
ROOT
ATOM      1  C   UNL     1       2.833   6.837  19.354  0.00  0.00    +0.000 C 
ATOM      2  C   UNL     1       2.339   7.344  18.002  0.00  0.00    +0.000 C 
ATOM      3  C   UNL     1       2.054   8.839  18.113  0.00  0.00    +0.000 C 
ATOM      4  N   UNL     1       1.093   9.177  19.183  0.00  0.00    +0.000 NA
ATOM      5  C   UNL     1       1.409   8.535  20.475  0.00  0.00    +0.000 C 
ATOM      6  C   UNL     1       1.706   7.034  20.365  0.00  0.00    +0.000 C 
ENDROOT
BRANCH   1  12
ATOM      7  C   UNL     1       1.995   2.069  19.203  0.00  0.00    +0.000 C 
ATOM      8  C   UNL     1       2.993   3.179  19.237  0.00  0.00    +0.000 A 
ATOM      9  C   UNL     1       4.357   2.940  19.283  0.00  0.00    +0.000 A 
ATOM     10  N   UNL     1       5.279   3.934  19.312  0.00  0.00    +0.000 NA
ATOM     11  C   UNL     1       4.778   5.193  19.306  0.00  0.00    +0.000 A 
ATOM     12  C   UNL     1       3.415   5.456  19.265  0.00  0.00    +0.000 A 
ATOM     13  N   UNL     1       2.509   4.442  19.222  0.00  0.00    +0.000 NA
ENDBRANCH   1  12
BRANCH   4  14
ATOM     14  C   UNL     1       1.043  10.645  19.389  0.00  0.00    +0.000 C 
BRANCH  14  15
ATOM     15  C   UNL     1      -0.374  11.152  19.361  0.00  0.00    +0.000 A 
ATOM     16  C   UNL     1      -1.351  10.798  18.375  0.00  0.00    +0.000 A 
ATOM     17  C   UNL     1      -2.547  11.453  18.552  0.00  0.00    +0.000 A 
ATOM     18  S   UNL     1      -2.524  12.469  19.926  0.00  0.00    +0.000 S 
ATOM     19  C   UNL     1      -0.904  12.042  20.280  0.00  0.00    +0.000 A 
ENDBRANCH  14  15
ENDBRANCH   4  14
TORSDOF 3
ENDMDL
MODEL 7
REMARK VINA RESULT:      -6.3      0.847      1.619
REMARK  Name = 
REMARK  4 active torsions:
REMARK  status: ('A' for Active; 'I' for Inactive)
REMARK    1  A    between atoms: C_1  and  C_2
REMARK    2  A    between atoms: C_6  and  C_7
REMARK    3  A    between atoms: N_10  and  C_11
REMARK    4  A    between atoms: C_11  and  C_12
REMARK                            x       y       z     vdW  Elec       q    Type
REMARK                         _______ _______ _______ _____ _____    ______ ____
ROOT
ATOM      1  C   UNL     1       5.896   4.824  15.855  0.00  0.00    +0.000 C 
ATOM      2  C   UNL     1       4.772   3.849  16.195  0.00  0.00    +0.000 C 
ATOM      3  C   UNL     1       4.067   4.333  17.458  0.00  0.00    +0.000 C 
ATOM      4  N   UNL     1       4.976   4.508  18.610  0.00  0.00    +0.000 NA
ATOM      5  C   UNL     1       6.195   5.274  18.279  0.00  0.00    +0.000 C 
ATOM      6  C   UNL     1       6.901   4.795  17.004  0.00  0.00    +0.000 C 
ENDROOT
BRANCH   1  12
ATOM      7  C   UNL     1       9.083   6.188  12.472  0.00  0.00    +0.000 C 
ATOM      8  C   UNL     1       7.951   5.293  12.859  0.00  0.00    +0.000 A 
ATOM      9  C   UNL     1       7.393   4.387  11.971  0.00  0.00    +0.000 A 
ATOM     10  N   UNL     1       6.368   3.565  12.305  0.00  0.00    +0.000 NA
ATOM     11  C   UNL     1       5.908   3.693  13.573  0.00  0.00    +0.000 A 
ATOM     12  C   UNL     1       6.449   4.596  14.478  0.00  0.00    +0.000 A 
ATOM     13  N   UNL     1       7.487   5.401  14.125  0.00  0.00    +0.000 NA
ENDBRANCH   1  12
BRANCH   4  14
ATOM     14  C   UNL     1       4.277   5.198  19.722  0.00  0.00    +0.000 C 
BRANCH  14  15
ATOM     15  C   UNL     1       3.049   4.441  20.147  0.00  0.00    +0.000 A 
ATOM     16  C   UNL     1       1.703   4.896  19.966  0.00  0.00    +0.000 A 
ATOM     17  C   UNL     1       0.774   4.036  20.503  0.00  0.00    +0.000 A 
ATOM     18  S   UNL     1       1.504   2.655  21.196  0.00  0.00    +0.000 S 
ATOM     19  C   UNL     1       3.070   3.213  20.787  0.00  0.00    +0.000 A 
ENDBRANCH  14  15
ENDBRANCH   4  14
TORSDOF 3
ENDMDL
MODEL 8
REMARK VINA RESULT:      -6.2      1.356      2.084
REMARK  Name = 
REMARK  4 active torsions:
REMARK  status: ('A' for Active; 'I' for Inactive)
REMARK    1  A    between atoms: C_1  and  C_2
REMARK    2  A    between atoms: C_6  and  C_7
REMARK    3  A    between atoms: N_10  and  C_11
REMARK    4  A    between atoms: C_11  and  C_12
REMARK                            x       y       z     vdW  Elec       q    Type
REMARK                         _______ _______ _______ _____ _____    ______ ____
ROOT
ATOM      1  C   UNL     1       5.459   4.855  15.751  0.00  0.00    +0.000 C 
ATOM      2  C   UNL     1       6.268   4.323  16.931  0.00  0.00    +0.000 C 
ATOM      3  C   UNL     1       5.398   4.374  18.184  0.00  0.00    +0.000 C 
ATOM      4  N   UNL     1       4.866   5.720  18.478  0.00  0.00    +0.000 NA
ATOM      5  C   UNL     1       4.253   6.373  17.304  0.00  0.00    +0.000 C 
ATOM      6  C   UNL     1       5.121   6.316  16.039  0.00  0.00    +0.000 C 
ENDROOT
BRANCH   1  12
ATOM      7  C   UNL     1       8.920   6.072  12.590  0.00  0.00    +0.000 C 
ATOM      8  C   UNL     1       7.755   5.197  12.918  0.00  0.00    +0.000 A 
ATOM      9  C   UNL     1       7.265   4.259  12.023  0.00  0.00    +0.000 A 
ATOM     10  N   UNL     1       6.210   3.455  12.304  0.00  0.00    +0.000 NA
ATOM     11  C   UNL     1       5.649   3.634  13.524  0.00  0.00    +0.000 A 
ATOM     12  C   UNL     1       6.121   4.570  14.434  0.00  0.00    +0.000 A 
ATOM     13  N   UNL     1       7.189   5.357  14.136  0.00  0.00    +0.000 NA
ENDBRANCH   1  12
BRANCH   4  14
ATOM     14  C   UNL     1       3.852   5.652  19.558  0.00  0.00    +0.000 C 
BRANCH  14  15
ATOM     15  C   UNL     1       2.919   4.489  19.359  0.00  0.00    +0.000 A 
ATOM     16  C   UNL     1       1.867   4.439  18.388  0.00  0.00    +0.000 A 
ATOM     17  C   UNL     1       1.128   3.283  18.463  0.00  0.00    +0.000 A 
ATOM     18  S   UNL     1       1.711   2.227  19.673  0.00  0.00    +0.000 S 
ATOM     19  C   UNL     1       2.951   3.325  20.108  0.00  0.00    +0.000 A 
ENDBRANCH  14  15
ENDBRANCH   4  14
TORSDOF 3
ENDMDL
MODEL 9
REMARK VINA RESULT:      -6.2      4.038      8.064
REMARK  Name = 
REMARK  4 active torsions:
REMARK  status: ('A' for Active; 'I' for Inactive)
REMARK    1  A    between atoms: C_1  and  C_2
REMARK    2  A    between atoms: C_6  and  C_7
REMARK    3  A    between atoms: N_10  and  C_11
REMARK    4  A    between atoms: C_11  and  C_12
REMARK                            x       y       z     vdW  Elec       q    Type
REMARK                         _______ _______ _______ _____ _____    ______ ____
ROOT
ATOM      1  C   UNL     1       2.273   7.226  19.720  0.00  0.00    +0.000 C 
ATOM      2  C   UNL     1       1.824   5.973  20.468  0.00  0.00    +0.000 C 
ATOM      3  C   UNL     1       2.840   4.863  20.217  0.00  0.00    +0.000 C 
ATOM      4  N   UNL     1       3.052   4.571  18.785  0.00  0.00    +0.000 NA
ATOM      5  C   UNL     1       3.284   5.782  17.971  0.00  0.00    +0.000 C 
ATOM      6  C   UNL     1       2.269   6.904  18.228  0.00  0.00    +0.000 C 
ENDROOT
BRANCH   1  12
ATOM      7  C   UNL     1      -0.113   9.508  23.264  0.00  0.00    +0.000 C 
ATOM      8  C   UNL     1       0.331   9.499  21.838  0.00  0.00    +0.000 A 
ATOM      9  C   UNL     1      -0.030  10.498  20.948  0.00  0.00    +0.000 A 
ATOM     10  N   UNL     1       0.365  10.508  19.652  0.00  0.00    +0.000 NA
ATOM     11  C   UNL     1       1.134   9.460  19.269  0.00  0.00    +0.000 A 
ATOM     12  C   UNL     1       1.504   8.445  20.142  0.00  0.00    +0.000 A 
ATOM     13  N   UNL     1       1.107   8.463  21.442  0.00  0.00    +0.000 NA
ENDBRANCH   1  12
BRANCH   4  14
ATOM     14  C   UNL     1       4.208   3.660  18.607  0.00  0.00    +0.000 C 
BRANCH  14  15
ATOM     15  C   UNL     1       5.473   4.428  18.335  0.00  0.00    +0.000 A 
ATOM     16  C   UNL     1       6.152   4.469  17.075  0.00  0.00    +0.000 A 
ATOM     17  C   UNL     1       7.317   5.198  17.122  0.00  0.00    +0.000 A 
ATOM     18  S   UNL     1       7.588   5.875  18.667  0.00  0.00    +0.000 S 
ATOM     19  C   UNL     1       6.148   5.181  19.281  0.00  0.00    +0.000 A 
ENDBRANCH  14  15
ENDBRANCH   4  14
TORSDOF 3
ENDMDL
