MODEL 1
REMARK VINA RESULT:      -7.4      0.000      0.000
REMARK  Name = 
REMARK  4 active torsions:
REMARK  status: ('A' for Active; 'I' for Inactive)
REMARK    1  A    between atoms: C_1  and  C_2
REMARK    2  A    between atoms: C_4  and  C_5
REMARK    3  A    between atoms: N_8  and  C_9
REMARK    4  A    between atoms: C_10  and  C_11
REMARK                            x       y       z     vdW  Elec       q    Type
REMARK                         _______ _______ _______ _____ _____    ______ ____
ROOT
ATOM      1  C   UNL     1      -3.854  13.037  24.051  0.00  0.00    +0.000 C 
ATOM      2  C   UNL     1      -3.389  13.010  22.645  0.00  0.00    +0.000 A 
ATOM      3  N   UNL     1      -2.207  13.384  22.208  0.00  0.00    +0.000 NA
ATOM      4  C   UNL     1      -2.228  13.174  20.849  0.00  0.00    +0.000 A 
ATOM      5  C   UNL     1      -3.432  12.620  20.460  0.00  0.00    +0.000 A 
ATOM      6  C   UNL     1      -4.045  12.153  19.250  0.00  0.00    +0.000 A 
ATOM      7  N   UNL     1      -3.366  12.035  18.041  0.00  0.00    +0.000 N 
ATOM      8  C   UNL     1      -4.081  11.523  16.895  0.00  0.00    +0.000 C 
ATOM      9  C   UNL     1      -3.043  10.415  16.733  0.00  0.00    +0.000 C 
ATOM     10  F   UNL     1      -2.325  10.443  15.585  0.00  0.00    +0.000 F 
ATOM     11  F   UNL     1      -3.506   9.148  16.863  0.00  0.00    +0.000 F 
ATOM     12  C   UNL     1      -2.360  11.001  17.969  0.00  0.00    +0.000 C 
ATOM     13  N   UNL     1      -5.311  11.850  19.322  0.00  0.00    +0.000 NA
ATOM     14  C   UNL     1      -5.985  11.944  20.512  0.00  0.00    +0.000 A 
ATOM     15  N   UNL     1      -5.485  12.264  21.661  0.00  0.00    +0.000 NA
ATOM     16  N   UNL     1      -4.184  12.597  21.604  0.00  0.00    +0.000 N 
ENDROOT
BRANCH   4  17
ATOM     17  C   UNL     1      -1.057  13.594  20.078  0.00  0.00    +0.000 A 
ATOM     18  C   UNL     1      -0.891  14.898  19.584  0.00  0.00    +0.000 A 
ATOM     19  N   UNL     1       0.276  15.063  18.973  0.00  0.00    +0.000 NA
ATOM     20  N   UNL     1       0.901  13.879  19.144  0.00  0.00    +0.000 N 
ATOM     21  C   UNL     1       2.261  13.795  18.659  0.00  0.00    +0.000 C 
ATOM     22  C   UNL     1       0.133  12.916  19.786  0.00  0.00    +0.000 A 
BRANCH  22  23
ATOM     23  C   UNL     1       0.548  11.527  20.103  0.00  0.00    +0.000 A 
ATOM     24  C   UNL     1       0.471  10.987  21.397  0.00  0.00    +0.000 A 
ATOM     25  C   UNL     1       0.777   9.643  21.652  0.00  0.00    +0.000 A 
ATOM     26  C   UNL     1       1.132   8.800  20.606  0.00  0.00    +0.000 A 
ATOM     27 CL   UNL     1       1.420   7.131  20.905  0.00  0.00    +0.000 Cl
ATOM     28  C   UNL     1       1.233   9.305  19.317  0.00  0.00    +0.000 A 
ATOM     29  C   UNL     1       0.969  10.660  19.078  0.00  0.00    +0.000 A 
ENDBRANCH  22  23
ENDBRANCH   4  17
TORSDOF 2
ENDMDL
MODEL 2
REMARK VINA RESULT:      -7.2      0.691      1.143
REMARK  Name = 
REMARK  4 active torsions:
REMARK  status: ('A' for Active; 'I' for Inactive)
REMARK    1  A    between atoms: C_1  and  C_2
REMARK    2  A    between atoms: C_4  and  C_5
REMARK    3  A    between atoms: N_8  and  C_9
REMARK    4  A    between atoms: C_10  and  C_11
REMARK                            x       y       z     vdW  Elec       q    Type
REMARK                         _______ _______ _______ _____ _____    ______ ____
ROOT
ATOM      1  C   UNL     1      -3.160  12.855  23.841  0.00  0.00    +0.000 C 
ATOM      2  C   UNL     1      -2.765  12.793  22.414  0.00  0.00    +0.000 A 
ATOM      3  N   UNL     1      -1.561  13.006  21.930  0.00  0.00    +0.000 NA
ATOM      4  C   UNL     1      -1.671  12.829  20.570  0.00  0.00    +0.000 A 
ATOM      5  C   UNL     1      -2.956  12.458  20.229  0.00  0.00    +0.000 A 
ATOM      6  C   UNL     1      -3.681  12.107  19.041  0.00  0.00    +0.000 A 
ATOM      7  N   UNL     1      -3.078  11.919  17.801  0.00  0.00    +0.000 N 
ATOM      8  C   UNL     1      -3.907  11.537  16.682  0.00  0.00    +0.000 C 
ATOM      9  C   UNL     1      -3.044  10.298  16.456  0.00  0.00    +0.000 C 
ATOM     10  F   UNL     1      -2.379  10.248  15.277  0.00  0.00    +0.000 F 
ATOM     11  F   UNL     1      -3.674   9.105  16.589  0.00  0.00    +0.000 F 
ATOM     12  C   UNL     1      -2.232  10.756  17.668  0.00  0.00    +0.000 C 
ATOM     13  N   UNL     1      -4.973  11.982  19.167  0.00  0.00    +0.000 NA
ATOM     14  C   UNL     1      -5.575  12.145  20.387  0.00  0.00    +0.000 A 
ATOM     15  N   UNL     1      -4.985  12.368  21.517  0.00  0.00    +0.000 NA
ATOM     16  N   UNL     1      -3.654  12.516  21.405  0.00  0.00    +0.000 N 
ENDROOT
BRANCH   4  17
ATOM     17  C   UNL     1      -0.487  13.097  19.752  0.00  0.00    +0.000 A 
ATOM     18  C   UNL     1      -0.167  14.373  19.261  0.00  0.00    +0.000 A 
ATOM     19  N   UNL     1       0.986  14.387  18.601  0.00  0.00    +0.000 NA
ATOM     20  N   UNL     1       1.452  13.126  18.737  0.00  0.00    +0.000 N 
ATOM     21  C   UNL     1       2.766  12.866  18.194  0.00  0.00    +0.000 C 
ATOM     22  C   UNL     1       0.587  12.269  19.405  0.00  0.00    +0.000 A 
BRANCH  22  23
ATOM     23  C   UNL     1       0.824  10.832  19.695  0.00  0.00    +0.000 A 
ATOM     24  C   UNL     1       1.139   9.897  18.696  0.00  0.00    +0.000 A 
ATOM     25  C   UNL     1       1.454   8.567  19.008  0.00  0.00    +0.000 A 
ATOM     26  C   UNL     1       1.496   8.155  20.334  0.00  0.00    +0.000 A 
ATOM     27 CL   UNL     1       1.969   6.547  20.721  0.00  0.00    +0.000 Cl
ATOM     28  C   UNL     1       1.175   9.049  21.345  0.00  0.00    +0.000 A 
ATOM     29  C   UNL     1       0.818  10.365  21.023  0.00  0.00    +0.000 A 
ENDBRANCH  22  23
ENDBRANCH   4  17
TORSDOF 2
ENDMDL
MODEL 3
REMARK VINA RESULT:      -7.0      1.707      2.420
REMARK  Name = 
REMARK  4 active torsions:
REMARK  status: ('A' for Active; 'I' for Inactive)
REMARK    1  A    between atoms: C_1  and  C_2
REMARK    2  A    between atoms: C_4  and  C_5
REMARK    3  A    between atoms: N_8  and  C_9
REMARK    4  A    between atoms: C_10  and  C_11
REMARK                            x       y       z     vdW  Elec       q    Type
REMARK                         _______ _______ _______ _____ _____    ______ ____
ROOT
ATOM      1  C   UNL     1      -6.739  12.523  24.198  0.00  0.00    +0.000 C 
ATOM      2  C   UNL     1      -5.971  12.763  22.954  0.00  0.00    +0.000 A 
ATOM      3  N   UNL     1      -4.887  13.498  22.837  0.00  0.00    +0.000 NA
ATOM      4  C   UNL     1      -4.526  13.420  21.511  0.00  0.00    +0.000 A 
ATOM      5  C   UNL     1      -5.383  12.585  20.821  0.00  0.00    +0.000 A 
ATOM      6  C   UNL     1      -5.526  12.079  19.486  0.00  0.00    +0.000 A 
ATOM      7  N   UNL     1      -4.580  12.274  18.485  0.00  0.00    +0.000 N 
ATOM      8  C   UNL     1      -4.820  11.691  17.186  0.00  0.00    +0.000 C 
ATOM      9  C   UNL     1      -3.490  10.945  17.267  0.00  0.00    +0.000 C 
ATOM     10  F   UNL     1      -2.565  11.285  16.337  0.00  0.00    +0.000 F 
ATOM     11  F   UNL     1      -3.568   9.592  17.250  0.00  0.00    +0.000 F 
ATOM     12  C   UNL     1      -3.322  11.582  18.647  0.00  0.00    +0.000 C 
ATOM     13  N   UNL     1      -6.623  11.422  19.232  0.00  0.00    +0.000 NA
ATOM     14  C   UNL     1      -7.553  11.207  20.215  0.00  0.00    +0.000 A 
ATOM     15  N   UNL     1      -7.455  11.546  21.460  0.00  0.00    +0.000 NA
ATOM     16  N   UNL     1      -6.339  12.240  21.738  0.00  0.00    +0.000 N 
ENDROOT
BRANCH   4  17
ATOM     17  C   UNL     1      -3.389  14.227  21.069  0.00  0.00    +0.000 A 
ATOM     18  C   UNL     1      -3.495  15.590  20.746  0.00  0.00    +0.000 A 
ATOM     19  N   UNL     1      -2.322  16.129  20.435  0.00  0.00    +0.000 NA
ATOM     20  N   UNL     1      -1.441  15.126  20.635  0.00  0.00    +0.000 N 
ATOM     21  C   UNL     1      -0.044  15.455  20.467  0.00  0.00    +0.000 C 
ATOM     22  C   UNL     1      -2.025  13.918  20.995  0.00  0.00    +0.000 A 
BRANCH  22  23
ATOM     23  C   UNL     1      -1.314  12.645  21.272  0.00  0.00    +0.000 A 
ATOM     24  C   UNL     1      -0.390  12.081  20.377  0.00  0.00    +0.000 A 
ATOM     25  C   UNL     1       0.341  10.930  20.704  0.00  0.00    +0.000 A 
ATOM     26  C   UNL     1       0.187  10.340  21.952  0.00  0.00    +0.000 A 
ATOM     27 CL   UNL     1       1.149   8.982  22.387  0.00  0.00    +0.000 Cl
ATOM     28  C   UNL     1      -0.729  10.863  22.854  0.00  0.00    +0.000 A 
ATOM     29  C   UNL     1      -1.488  11.987  22.503  0.00  0.00    +0.000 A 
ENDBRANCH  22  23
ENDBRANCH   4  17
TORSDOF 2
ENDMDL
MODEL 4
REMARK VINA RESULT:      -7.0      1.261      1.704
REMARK  Name = 
REMARK  4 active torsions:
REMARK  status: ('A' for Active; 'I' for Inactive)
REMARK    1  A    between atoms: C_1  and  C_2
REMARK    2  A    between atoms: C_4  and  C_5
REMARK    3  A    between atoms: N_8  and  C_9
REMARK    4  A    between atoms: C_10  and  C_11
REMARK                            x       y       z     vdW  Elec       q    Type
REMARK                         _______ _______ _______ _____ _____    ______ ____
ROOT
ATOM      1  C   UNL     1      -4.479  12.475  25.001  0.00  0.00    +0.000 C 
ATOM      2  C   UNL     1      -4.192  12.739  23.571  0.00  0.00    +0.000 A 
ATOM      3  N   UNL     1      -3.069  13.212  23.076  0.00  0.00    +0.000 NA
ATOM      4  C   UNL     1      -3.261  13.278  21.716  0.00  0.00    +0.000 A 
ATOM      5  C   UNL     1      -4.508  12.794  21.375  0.00  0.00    +0.000 A 
ATOM      6  C   UNL     1      -5.270  12.569  20.180  0.00  0.00    +0.000 A 
ATOM      7  N   UNL     1      -4.747  12.706  18.898  0.00  0.00    +0.000 N 
ATOM      8  C   UNL     1      -5.604  12.423  17.770  0.00  0.00    +0.000 C 
ATOM      9  C   UNL     1      -4.603  11.388  17.262  0.00  0.00    +0.000 C 
ATOM     10  F   UNL     1      -4.032  11.657  16.063  0.00  0.00    +0.000 F 
ATOM     11  F   UNL     1      -5.056  10.112  17.190  0.00  0.00    +0.000 F 
ATOM     12  C   UNL     1      -3.766  11.725  18.496  0.00  0.00    +0.000 C 
ATOM     13  N   UNL     1      -6.520  12.236  20.346  0.00  0.00    +0.000 NA
ATOM     14  C   UNL     1      -7.041  12.078  21.603  0.00  0.00    +0.000 A 
ATOM     15  N   UNL     1      -6.399  12.170  22.723  0.00  0.00    +0.000 NA
ATOM     16  N   UNL     1      -5.113  12.529  22.574  0.00  0.00    +0.000 N 
ENDROOT
BRANCH   4  17
ATOM     17  C   UNL     1      -2.191  13.864  20.907  0.00  0.00    +0.000 A 
ATOM     18  C   UNL     1      -2.128  15.231  20.592  0.00  0.00    +0.000 A 
ATOM     19  N   UNL     1      -1.036  15.543  19.904  0.00  0.00    +0.000 NA
ATOM     20  N   UNL     1      -0.349  14.381  19.844  0.00  0.00    +0.000 N 
ATOM     21  C   UNL     1       0.957  14.439  19.228  0.00  0.00    +0.000 C 
ATOM     22  C   UNL     1      -1.010  13.299  20.411  0.00  0.00    +0.000 A 
BRANCH  22  23
ATOM     23  C   UNL     1      -0.508  11.904  20.486  0.00  0.00    +0.000 A 
ATOM     24  C   UNL     1      -0.236  11.132  19.345  0.00  0.00    +0.000 A 
ATOM     25  C   UNL     1       0.330   9.852  19.441  0.00  0.00    +0.000 A 
ATOM     26  C   UNL     1       0.668   9.334  20.685  0.00  0.00    +0.000 A 
ATOM     27 CL   UNL     1       1.443   7.802  20.797  0.00  0.00    +0.000 Cl
ATOM     28  C   UNL     1       0.397  10.064  21.834  0.00  0.00    +0.000 A 
ATOM     29  C   UNL     1      -0.209  11.323  21.732  0.00  0.00    +0.000 A 
ENDBRANCH  22  23
ENDBRANCH   4  17
TORSDOF 2
ENDMDL
MODEL 5
REMARK VINA RESULT:      -6.9      3.203      5.593
REMARK  Name = 
REMARK  4 active torsions:
REMARK  status: ('A' for Active; 'I' for Inactive)
REMARK    1  A    between atoms: C_1  and  C_2
REMARK    2  A    between atoms: C_4  and  C_5
REMARK    3  A    between atoms: N_8  and  C_9
REMARK    4  A    between atoms: C_10  and  C_11
REMARK                            x       y       z     vdW  Elec       q    Type
REMARK                         _______ _______ _______ _____ _____    ______ ____
ROOT
ATOM      1  C   UNL     1      -6.042  12.041  17.815  0.00  0.00    +0.000 C 
ATOM      2  C   UNL     1      -4.800  12.116  18.619  0.00  0.00    +0.000 A 
ATOM      3  N   UNL     1      -4.648  12.749  19.761  0.00  0.00    +0.000 NA
ATOM      4  C   UNL     1      -3.342  12.533  20.136  0.00  0.00    +0.000 A 
ATOM      5  C   UNL     1      -2.702  11.716  19.225  0.00  0.00    +0.000 A 
ATOM      6  C   UNL     1      -1.409  11.116  19.061  0.00  0.00    +0.000 A 
ATOM      7  N   UNL     1      -0.417  11.151  20.036  0.00  0.00    +0.000 N 
ATOM      8  C   UNL     1       0.836  10.484  19.769  0.00  0.00    +0.000 C 
ATOM      9  C   UNL     1       0.665   9.643  21.032  0.00  0.00    +0.000 C 
ATOM     10  F   UNL     1       1.598   9.830  21.997  0.00  0.00    +0.000 F 
ATOM     11  F   UNL     1       0.574   8.304  20.844  0.00  0.00    +0.000 F 
ATOM     12  C   UNL     1      -0.662  10.375  21.230  0.00  0.00    +0.000 C 
ATOM     13  N   UNL     1      -1.184  10.530  17.918  0.00  0.00    +0.000 NA
ATOM     14  C   UNL     1      -2.161  10.472  16.958  0.00  0.00    +0.000 A 
ATOM     15  N   UNL     1      -3.376  10.903  17.064  0.00  0.00    +0.000 NA
ATOM     16  N   UNL     1      -3.622  11.526  18.229  0.00  0.00    +0.000 N 
ENDROOT
BRANCH   4  17
ATOM     17  C   UNL     1      -2.861  13.208  21.342  0.00  0.00    +0.000 A 
ATOM     18  C   UNL     1      -3.032  12.684  22.634  0.00  0.00    +0.000 A 
ATOM     19  N   UNL     1      -2.457  13.436  23.565  0.00  0.00    +0.000 NA
ATOM     20  N   UNL     1      -1.842  14.410  22.861  0.00  0.00    +0.000 N 
ATOM     21  C   UNL     1      -1.035  15.339  23.620  0.00  0.00    +0.000 C 
ATOM     22  C   UNL     1      -2.070  14.354  21.492  0.00  0.00    +0.000 A 
BRANCH  22  23
ATOM     23  C   UNL     1      -1.535  15.290  20.472  0.00  0.00    +0.000 A 
ATOM     24  C   UNL     1      -0.485  14.950  19.604  0.00  0.00    +0.000 A 
ATOM     25  C   UNL     1      -0.064  15.816  18.585  0.00  0.00    +0.000 A 
ATOM     26  C   UNL     1      -0.713  17.029  18.392  0.00  0.00    +0.000 A 
ATOM     27 CL   UNL     1      -0.255  18.051  17.086  0.00  0.00    +0.000 Cl
ATOM     28  C   UNL     1      -1.744  17.403  19.241  0.00  0.00    +0.000 A 
ATOM     29  C   UNL     1      -2.130  16.552  20.285  0.00  0.00    +0.000 A 
ENDBRANCH  22  23
ENDBRANCH   4  17
TORSDOF 2
ENDMDL
MODEL 6
REMARK VINA RESULT:      -6.9      3.128      5.437
REMARK  Name = 
REMARK  4 active torsions:
REMARK  status: ('A' for Active; 'I' for Inactive)
REMARK    1  A    between atoms: C_1  and  C_2
REMARK    2  A    between atoms: C_4  and  C_5
REMARK    3  A    between atoms: N_8  and  C_9
REMARK    4  A    between atoms: C_10  and  C_11
REMARK                            x       y       z     vdW  Elec       q    Type
REMARK                         _______ _______ _______ _____ _____    ______ ____
ROOT
ATOM      1  C   UNL     1      -5.624  11.843  17.490  0.00  0.00    +0.000 C 
ATOM      2  C   UNL     1      -4.441  11.899  18.380  0.00  0.00    +0.000 A 
ATOM      3  N   UNL     1      -4.345  12.569  19.508  0.00  0.00    +0.000 NA
ATOM      4  C   UNL     1      -3.079  12.317  19.985  0.00  0.00    +0.000 A 
ATOM      5  C   UNL     1      -2.411  11.441  19.152  0.00  0.00    +0.000 A 
ATOM      6  C   UNL     1      -1.136  10.785  19.105  0.00  0.00    +0.000 A 
ATOM      7  N   UNL     1      -0.216  10.818  20.148  0.00  0.00    +0.000 N 
ATOM      8  C   UNL     1       1.024  10.092  19.997  0.00  0.00    +0.000 C 
ATOM      9  C   UNL     1       0.728   9.307  21.273  0.00  0.00    +0.000 C 
ATOM     10  F   UNL     1       1.596   9.493  22.296  0.00  0.00    +0.000 F 
ATOM     11  F   UNL     1       0.595   7.966  21.125  0.00  0.00    +0.000 F 
ATOM     12  C   UNL     1      -0.579  10.098  21.347  0.00  0.00    +0.000 C 
ATOM     13  N   UNL     1      -0.854  10.148  18.002  0.00  0.00    +0.000 NA
ATOM     14  C   UNL     1      -1.760  10.092  16.976  0.00  0.00    +0.000 A 
ATOM     15  N   UNL     1      -2.961  10.574  16.977  0.00  0.00    +0.000 NA
ATOM     16  N   UNL     1      -3.264  11.250  18.098  0.00  0.00    +0.000 N 
ENDROOT
BRANCH   4  17
ATOM     17  C   UNL     1      -2.659  13.017  21.199  0.00  0.00    +0.000 A 
ATOM     18  C   UNL     1      -3.031  12.606  22.489  0.00  0.00    +0.000 A 
ATOM     19  N   UNL     1      -2.478  13.353  23.438  0.00  0.00    +0.000 NA
ATOM     20  N   UNL     1      -1.680  14.203  22.756  0.00  0.00    +0.000 N 
ATOM     21  C   UNL     1      -0.859  15.088  23.550  0.00  0.00    +0.000 C 
ATOM     22  C   UNL     1      -1.761  14.077  21.375  0.00  0.00    +0.000 A 
BRANCH  22  23
ATOM     23  C   UNL     1      -1.011  14.875  20.373  0.00  0.00    +0.000 A 
ATOM     24  C   UNL     1      -1.426  16.149  19.952  0.00  0.00    +0.000 A 
ATOM     25  C   UNL     1      -0.649  16.924  19.079  0.00  0.00    +0.000 A 
ATOM     26  C   UNL     1       0.581  16.451  18.639  0.00  0.00    +0.000 A 
ATOM     27 CL   UNL     1       1.575  17.438  17.641  0.00  0.00    +0.000 Cl
ATOM     28  C   UNL     1       1.014  15.190  19.024  0.00  0.00    +0.000 A 
ATOM     29  C   UNL     1       0.211  14.404  19.861  0.00  0.00    +0.000 A 
ENDBRANCH  22  23
ENDBRANCH   4  17
TORSDOF 2
ENDMDL
MODEL 7
REMARK VINA RESULT:      -6.7      3.695      6.149
REMARK  Name = 
REMARK  4 active torsions:
REMARK  status: ('A' for Active; 'I' for Inactive)
REMARK    1  A    between atoms: C_1  and  C_2
REMARK    2  A    between atoms: C_4  and  C_5
REMARK    3  A    between atoms: N_8  and  C_9
REMARK    4  A    between atoms: C_10  and  C_11
REMARK                            x       y       z     vdW  Elec       q    Type
REMARK                         _______ _______ _______ _____ _____    ______ ____
ROOT
ATOM      1  C   UNL     1      -0.034   9.097  23.074  0.00  0.00    +0.000 C 
ATOM      2  C   UNL     1      -0.418  10.461  22.641  0.00  0.00    +0.000 A 
ATOM      3  N   UNL     1      -1.116  11.331  23.337  0.00  0.00    +0.000 NA
ATOM      4  C   UNL     1      -1.214  12.450  22.543  0.00  0.00    +0.000 A 
ATOM      5  C   UNL     1      -0.524  12.270  21.361  0.00  0.00    +0.000 A 
ATOM      6  C   UNL     1      -0.223  13.030  20.181  0.00  0.00    +0.000 A 
ATOM      7  N   UNL     1      -0.520  14.382  20.041  0.00  0.00    +0.000 N 
ATOM      8  C   UNL     1      -0.140  15.049  18.817  0.00  0.00    +0.000 C 
ATOM      9  C   UNL     1       0.665  16.071  19.616  0.00  0.00    +0.000 C 
ATOM     10  F   UNL     1       0.234  17.353  19.537  0.00  0.00    +0.000 F 
ATOM     11  F   UNL     1       1.997  16.101  19.367  0.00  0.00    +0.000 F 
ATOM     12  C   UNL     1       0.242  15.295  20.863  0.00  0.00    +0.000 C 
ATOM     13  N   UNL     1       0.344  12.379  19.204  0.00  0.00    +0.000 NA
ATOM     14  C   UNL     1       0.659  11.052  19.337  0.00  0.00    +0.000 A 
ATOM     15  N   UNL     1       0.507  10.324  20.396  0.00  0.00    +0.000 NA
ATOM     16  N   UNL     1      -0.092  10.973  21.409  0.00  0.00    +0.000 N 
ENDROOT
BRANCH   4  17
ATOM     17  C   UNL     1      -2.028  13.563  23.035  0.00  0.00    +0.000 A 
ATOM     18  C   UNL     1      -1.545  14.529  23.932  0.00  0.00    +0.000 A 
ATOM     19  N   UNL     1      -2.440  15.477  24.185  0.00  0.00    +0.000 NA
ATOM     20  N   UNL     1      -3.479  15.163  23.382  0.00  0.00    +0.000 N 
ATOM     21  C   UNL     1      -4.584  16.095  23.369  0.00  0.00    +0.000 C 
ATOM     22  C   UNL     1      -3.312  13.983  22.669  0.00  0.00    +0.000 A 
BRANCH  22  23
ATOM     23  C   UNL     1      -4.284  13.385  21.719  0.00  0.00    +0.000 A 
ATOM     24  C   UNL     1      -3.996  13.190  20.359  0.00  0.00    +0.000 A 
ATOM     25  C   UNL     1      -4.893  12.533  19.504  0.00  0.00    +0.000 A 
ATOM     26  C   UNL     1      -6.085  12.025  20.006  0.00  0.00    +0.000 A 
ATOM     27 CL   UNL     1      -7.143  11.142  18.978  0.00  0.00    +0.000 Cl
ATOM     28  C   UNL     1      -6.407  12.214  21.342  0.00  0.00    +0.000 A 
ATOM     29  C   UNL     1      -5.526  12.910  22.180  0.00  0.00    +0.000 A 
ENDBRANCH  22  23
ENDBRANCH   4  17
TORSDOF 2
ENDMDL
MODEL 8
REMARK VINA RESULT:      -6.6      2.609      5.925
REMARK  Name = 
REMARK  4 active torsions:
REMARK  status: ('A' for Active; 'I' for Inactive)
REMARK    1  A    between atoms: C_1  and  C_2
REMARK    2  A    between atoms: C_4  and  C_5
REMARK    3  A    between atoms: N_8  and  C_9
REMARK    4  A    between atoms: C_10  and  C_11
REMARK                            x       y       z     vdW  Elec       q    Type
REMARK                         _______ _______ _______ _____ _____    ______ ____
ROOT
ATOM      1  C   UNL     1       0.392  16.515  18.661  0.00  0.00    +0.000 C 
ATOM      2  C   UNL     1      -0.125  15.330  19.385  0.00  0.00    +0.000 A 
ATOM      3  N   UNL     1      -1.389  15.019  19.568  0.00  0.00    +0.000 NA
ATOM      4  C   UNL     1      -1.384  13.842  20.280  0.00  0.00    +0.000 A 
ATOM      5  C   UNL     1      -0.091  13.408  20.494  0.00  0.00    +0.000 A 
ATOM      6  C   UNL     1       0.567  12.289  21.107  0.00  0.00    +0.000 A 
ATOM      7  N   UNL     1      -0.107  11.166  21.577  0.00  0.00    +0.000 N 
ATOM      8  C   UNL     1       0.666  10.088  22.149  0.00  0.00    +0.000 C 
ATOM      9  C   UNL     1       0.061   9.111  21.143  0.00  0.00    +0.000 C 
ATOM     10  F   UNL     1      -0.696   8.117  21.667  0.00  0.00    +0.000 F 
ATOM     11  F   UNL     1       0.936   8.518  20.295  0.00  0.00    +0.000 F 
ATOM     12  C   UNL     1      -0.701  10.309  20.577  0.00  0.00    +0.000 C 
ATOM     13  N   UNL     1       1.862  12.375  21.229  0.00  0.00    +0.000 NA
ATOM     14  C   UNL     1       2.538  13.468  20.753  0.00  0.00    +0.000 A 
ATOM     15  N   UNL     1       2.032  14.469  20.107  0.00  0.00    +0.000 NA
ATOM     16  N   UNL     1       0.696  14.407  19.986  0.00  0.00    +0.000 N 
ENDROOT
BRANCH   4  17
ATOM     17  C   UNL     1      -2.675  13.302  20.710  0.00  0.00    +0.000 A 
ATOM     18  C   UNL     1      -3.237  13.570  21.969  0.00  0.00    +0.000 A 
ATOM     19  N   UNL     1      -4.441  13.028  22.110  0.00  0.00    +0.000 NA
ATOM     20  N   UNL     1      -4.691  12.474  20.904  0.00  0.00    +0.000 N 
ATOM     21  C   UNL     1      -5.999  11.886  20.727  0.00  0.00    +0.000 C 
ATOM     22  C   UNL     1      -3.639  12.575  20.002  0.00  0.00    +0.000 A 
BRANCH  22  23
ATOM     23  C   UNL     1      -3.621  12.056  18.612  0.00  0.00    +0.000 A 
ATOM     24  C   UNL     1      -2.458  11.557  18.002  0.00  0.00    +0.000 A 
ATOM     25  C   UNL     1      -2.488  10.982  16.723  0.00  0.00    +0.000 A 
ATOM     26  C   UNL     1      -3.693  10.862  16.043  0.00  0.00    +0.000 A 
ATOM     27 CL   UNL     1      -3.743  10.076  14.514  0.00  0.00    +0.000 Cl
ATOM     28  C   UNL     1      -4.858  11.358  16.611  0.00  0.00    +0.000 A 
ATOM     29  C   UNL     1      -4.813  11.972  17.870  0.00  0.00    +0.000 A 
ENDBRANCH  22  23
ENDBRANCH   4  17
TORSDOF 2
ENDMDL
MODEL 9
REMARK VINA RESULT:      -6.6      3.331      6.410
REMARK  Name = 
REMARK  4 active torsions:
REMARK  status: ('A' for Active; 'I' for Inactive)
REMARK    1  A    between atoms: C_1  and  C_2
REMARK    2  A    between atoms: C_4  and  C_5
REMARK    3  A    between atoms: N_8  and  C_9
REMARK    4  A    between atoms: C_10  and  C_11
REMARK                            x       y       z     vdW  Elec       q    Type
REMARK                         _______ _______ _______ _____ _____    ______ ____
ROOT
ATOM      1  C   UNL     1      -0.403  17.188  20.593  0.00  0.00    +0.000 C 
ATOM      2  C   UNL     1      -1.053  15.857  20.552  0.00  0.00    +0.000 A 
ATOM      3  N   UNL     1      -2.190  15.527  21.124  0.00  0.00    +0.000 NA
ATOM      4  C   UNL     1      -2.396  14.204  20.807  0.00  0.00    +0.000 A 
ATOM      5  C   UNL     1      -1.386  13.736  19.990  0.00  0.00    +0.000 A 
ATOM      6  C   UNL     1      -1.047  12.517  19.313  0.00  0.00    +0.000 A 
ATOM      7  N   UNL     1      -1.895  11.417  19.242  0.00  0.00    +0.000 N 
ATOM      8  C   UNL     1      -1.456  10.253  18.506  0.00  0.00    +0.000 C 
ATOM      9  C   UNL     1      -2.700  10.332  17.625  0.00  0.00    +0.000 C 
ATOM     10  F   UNL     1      -3.551   9.281  17.708  0.00  0.00    +0.000 F 
ATOM     11  F   UNL     1      -2.478  10.539  16.303  0.00  0.00    +0.000 F 
ATOM     12  C   UNL     1      -3.082  11.572  18.433  0.00  0.00    +0.000 C 
ATOM     13  N   UNL     1       0.135  12.470  18.764  0.00  0.00    +0.000 NA
ATOM     14  C   UNL     1       0.971  13.555  18.811  0.00  0.00    +0.000 A 
ATOM     15  N   UNL     1       0.704  14.716  19.317  0.00  0.00    +0.000 NA
ATOM     16  N   UNL     1      -0.503  14.778  19.903  0.00  0.00    +0.000 N 
ENDROOT
BRANCH   4  17
ATOM     17  C   UNL     1      -3.558  13.538  21.396  0.00  0.00    +0.000 A 
ATOM     18  C   UNL     1      -3.476  12.712  22.529  0.00  0.00    +0.000 A 
ATOM     19  N   UNL     1      -4.666  12.271  22.921  0.00  0.00    +0.000 NA
ATOM     20  N   UNL     1      -5.530  12.882  22.082  0.00  0.00    +0.000 N 
ATOM     21  C   UNL     1      -6.936  12.664  22.338  0.00  0.00    +0.000 C 
ATOM     22  C   UNL     1      -4.922  13.651  21.099  0.00  0.00    +0.000 A 
BRANCH  22  23
ATOM     23  C   UNL     1      -5.611  14.428  20.037  0.00  0.00    +0.000 A 
ATOM     24  C   UNL     1      -5.632  15.832  20.015  0.00  0.00    +0.000 A 
ATOM     25  C   UNL     1      -6.205  16.541  18.950  0.00  0.00    +0.000 A 
ATOM     26  C   UNL     1      -6.738  15.856  17.865  0.00  0.00    +0.000 A 
ATOM     27 CL   UNL     1      -7.360  16.726  16.519  0.00  0.00    +0.000 Cl
ATOM     28  C   UNL     1      -6.747  14.468  17.862  0.00  0.00    +0.000 A 
ATOM     29  C   UNL     1      -6.212  13.766  18.951  0.00  0.00    +0.000 A 
ENDBRANCH  22  23
ENDBRANCH   4  17
TORSDOF 2
ENDMDL
