MODEL 1
REMARK VINA RESULT:      -8.2      0.000      0.000
REMARK  Name = 
REMARK  10 active torsions:
REMARK  status: ('A' for Active; 'I' for Inactive)
REMARK    1  A    between atoms: C_2  and  C_3
REMARK    2  A    between atoms: C_8  and  C_9
REMARK    3  A    between atoms: N_11  and  C_12
REMARK    4  A    between atoms: C_12  and  C_13
REMARK    5  A    between atoms: C_13  and  C_14
REMARK    6  A    between atoms: C_14  and  C_15
REMARK    7  A    between atoms: C_15  and  N_16
REMARK    8  A    between atoms: N_19  and  C_20
REMARK    9  A    between atoms: C_25  and  O_26
REMARK   10  A    between atoms: O_26  and  C_27
REMARK                            x       y       z     vdW  Elec       q    Type
REMARK                         _______ _______ _______ _____ _____    ______ ____
ROOT
ATOM      1  C   UNL     1       1.869   4.614  21.218  0.00  0.00    +0.000 C 
ENDROOT
BRANCH   1   2
ATOM      2  C   UNL     1       2.470   5.923  20.753  0.00  0.00    +0.000 C 
BRANCH   2   5
ATOM      3  C   UNL     1       1.520   8.124  20.187  0.00  0.00    +0.000 C 
ATOM      4  O   UNL     1       2.114   8.168  19.107  0.00  0.00    +0.000 OA
ATOM      5  N   UNL     1       1.643   7.054  21.042  0.00  0.00    +0.000 N 
ATOM      6  H   UNL     1       1.107   7.061  21.904  0.00  0.00    +0.000 HD
BRANCH   3  12
ATOM      7  C   UNL     1      -2.138  12.572  22.651  0.00  0.00    +0.000 A 
ATOM      8  C   UNL     1      -2.197  12.949  21.311  0.00  0.00    +0.000 A 
ATOM      9  C   UNL     1      -1.509  12.215  20.337  0.00  0.00    +0.000 A 
ATOM     10  C   UNL     1      -0.746  11.080  20.704  0.00  0.00    +0.000 A 
ATOM     11  C   UNL     1       0.045  10.178  19.913  0.00  0.00    +0.000 A 
ATOM     12  C   UNL     1       0.651   9.186  20.660  0.00  0.00    +0.000 A 
ATOM     13  S   UNL     1       0.256   9.335  22.316  0.00  0.00    +0.000 S 
ATOM     14  C   UNL     1      -0.710  10.724  22.052  0.00  0.00    +0.000 A 
ATOM     15  C   UNL     1      -1.397  11.452  23.038  0.00  0.00    +0.000 A 
BRANCH   7  17
ATOM     16  C   UNL     1      -3.397  13.981  24.492  0.00  0.00    +0.000 C 
ATOM     17  C   UNL     1      -2.831  13.315  23.647  0.00  0.00    +0.000 C 
ENDBRANCH   7  17
ENDBRANCH   3  12
ENDBRANCH   2   5
ENDBRANCH   1   2
BRANCH   1  18
ATOM     18  C   UNL     1       0.938   4.092  20.128  0.00  0.00    +0.000 C 
BRANCH  18  19
ATOM     19  C   UNL     1       1.240   2.691  19.563  0.00  0.00    +0.000 C 
BRANCH  19  20
ATOM     20  N   UNL     1       1.365   2.738  18.097  0.00  0.00    +0.000 NA
ATOM     21  C   UNL     1       1.425   4.138  17.575  0.00  0.00    +0.000 C 
ATOM     22  C   UNL     1       2.740   4.945  17.832  0.00  0.00    +0.000 C 
ATOM     23  N   UNL     1       3.956   4.122  17.647  0.00  0.00    +0.000 N 
ATOM     24  C   UNL     1       3.863   2.749  18.156  0.00  0.00    +0.000 C 
ATOM     25  C   UNL     1       2.595   2.081  17.604  0.00  0.00    +0.000 C 
BRANCH  23  26
ATOM     26  C   UNL     1       5.044   4.489  16.863  0.00  0.00    +0.000 A 
ATOM     27  C   UNL     1       5.061   4.029  15.512  0.00  0.00    +0.000 A 
ATOM     28  C   UNL     1       6.123   4.207  14.643  0.00  0.00    +0.000 A 
ATOM     29  C   UNL     1       7.214   4.926  15.065  0.00  0.00    +0.000 A 
ATOM     30  C   UNL     1       7.223   5.443  16.341  0.00  0.00    +0.000 A 
ATOM     31  C   UNL     1       6.177   5.249  17.259  0.00  0.00    +0.000 A 
BRANCH  31  32
ATOM     32  O   UNL     1       6.364   5.725  18.539  0.00  0.00    +0.000 OA
ATOM     33  C   UNL     1       7.753   5.910  18.927  0.00  0.00    +0.000 C 
ENDBRANCH  31  32
ENDBRANCH  23  26
ENDBRANCH  19  20
ENDBRANCH  18  19
ENDBRANCH   1  18
TORSDOF 9
ENDMDL
MODEL 2
REMARK VINA RESULT:      -7.8      1.091      1.923
REMARK  Name = 
REMARK  10 active torsions:
REMARK  status: ('A' for Active; 'I' for Inactive)
REMARK    1  A    between atoms: C_2  and  C_3
REMARK    2  A    between atoms: C_8  and  C_9
REMARK    3  A    between atoms: N_11  and  C_12
REMARK    4  A    between atoms: C_12  and  C_13
REMARK    5  A    between atoms: C_13  and  C_14
REMARK    6  A    between atoms: C_14  and  C_15
REMARK    7  A    between atoms: C_15  and  N_16
REMARK    8  A    between atoms: N_19  and  C_20
REMARK    9  A    between atoms: C_25  and  O_26
REMARK   10  A    between atoms: O_26  and  C_27
REMARK                            x       y       z     vdW  Elec       q    Type
REMARK                         _______ _______ _______ _____ _____    ______ ____
ROOT
ATOM      1  C   UNL     1       0.691   4.002  20.449  0.00  0.00    +0.000 C 
ENDROOT
BRANCH   1   2
ATOM      2  C   UNL     1       1.743   5.067  20.674  0.00  0.00    +0.000 C 
BRANCH   2   5
ATOM      3  C   UNL     1       1.656   7.502  20.310  0.00  0.00    +0.000 C 
ATOM      4  O   UNL     1       2.586   7.473  19.501  0.00  0.00    +0.000 OA
ATOM      5  N   UNL     1       1.187   6.362  20.920  0.00  0.00    +0.000 N 
ATOM      6  H   UNL     1       0.399   6.444  21.555  0.00  0.00    +0.000 HD
BRANCH   3  12
ATOM      7  C   UNL     1      -1.281  12.619  22.414  0.00  0.00    +0.000 A 
ATOM      8  C   UNL     1      -1.023  13.029  21.108  0.00  0.00    +0.000 A 
ATOM      9  C   UNL     1      -0.360  12.177  20.215  0.00  0.00    +0.000 A 
ATOM     10  C   UNL     1       0.055  10.890  20.631  0.00  0.00    +0.000 A 
ATOM     11  C   UNL     1       0.748   9.846  19.926  0.00  0.00    +0.000 A 
ATOM     12  C   UNL     1       0.979   8.725  20.700  0.00  0.00    +0.000 A 
ATOM     13  S   UNL     1       0.349   8.925  22.275  0.00  0.00    +0.000 S 
ATOM     14  C   UNL     1      -0.222  10.504  21.944  0.00  0.00    +0.000 A 
ATOM     15  C   UNL     1      -0.887  11.350  22.847  0.00  0.00    +0.000 A 
BRANCH   7  17
ATOM     16  C   UNL     1      -2.558  14.193  24.102  0.00  0.00    +0.000 C 
ATOM     17  C   UNL     1      -1.950  13.480  23.328  0.00  0.00    +0.000 C 
ENDBRANCH   7  17
ENDBRANCH   3  12
ENDBRANCH   2   5
ENDBRANCH   1   2
BRANCH   1  18
ATOM     18  C   UNL     1       0.901   3.396  19.065  0.00  0.00    +0.000 C 
BRANCH  18  19
ATOM     19  C   UNL     1       1.685   2.072  18.993  0.00  0.00    +0.000 C 
BRANCH  19  20
ATOM     20  N   UNL     1       2.604   2.074  17.842  0.00  0.00    +0.000 NA
ATOM     21  C   UNL     1       2.518   3.338  17.047  0.00  0.00    +0.000 C 
ATOM     22  C   UNL     1       3.125   4.630  17.685  0.00  0.00    +0.000 C 
ATOM     23  N   UNL     1       4.410   4.374  18.375  0.00  0.00    +0.000 N 
ATOM     24  C   UNL     1       4.469   3.120  19.135  0.00  0.00    +0.000 C 
ATOM     25  C   UNL     1       4.023   1.954  18.240  0.00  0.00    +0.000 C 
BRANCH  23  26
ATOM     26  C   UNL     1       5.573   5.107  18.172  0.00  0.00    +0.000 A 
ATOM     27  C   UNL     1       6.449   5.265  19.287  0.00  0.00    +0.000 A 
ATOM     28  C   UNL     1       7.581   6.061  19.280  0.00  0.00    +0.000 A 
ATOM     29  C   UNL     1       7.939   6.698  18.118  0.00  0.00    +0.000 A 
ATOM     30  C   UNL     1       7.160   6.532  16.995  0.00  0.00    +0.000 A 
ATOM     31  C   UNL     1       5.987   5.760  16.979  0.00  0.00    +0.000 A 
BRANCH  31  32
ATOM     32  O   UNL     1       5.240   5.769  15.820  0.00  0.00    +0.000 OA
ATOM     33  C   UNL     1       5.643   4.788  14.825  0.00  0.00    +0.000 C 
ENDBRANCH  31  32
ENDBRANCH  23  26
ENDBRANCH  19  20
ENDBRANCH  18  19
ENDBRANCH   1  18
TORSDOF 9
ENDMDL
MODEL 3
REMARK VINA RESULT:      -7.4      1.308      1.632
REMARK  Name = 
REMARK  10 active torsions:
REMARK  status: ('A' for Active; 'I' for Inactive)
REMARK    1  A    between atoms: C_2  and  C_3
REMARK    2  A    between atoms: C_8  and  C_9
REMARK    3  A    between atoms: N_11  and  C_12
REMARK    4  A    between atoms: C_12  and  C_13
REMARK    5  A    between atoms: C_13  and  C_14
REMARK    6  A    between atoms: C_14  and  C_15
REMARK    7  A    between atoms: C_15  and  N_16
REMARK    8  A    between atoms: N_19  and  C_20
REMARK    9  A    between atoms: C_25  and  O_26
REMARK   10  A    between atoms: O_26  and  C_27
REMARK                            x       y       z     vdW  Elec       q    Type
REMARK                         _______ _______ _______ _____ _____    ______ ____
ROOT
ATOM      1  C   UNL     1       1.559   5.602  21.124  0.00  0.00    +0.000 C 
ENDROOT
BRANCH   1   2
ATOM      2  C   UNL     1       1.914   6.784  20.247  0.00  0.00    +0.000 C 
BRANCH   2   5
ATOM      3  C   UNL     1       1.130   9.059  19.720  0.00  0.00    +0.000 C 
ATOM      4  O   UNL     1       1.809   9.118  18.692  0.00  0.00    +0.000 OA
ATOM      5  N   UNL     1       1.128   7.946  20.528  0.00  0.00    +0.000 N 
ATOM      6  H   UNL     1       0.526   7.944  21.345  0.00  0.00    +0.000 HD
BRANCH   3  12
ATOM      7  C   UNL     1      -2.777  13.684  21.325  0.00  0.00    +0.000 A 
ATOM      8  C   UNL     1      -1.979  13.657  22.466  0.00  0.00    +0.000 A 
ATOM      9  C   UNL     1      -0.919  12.748  22.570  0.00  0.00    +0.000 A 
ATOM     10  C   UNL     1      -0.646  11.846  21.514  0.00  0.00    +0.000 A 
ATOM     11  C   UNL     1       0.359  10.828  21.377  0.00  0.00    +0.000 A 
ATOM     12  C   UNL     1       0.284  10.146  20.177  0.00  0.00    +0.000 A 
ATOM     13  S   UNL     1      -0.990  10.744  19.208  0.00  0.00    +0.000 S 
ATOM     14  C   UNL     1      -1.459  11.900  20.381  0.00  0.00    +0.000 A 
ATOM     15  C   UNL     1      -2.524  12.809  20.266  0.00  0.00    +0.000 A 
BRANCH   7  17
ATOM     16  C   UNL     1      -4.790  15.372  21.082  0.00  0.00    +0.000 C 
ATOM     17  C   UNL     1      -3.858  14.602  21.214  0.00  0.00    +0.000 C 
ENDBRANCH   7  17
ENDBRANCH   3  12
ENDBRANCH   2   5
ENDBRANCH   1   2
BRANCH   1  18
ATOM     18  C   UNL     1       1.003   4.490  20.239  0.00  0.00    +0.000 C 
BRANCH  18  19
ATOM     19  C   UNL     1       1.680   3.111  20.341  0.00  0.00    +0.000 C 
BRANCH  19  20
ATOM     20  N   UNL     1       1.907   2.543  19.002  0.00  0.00    +0.000 NA
ATOM     21  C   UNL     1       1.689   3.545  17.914  0.00  0.00    +0.000 C 
ATOM     22  C   UNL     1       2.764   4.670  17.749  0.00  0.00    +0.000 C 
ATOM     23  N   UNL     1       4.145   4.163  17.909  0.00  0.00    +0.000 N 
ATOM     24  C   UNL     1       4.325   3.171  18.975  0.00  0.00    +0.000 C 
ATOM     25  C   UNL     1       3.288   2.049  18.813  0.00  0.00    +0.000 C 
BRANCH  23  26
ATOM     26  C   UNL     1       5.180   4.399  17.011  0.00  0.00    +0.000 A 
ATOM     27  C   UNL     1       4.844   4.450  15.625  0.00  0.00    +0.000 A 
ATOM     28  C   UNL     1       5.772   4.556  14.604  0.00  0.00    +0.000 A 
ATOM     29  C   UNL     1       7.101   4.688  14.923  0.00  0.00    +0.000 A 
ATOM     30  C   UNL     1       7.473   4.704  16.248  0.00  0.00    +0.000 A 
ATOM     31  C   UNL     1       6.561   4.562  17.307  0.00  0.00    +0.000 A 
BRANCH  31  32
ATOM     32  O   UNL     1       7.080   4.482  18.582  0.00  0.00    +0.000 OA
ATOM     33  C   UNL     1       7.478   5.755  19.161  0.00  0.00    +0.000 C 
ENDBRANCH  31  32
ENDBRANCH  23  26
ENDBRANCH  19  20
ENDBRANCH  18  19
ENDBRANCH   1  18
TORSDOF 9
ENDMDL
MODEL 4
REMARK VINA RESULT:      -7.4      6.127      8.231
REMARK  Name = 
REMARK  10 active torsions:
REMARK  status: ('A' for Active; 'I' for Inactive)
REMARK    1  A    between atoms: C_2  and  C_3
REMARK    2  A    between atoms: C_8  and  C_9
REMARK    3  A    between atoms: N_11  and  C_12
REMARK    4  A    between atoms: C_12  and  C_13
REMARK    5  A    between atoms: C_13  and  C_14
REMARK    6  A    between atoms: C_14  and  C_15
REMARK    7  A    between atoms: C_15  and  N_16
REMARK    8  A    between atoms: N_19  and  C_20
REMARK    9  A    between atoms: C_25  and  O_26
REMARK   10  A    between atoms: O_26  and  C_27
REMARK                            x       y       z     vdW  Elec       q    Type
REMARK                         _______ _______ _______ _____ _____    ______ ____
ROOT
ATOM      1  C   UNL     1       7.637   8.639  17.746  0.00  0.00    +0.000 C 
ENDROOT
BRANCH   1   2
ATOM      2  C   UNL     1       9.015   9.146  18.115  0.00  0.00    +0.000 C 
BRANCH   2   5
ATOM      3  C   UNL     1       9.733  11.305  19.059  0.00  0.00    +0.000 C 
ATOM      4  O   UNL     1      10.467  11.547  18.098  0.00  0.00    +0.000 OA
ATOM      5  N   UNL     1       8.988  10.151  19.133  0.00  0.00    +0.000 N 
ATOM      6  H   UNL     1       8.379  10.021  19.934  0.00  0.00    +0.000 HD
BRANCH   3  12
ATOM      7  C   UNL     1       8.904  14.819  24.178  0.00  0.00    +0.000 A 
ATOM      8  C   UNL     1       9.695  15.689  23.433  0.00  0.00    +0.000 A 
ATOM      9  C   UNL     1      10.143  15.326  22.157  0.00  0.00    +0.000 A 
ATOM     10  C   UNL     1       9.795  14.068  21.610  0.00  0.00    +0.000 A 
ATOM     11  C   UNL     1      10.126  13.461  20.349  0.00  0.00    +0.000 A 
ATOM     12  C   UNL     1       9.590  12.197  20.195  0.00  0.00    +0.000 A 
ATOM     13  S   UNL     1       8.674  11.746  21.565  0.00  0.00    +0.000 S 
ATOM     14  C   UNL     1       8.996  13.218  22.376  0.00  0.00    +0.000 A 
ATOM     15  C   UNL     1       8.540  13.574  23.657  0.00  0.00    +0.000 A 
BRANCH   7  17
ATOM     16  C   UNL     1       8.019  15.486  26.572  0.00  0.00    +0.000 C 
ATOM     17  C   UNL     1       8.448  15.180  25.476  0.00  0.00    +0.000 C 
ENDBRANCH   7  17
ENDBRANCH   3  12
ENDBRANCH   2   5
ENDBRANCH   1   2
BRANCH   1  18
ATOM     18  C   UNL     1       7.634   7.117  17.853  0.00  0.00    +0.000 C 
BRANCH  18  19
ATOM     19  C   UNL     1       7.108   6.331  16.637  0.00  0.00    +0.000 C 
BRANCH  19  20
ATOM     20  N   UNL     1       6.823   4.934  17.005  0.00  0.00    +0.000 NA
ATOM     21  C   UNL     1       6.722   4.744  18.484  0.00  0.00    +0.000 C 
ATOM     22  C   UNL     1       5.452   5.316  19.197  0.00  0.00    +0.000 C 
ATOM     23  N   UNL     1       4.214   5.087  18.418  0.00  0.00    +0.000 N 
ATOM     24  C   UNL     1       4.347   5.268  16.968  0.00  0.00    +0.000 C 
ATOM     25  C   UNL     1       5.540   4.446  16.455  0.00  0.00    +0.000 C 
BRANCH  23  26
ATOM     26  C   UNL     1       3.051   4.527  18.934  0.00  0.00    +0.000 A 
ATOM     27  C   UNL     1       2.335   5.287  19.907  0.00  0.00    +0.000 A 
ATOM     28  C   UNL     1       1.231   4.822  20.600  0.00  0.00    +0.000 A 
ATOM     29  C   UNL     1       0.736   3.576  20.302  0.00  0.00    +0.000 A 
ATOM     30  C   UNL     1       1.354   2.824  19.328  0.00  0.00    +0.000 A 
ATOM     31  C   UNL     1       2.497   3.254  18.633  0.00  0.00    +0.000 A 
BRANCH  31  32
ATOM     32  O   UNL     1       3.082   2.357  17.764  0.00  0.00    +0.000 OA
ATOM     33  C   UNL     1       3.861   1.308  18.401  0.00  0.00    +0.000 C 
ENDBRANCH  31  32
ENDBRANCH  23  26
ENDBRANCH  19  20
ENDBRANCH  18  19
ENDBRANCH   1  18
TORSDOF 9
ENDMDL
MODEL 5
REMARK VINA RESULT:      -7.4      3.670     10.442
REMARK  Name = 
REMARK  10 active torsions:
REMARK  status: ('A' for Active; 'I' for Inactive)
REMARK    1  A    between atoms: C_2  and  C_3
REMARK    2  A    between atoms: C_8  and  C_9
REMARK    3  A    between atoms: N_11  and  C_12
REMARK    4  A    between atoms: C_12  and  C_13
REMARK    5  A    between atoms: C_13  and  C_14
REMARK    6  A    between atoms: C_14  and  C_15
REMARK    7  A    between atoms: C_15  and  N_16
REMARK    8  A    between atoms: N_19  and  C_20
REMARK    9  A    between atoms: C_25  and  O_26
REMARK   10  A    between atoms: O_26  and  C_27
REMARK                            x       y       z     vdW  Elec       q    Type
REMARK                         _______ _______ _______ _____ _____    ______ ____
ROOT
ATOM      1  C   UNL     1       1.236   8.972  21.424  0.00  0.00    +0.000 C 
ENDROOT
BRANCH   1   2
ATOM      2  C   UNL     1       1.216   7.462  21.315  0.00  0.00    +0.000 C 
BRANCH   2   5
ATOM      3  C   UNL     1       2.588   5.679  20.312  0.00  0.00    +0.000 C 
ATOM      4  O   UNL     1       2.295   4.874  21.199  0.00  0.00    +0.000 OA
ATOM      5  N   UNL     1       2.093   6.962  20.301  0.00  0.00    +0.000 N 
ATOM      6  H   UNL     1       2.346   7.570  19.529  0.00  0.00    +0.000 HD
BRANCH   3  12
ATOM      7  C   UNL     1       6.063   4.293  15.288  0.00  0.00    +0.000 A 
ATOM      8  C   UNL     1       7.081   4.494  16.217  0.00  0.00    +0.000 A 
ATOM      9  C   UNL     1       6.776   4.832  17.541  0.00  0.00    +0.000 A 
ATOM     10  C   UNL     1       5.428   4.973  17.950  0.00  0.00    +0.000 A 
ATOM     11  C   UNL     1       4.859   5.316  19.225  0.00  0.00    +0.000 A 
ATOM     12  C   UNL     1       3.477   5.359  19.210  0.00  0.00    +0.000 A 
ATOM     13  S   UNL     1       2.866   4.974  17.662  0.00  0.00    +0.000 S 
ATOM     14  C   UNL     1       4.430   4.761  16.999  0.00  0.00    +0.000 A 
ATOM     15  C   UNL     1       4.725   4.420  15.668  0.00  0.00    +0.000 A 
BRANCH   7  17
ATOM     16  C   UNL     1       6.664   3.668  12.796  0.00  0.00    +0.000 C 
ATOM     17  C   UNL     1       6.365   3.953  13.940  0.00  0.00    +0.000 C 
ENDBRANCH   7  17
ENDBRANCH   3  12
ENDBRANCH   2   5
ENDBRANCH   1   2
BRANCH   1  18
ATOM     18  C   UNL     1      -0.197   9.486  21.315  0.00  0.00    +0.000 C 
BRANCH  18  19
ATOM     19  C   UNL     1      -0.563  10.270  20.041  0.00  0.00    +0.000 C 
BRANCH  19  20
ATOM     20  N   UNL     1      -1.234  11.535  20.385  0.00  0.00    +0.000 NA
ATOM     21  C   UNL     1      -0.471  12.328  21.396  0.00  0.00    +0.000 C 
ATOM     22  C   UNL     1       0.848  13.020  20.919  0.00  0.00    +0.000 C 
ATOM     23  N   UNL     1       0.718  13.623  19.573  0.00  0.00    +0.000 N 
ATOM     24  C   UNL     1      -0.048  12.828  18.606  0.00  0.00    +0.000 C 
ATOM     25  C   UNL     1      -1.399  12.433  19.221  0.00  0.00    +0.000 C 
BRANCH  23  26
ATOM     26  C   UNL     1       1.074  14.929  19.257  0.00  0.00    +0.000 A 
ATOM     27  C   UNL     1       0.239  15.973  19.755  0.00  0.00    +0.000 A 
ATOM     28  C   UNL     1       0.389  17.310  19.431  0.00  0.00    +0.000 A 
ATOM     29  C   UNL     1       1.441  17.687  18.633  0.00  0.00    +0.000 A 
ATOM     30  C   UNL     1       2.312  16.725  18.174  0.00  0.00    +0.000 A 
ATOM     31  C   UNL     1       2.167  15.357  18.455  0.00  0.00    +0.000 A 
BRANCH  31  32
ATOM     32  O   UNL     1       3.044  14.489  17.839  0.00  0.00    +0.000 OA
ATOM     33  C   UNL     1       4.448  14.737  18.120  0.00  0.00    +0.000 C 
ENDBRANCH  31  32
ENDBRANCH  23  26
ENDBRANCH  19  20
ENDBRANCH  18  19
ENDBRANCH   1  18
TORSDOF 9
ENDMDL
MODEL 6
REMARK VINA RESULT:      -7.4      2.129      2.556
REMARK  Name = 
REMARK  10 active torsions:
REMARK  status: ('A' for Active; 'I' for Inactive)
REMARK    1  A    between atoms: C_2  and  C_3
REMARK    2  A    between atoms: C_8  and  C_9
REMARK    3  A    between atoms: N_11  and  C_12
REMARK    4  A    between atoms: C_12  and  C_13
REMARK    5  A    between atoms: C_13  and  C_14
REMARK    6  A    between atoms: C_14  and  C_15
REMARK    7  A    between atoms: C_15  and  N_16
REMARK    8  A    between atoms: N_19  and  C_20
REMARK    9  A    between atoms: C_25  and  O_26
REMARK   10  A    between atoms: O_26  and  C_27
REMARK                            x       y       z     vdW  Elec       q    Type
REMARK                         _______ _______ _______ _____ _____    ______ ____
ROOT
ATOM      1  C   UNL     1       0.944   5.302  20.585  0.00  0.00    +0.000 C 
ENDROOT
BRANCH   1   2
ATOM      2  C   UNL     1       2.178   6.125  20.280  0.00  0.00    +0.000 C 
BRANCH   2   5
ATOM      3  C   UNL     1       1.878   8.122  18.870  0.00  0.00    +0.000 C 
ATOM      4  O   UNL     1       2.098   7.494  17.832  0.00  0.00    +0.000 OA
ATOM      5  N   UNL     1       1.894   7.516  20.105  0.00  0.00    +0.000 N 
ATOM      6  H   UNL     1       1.677   8.078  20.921  0.00  0.00    +0.000 HD
BRANCH   3  12
ATOM      7  C   UNL     1       0.295  14.171  19.254  0.00  0.00    +0.000 A 
ATOM      8  C   UNL     1       1.459  14.291  18.499  0.00  0.00    +0.000 A 
ATOM      9  C   UNL     1       2.193  13.152  18.141  0.00  0.00    +0.000 A 
ATOM     10  C   UNL     1       1.758  11.867  18.544  0.00  0.00    +0.000 A 
ATOM     11  C   UNL     1       2.324  10.565  18.318  0.00  0.00    +0.000 A 
ATOM     12  C   UNL     1       1.590   9.545  18.893  0.00  0.00    +0.000 A 
ATOM     13  S   UNL     1       0.209  10.156  19.694  0.00  0.00    +0.000 S 
ATOM     14  C   UNL     1       0.585  11.777  19.295  0.00  0.00    +0.000 A 
ATOM     15  C   UNL     1      -0.159  12.912  19.658  0.00  0.00    +0.000 A 
BRANCH   7  17
ATOM     16  C   UNL     1      -1.119  16.282  19.963  0.00  0.00    +0.000 C 
ATOM     17  C   UNL     1      -0.454  15.323  19.625  0.00  0.00    +0.000 C 
ENDBRANCH   7  17
ENDBRANCH   3  12
ENDBRANCH   2   5
ENDBRANCH   1   2
BRANCH   1  18
ATOM     18  C   UNL     1       1.173   3.879  20.086  0.00  0.00    +0.000 C 
BRANCH  18  19
ATOM     19  C   UNL     1       2.448   3.164  20.572  0.00  0.00    +0.000 C 
BRANCH  19  20
ATOM     20  N   UNL     1       3.005   2.313  19.507  0.00  0.00    +0.000 NA
ATOM     21  C   UNL     1       2.459   2.658  18.159  0.00  0.00    +0.000 C 
ATOM     22  C   UNL     1       2.944   3.996  17.508  0.00  0.00    +0.000 C 
ATOM     23  N   UNL     1       4.391   4.234  17.712  0.00  0.00    +0.000 N 
ATOM     24  C   UNL     1       4.900   3.873  19.040  0.00  0.00    +0.000 C 
ATOM     25  C   UNL     1       4.473   2.437  19.382  0.00  0.00    +0.000 C 
BRANCH  23  26
ATOM     26  C   UNL     1       5.287   4.556  16.700  0.00  0.00    +0.000 A 
ATOM     27  C   UNL     1       5.292   3.723  15.541  0.00  0.00    +0.000 A 
ATOM     28  C   UNL     1       6.200   3.838  14.504  0.00  0.00    +0.000 A 
ATOM     29  C   UNL     1       7.124   4.853  14.539  0.00  0.00    +0.000 A 
ATOM     30  C   UNL     1       7.124   5.723  15.606  0.00  0.00    +0.000 A 
ATOM     31  C   UNL     1       6.240   5.611  16.691  0.00  0.00    +0.000 A 
BRANCH  31  32
ATOM     32  O   UNL     1       6.422   6.478  17.747  0.00  0.00    +0.000 OA
ATOM     33  C   UNL     1       7.715   6.379  18.405  0.00  0.00    +0.000 C 
ENDBRANCH  31  32
ENDBRANCH  23  26
ENDBRANCH  19  20
ENDBRANCH  18  19
ENDBRANCH   1  18
TORSDOF 9
ENDMDL
MODEL 7
REMARK VINA RESULT:      -7.4      3.767     10.276
REMARK  Name = 
REMARK  10 active torsions:
REMARK  status: ('A' for Active; 'I' for Inactive)
REMARK    1  A    between atoms: C_2  and  C_3
REMARK    2  A    between atoms: C_8  and  C_9
REMARK    3  A    between atoms: N_11  and  C_12
REMARK    4  A    between atoms: C_12  and  C_13
REMARK    5  A    between atoms: C_13  and  C_14
REMARK    6  A    between atoms: C_14  and  C_15
REMARK    7  A    between atoms: C_15  and  N_16
REMARK    8  A    between atoms: N_19  and  C_20
REMARK    9  A    between atoms: C_25  and  O_26
REMARK   10  A    between atoms: O_26  and  C_27
REMARK                            x       y       z     vdW  Elec       q    Type
REMARK                         _______ _______ _______ _____ _____    ______ ____
ROOT
ATOM      1  C   UNL     1       1.300   9.212  22.154  0.00  0.00    +0.000 C 
ENDROOT
BRANCH   1   2
ATOM      2  C   UNL     1       0.989   7.805  21.690  0.00  0.00    +0.000 C 
BRANCH   2   5
ATOM      3  C   UNL     1       2.004   6.092  20.241  0.00  0.00    +0.000 C 
ATOM      4  O   UNL     1       1.567   5.167  20.929  0.00  0.00    +0.000 OA
ATOM      5  N   UNL     1       1.756   7.409  20.549  0.00  0.00    +0.000 N 
ATOM      6  H   UNL     1       2.117   8.126  19.929  0.00  0.00    +0.000 HD
BRANCH   3  12
ATOM      7  C   UNL     1       5.374   4.771  15.128  0.00  0.00    +0.000 A 
ATOM      8  C   UNL     1       5.588   6.145  15.190  0.00  0.00    +0.000 A 
ATOM      9  C   UNL     1       5.014   6.908  16.215  0.00  0.00    +0.000 A 
ATOM     10  C   UNL     1       4.209   6.288  17.200  0.00  0.00    +0.000 A 
ATOM     11  C   UNL     1       3.510   6.836  18.331  0.00  0.00    +0.000 A 
ATOM     12  C   UNL     1       2.818   5.885  19.056  0.00  0.00    +0.000 A 
ATOM     13  S   UNL     1       3.020   4.329  18.382  0.00  0.00    +0.000 S 
ATOM     14  C   UNL     1       4.016   4.909  17.116  0.00  0.00    +0.000 A 
ATOM     15  C   UNL     1       4.588   4.135  16.093  0.00  0.00    +0.000 A 
BRANCH   7  17
ATOM     16  C   UNL     1       6.471   3.354  13.192  0.00  0.00    +0.000 C 
ATOM     17  C   UNL     1       5.951   3.991  14.088  0.00  0.00    +0.000 C 
ENDBRANCH   7  17
ENDBRANCH   3  12
ENDBRANCH   2   5
ENDBRANCH   1   2
BRANCH   1  18
ATOM     18  C   UNL     1       0.055  10.073  21.964  0.00  0.00    +0.000 C 
BRANCH  18  19
ATOM     19  C   UNL     1      -0.335  10.429  20.517  0.00  0.00    +0.000 C 
BRANCH  19  20
ATOM     20  N   UNL     1      -1.235  11.595  20.493  0.00  0.00    +0.000 NA
ATOM     21  C   UNL     1      -0.789  12.678  21.422  0.00  0.00    +0.000 C 
ATOM     22  C   UNL     1       0.478  13.499  21.013  0.00  0.00    +0.000 C 
ATOM     23  N   UNL     1       0.504  13.820  19.568  0.00  0.00    +0.000 N 
ATOM     24  C   UNL     1       0.048  12.743  18.682  0.00  0.00    +0.000 C 
ATOM     25  C   UNL     1      -1.319  12.228  19.160  0.00  0.00    +0.000 C 
BRANCH  23  26
ATOM     26  C   UNL     1       0.715  15.091  19.047  0.00  0.00    +0.000 A 
ATOM     27  C   UNL     1      -0.436  15.901  18.812  0.00  0.00    +0.000 A 
ATOM     28  C   UNL     1      -0.404  17.137  18.190  0.00  0.00    +0.000 A 
ATOM     29  C   UNL     1       0.809  17.667  17.826  0.00  0.00    +0.000 A 
ATOM     30  C   UNL     1       1.957  16.952  18.084  0.00  0.00    +0.000 A 
ATOM     31  C   UNL     1       1.955  15.680  18.680  0.00  0.00    +0.000 A 
BRANCH  31  32
ATOM     32  O   UNL     1       3.165  15.026  18.777  0.00  0.00    +0.000 OA
ATOM     33  C   UNL     1       4.113  15.332  17.718  0.00  0.00    +0.000 C 
ENDBRANCH  31  32
ENDBRANCH  23  26
ENDBRANCH  19  20
ENDBRANCH  18  19
ENDBRANCH   1  18
TORSDOF 9
ENDMDL
MODEL 8
REMARK VINA RESULT:      -7.3      4.852      8.456
REMARK  Name = 
REMARK  10 active torsions:
REMARK  status: ('A' for Active; 'I' for Inactive)
REMARK    1  A    between atoms: C_2  and  C_3
REMARK    2  A    between atoms: C_8  and  C_9
REMARK    3  A    between atoms: N_11  and  C_12
REMARK    4  A    between atoms: C_12  and  C_13
REMARK    5  A    between atoms: C_13  and  C_14
REMARK    6  A    between atoms: C_14  and  C_15
REMARK    7  A    between atoms: C_15  and  N_16
REMARK    8  A    between atoms: N_19  and  C_20
REMARK    9  A    between atoms: C_25  and  O_26
REMARK   10  A    between atoms: O_26  and  C_27
REMARK                            x       y       z     vdW  Elec       q    Type
REMARK                         _______ _______ _______ _____ _____    ______ ____
ROOT
ATOM      1  C   UNL     1       6.885   5.438  19.442  0.00  0.00    +0.000 C 
ENDROOT
BRANCH   1   2
ATOM      2  C   UNL     1       7.970   5.943  18.514  0.00  0.00    +0.000 C 
BRANCH   2   5
ATOM      3  C   UNL     1       8.090   8.347  17.988  0.00  0.00    +0.000 C 
ATOM      4  O   UNL     1       7.444   8.211  16.947  0.00  0.00    +0.000 OA
ATOM      5  N   UNL     1       8.381   7.282  18.808  0.00  0.00    +0.000 N 
ATOM      6  H   UNL     1       8.891   7.460  19.667  0.00  0.00    +0.000 HD
BRANCH   3  12
ATOM      7  C   UNL     1      10.072  14.060  19.623  0.00  0.00    +0.000 A 
ATOM      8  C   UNL     1      10.653  13.318  20.648  0.00  0.00    +0.000 A 
ATOM      9  C   UNL     1      10.485  11.928  20.702  0.00  0.00    +0.000 A 
ATOM     10  C   UNL     1       9.722  11.263  19.714  0.00  0.00    +0.000 A 
ATOM     11  C   UNL     1       9.396   9.872  19.549  0.00  0.00    +0.000 A 
ATOM     12  C   UNL     1       8.607   9.625  18.442  0.00  0.00    +0.000 A 
ATOM     13  S   UNL     1       8.269  11.068  17.592  0.00  0.00    +0.000 S 
ATOM     14  C   UNL     1       9.156  12.031  18.696  0.00  0.00    +0.000 A 
ATOM     15  C   UNL     1       9.320  13.425  18.631  0.00  0.00    +0.000 A 
BRANCH   7  17
ATOM     16  C   UNL     1      10.352  16.682  19.547  0.00  0.00    +0.000 C 
ATOM     17  C   UNL     1      10.236  15.472  19.563  0.00  0.00    +0.000 C 
ENDBRANCH   7  17
ENDBRANCH   3  12
ENDBRANCH   2   5
ENDBRANCH   1   2
BRANCH   1  18
ATOM     18  C   UNL     1       5.855   4.675  18.615  0.00  0.00    +0.000 C 
BRANCH  18  19
ATOM     19  C   UNL     1       4.622   4.134  19.361  0.00  0.00    +0.000 C 
BRANCH  19  20
ATOM     20  N   UNL     1       3.394   4.386  18.588  0.00  0.00    +0.000 NA
ATOM     21  C   UNL     1       2.188   4.520  19.461  0.00  0.00    +0.000 C 
ATOM     22  C   UNL     1       2.060   5.824  20.315  0.00  0.00    +0.000 C 
ATOM     23  N   UNL     1       2.466   7.035  19.565  0.00  0.00    +0.000 N 
ATOM     24  C   UNL     1       3.645   6.869  18.706  0.00  0.00    +0.000 C 
ATOM     25  C   UNL     1       3.456   5.639  17.805  0.00  0.00    +0.000 C 
BRANCH  23  26
ATOM     26  C   UNL     1       1.704   8.193  19.467  0.00  0.00    +0.000 A 
ATOM     27  C   UNL     1       1.591   8.794  18.177  0.00  0.00    +0.000 A 
ATOM     28  C   UNL     1       0.971  10.007  17.936  0.00  0.00    +0.000 A 
ATOM     29  C   UNL     1       0.362  10.661  18.978  0.00  0.00    +0.000 A 
ATOM     30  C   UNL     1       0.390  10.095  20.233  0.00  0.00    +0.000 A 
ATOM     31  C   UNL     1       1.042   8.884  20.517  0.00  0.00    +0.000 A 
BRANCH  31  32
ATOM     32  O   UNL     1       1.090   8.488  21.837  0.00  0.00    +0.000 OA
ATOM     33  C   UNL     1       0.408   9.373  22.767  0.00  0.00    +0.000 C 
ENDBRANCH  31  32
ENDBRANCH  23  26
ENDBRANCH  19  20
ENDBRANCH  18  19
ENDBRANCH   1  18
TORSDOF 9
ENDMDL
MODEL 9
REMARK VINA RESULT:      -7.3      3.811     10.537
REMARK  Name = 
REMARK  10 active torsions:
REMARK  status: ('A' for Active; 'I' for Inactive)
REMARK    1  A    between atoms: C_2  and  C_3
REMARK    2  A    between atoms: C_8  and  C_9
REMARK    3  A    between atoms: N_11  and  C_12
REMARK    4  A    between atoms: C_12  and  C_13
REMARK    5  A    between atoms: C_13  and  C_14
REMARK    6  A    between atoms: C_14  and  C_15
REMARK    7  A    between atoms: C_15  and  N_16
REMARK    8  A    between atoms: N_19  and  C_20
REMARK    9  A    between atoms: C_25  and  O_26
REMARK   10  A    between atoms: O_26  and  C_27
REMARK                            x       y       z     vdW  Elec       q    Type
REMARK                         _______ _______ _______ _____ _____    ______ ____
ROOT
ATOM      1  C   UNL     1       1.308   8.759  21.340  0.00  0.00    +0.000 C 
ENDROOT
BRANCH   1   2
ATOM      2  C   UNL     1       1.386   7.250  21.241  0.00  0.00    +0.000 C 
BRANCH   2   5
ATOM      3  C   UNL     1       2.749   5.525  20.129  0.00  0.00    +0.000 C 
ATOM      4  O   UNL     1       2.495   4.684  20.994  0.00  0.00    +0.000 OA
ATOM      5  N   UNL     1       2.236   6.800  20.182  0.00  0.00    +0.000 N 
ATOM      6  H   UNL     1       2.456   7.440  19.425  0.00  0.00    +0.000 HD
BRANCH   3  12
ATOM      7  C   UNL     1       6.077   4.285  14.970  0.00  0.00    +0.000 A 
ATOM      8  C   UNL     1       7.102   4.742  15.794  0.00  0.00    +0.000 A 
ATOM      9  C   UNL     1       6.830   5.147  17.107  0.00  0.00    +0.000 A 
ATOM     10  C   UNL     1       5.508   5.094  17.610  0.00  0.00    +0.000 A 
ATOM     11  C   UNL     1       4.971   5.453  18.895  0.00  0.00    +0.000 A 
ATOM     12  C   UNL     1       3.606   5.259  18.989  0.00  0.00    +0.000 A 
ATOM     13  S   UNL     1       2.972   4.632  17.531  0.00  0.00    +0.000 S 
ATOM     14  C   UNL     1       4.502   4.627  16.763  0.00  0.00    +0.000 A 
ATOM     15  C   UNL     1       4.765   4.217  15.446  0.00  0.00    +0.000 A 
BRANCH   7  17
ATOM     16  C   UNL     1       6.538   3.507  12.491  0.00  0.00    +0.000 C 
ATOM     17  C   UNL     1       6.345   3.876  13.634  0.00  0.00    +0.000 C 
ENDBRANCH   7  17
ENDBRANCH   3  12
ENDBRANCH   2   5
ENDBRANCH   1   2
BRANCH   1  18
ATOM     18  C   UNL     1      -0.030   9.215  20.765  0.00  0.00    +0.000 C 
BRANCH  18  19
ATOM     19  C   UNL     1      -0.245  10.732  20.614  0.00  0.00    +0.000 C 
BRANCH  19  20
ATOM     20  N   UNL     1       0.008  11.157  19.227  0.00  0.00    +0.000 NA
ATOM     21  C   UNL     1      -1.049  12.082  18.713  0.00  0.00    +0.000 C 
ATOM     22  C   UNL     1      -1.067  13.539  19.282  0.00  0.00    +0.000 C 
ATOM     23  N   UNL     1       0.292  14.108  19.425  0.00  0.00    +0.000 N 
ATOM     24  C   UNL     1       1.311  13.174  19.918  0.00  0.00    +0.000 C 
ATOM     25  C   UNL     1       1.282  11.890  19.074  0.00  0.00    +0.000 C 
BRANCH  23  26
ATOM     26  C   UNL     1       0.682  15.350  18.937  0.00  0.00    +0.000 A 
ATOM     27  C   UNL     1      -0.352  16.250  18.540  0.00  0.00    +0.000 A 
ATOM     28  C   UNL     1      -0.128  17.470  17.926  0.00  0.00    +0.000 A 
ATOM     29  C   UNL     1       1.164  17.891  17.736  0.00  0.00    +0.000 A 
ATOM     30  C   UNL     1       2.200  17.086  18.154  0.00  0.00    +0.000 A 
ATOM     31  C   UNL     1       2.007  15.827  18.747  0.00  0.00    +0.000 A 
BRANCH  31  32
ATOM     32  O   UNL     1       3.131  15.076  19.015  0.00  0.00    +0.000 OA
ATOM     33  C   UNL     1       3.969  14.795  17.861  0.00  0.00    +0.000 C 
ENDBRANCH  31  32
ENDBRANCH  23  26
ENDBRANCH  19  20
ENDBRANCH  18  19
ENDBRANCH   1  18
TORSDOF 9
ENDMDL
