MODEL 1
REMARK VINA RESULT:      -6.4      0.000      0.000
REMARK  Name = 
REMARK  16 active torsions:
REMARK  status: ('A' for Active; 'I' for Inactive)
REMARK    1  A    between atoms: C_1  and  C_2
REMARK    2  A    between atoms: C_2  and  O_3
REMARK    3  A    between atoms: O_3  and  C_4
REMARK    4  A    between atoms: C_4  and  S_6
REMARK    5  A    between atoms: S_6  and  C_7
REMARK    6  A    between atoms: C_7  and  C_8
REMARK    7  A    between atoms: C_8  and  C_9
REMARK    8  A    between atoms: C_9  and  C_10
REMARK    9  A    between atoms: C_10  and  C_11
REMARK   10  A    between atoms: C_11  and  C_12
REMARK   11  A    between atoms: CA_13  and  N_14
REMARK   12  A    between atoms: CA_13  and  C_22
REMARK   13  A    between atoms: C_15  and  C_17
REMARK   14  A    between atoms: C_19  and  C_20
REMARK   15  A    between atoms: C_19  and  C_21
REMARK   16  A    between atoms: C_22  and  OXT_24
REMARK                            x       y       z     vdW  Elec       q    Type
REMARK                         _______ _______ _______ _____ _____    ______ ____
ROOT
ATOM      1  C   UNL     1       7.588   6.722  16.984  0.00  0.00    +0.000 C 
ATOM      2  CA  UNL     1       6.522   5.896  16.880  0.00  0.00    +0.000 C 
ENDROOT
BRANCH   2   3
ATOM      3  N   UNL     1       5.376   5.870  17.693  0.00  0.00    +0.000 N 
ATOM      4  C   UNL     1       5.075   5.042  18.766  0.00  0.00    +0.000 C 
ATOM      5  O   UNL     1       5.829   4.249  19.312  0.00  0.00    +0.000 OA
ATOM      6  H   UNL     1       4.675   6.558  17.448  0.00  0.00    +0.000 HD
BRANCH   4   7
ATOM      7  C   UNL     1       3.684   5.231  19.289  0.00  0.00    +0.000 C 
ATOM      8  C   UNL     1       2.683   6.041  18.500  0.00  0.00    +0.000 C 
ATOM      9  C   UNL     1       2.421   4.571  18.733  0.00  0.00    +0.000 C 
ATOM     10  C   UNL     1       2.427   3.672  17.517  0.00  0.00    +0.000 C 
ATOM     11  C   UNL     1       1.384   4.169  19.756  0.00  0.00    +0.000 C 
ENDBRANCH   4   7
ENDBRANCH   2   3
BRANCH   2  12
ATOM     12  C   UNL     1       6.640   4.842  15.818  0.00  0.00    +0.000 C 
ATOM     13  O   UNL     1       6.053   3.777  15.806  0.00  0.00    +0.000 OA
BRANCH  12  14
ATOM     14  OXT UNL     1       7.507   5.219  14.848  0.00  0.00    +0.000 OA
ATOM     15  HXT UNL     1       7.370   4.712  14.026  0.00  0.00    +0.000 HD
ENDBRANCH  12  14
ENDBRANCH   2  12
BRANCH   1  16
ATOM     16  C   UNL     1       7.746   7.735  18.065  0.00  0.00    +0.000 C 
BRANCH  16  17
ATOM     17  C   UNL     1       8.057   9.194  17.758  0.00  0.00    +0.000 C 
BRANCH  17  18
ATOM     18  C   UNL     1       8.991   9.727  18.868  0.00  0.00    +0.000 C 
BRANCH  18  19
ATOM     19  C   UNL     1       9.708  11.018  18.438  0.00  0.00    +0.000 C 
BRANCH  19  20
ATOM     20  C   UNL     1       9.306  12.236  19.251  0.00  0.00    +0.000 C 
BRANCH  20  21
ATOM     21  S   UNL     1      10.428  12.313  20.688  0.00  0.00    +0.000 S 
BRANCH  21  22
ATOM     22  C   UNL     1       9.506  13.347  21.759  0.00  0.00    +0.000 C 
ATOM     23  S   UNL     1       9.173  14.937  21.364  0.00  0.00    +0.000 S 
BRANCH  22  24
ATOM     24  O   UNL     1       9.030  12.768  22.892  0.00  0.00    +0.000 OA
BRANCH  24  26
ATOM     25  C   UNL     1       6.772  12.136  23.232  0.00  0.00    +0.000 C 
ATOM     26  C   UNL     1       8.153  11.627  22.867  0.00  0.00    +0.000 C 
ENDBRANCH  24  26
ENDBRANCH  22  24
ENDBRANCH  21  22
ENDBRANCH  20  21
ENDBRANCH  19  20
ENDBRANCH  18  19
ENDBRANCH  17  18
ENDBRANCH  16  17
ENDBRANCH   1  16
TORSDOF 13
ENDMDL
MODEL 2
REMARK VINA RESULT:      -6.3      5.337      8.106
REMARK  Name = 
REMARK  16 active torsions:
REMARK  status: ('A' for Active; 'I' for Inactive)
REMARK    1  A    between atoms: C_1  and  C_2
REMARK    2  A    between atoms: C_2  and  O_3
REMARK    3  A    between atoms: O_3  and  C_4
REMARK    4  A    between atoms: C_4  and  S_6
REMARK    5  A    between atoms: S_6  and  C_7
REMARK    6  A    between atoms: C_7  and  C_8
REMARK    7  A    between atoms: C_8  and  C_9
REMARK    8  A    between atoms: C_9  and  C_10
REMARK    9  A    between atoms: C_10  and  C_11
REMARK   10  A    between atoms: C_11  and  C_12
REMARK   11  A    between atoms: CA_13  and  N_14
REMARK   12  A    between atoms: CA_13  and  C_22
REMARK   13  A    between atoms: C_15  and  C_17
REMARK   14  A    between atoms: C_19  and  C_20
REMARK   15  A    between atoms: C_19  and  C_21
REMARK   16  A    between atoms: C_22  and  OXT_24
REMARK                            x       y       z     vdW  Elec       q    Type
REMARK                         _______ _______ _______ _____ _____    ______ ____
ROOT
ATOM      1  C   UNL     1       4.950   7.068  17.838  0.00  0.00    +0.000 C 
ATOM      2  CA  UNL     1       5.924   6.520  17.075  0.00  0.00    +0.000 C 
ENDROOT
BRANCH   2   3
ATOM      3  N   UNL     1       5.779   5.559  16.061  0.00  0.00    +0.000 N 
ATOM      4  C   UNL     1       6.673   4.585  15.635  0.00  0.00    +0.000 C 
ATOM      5  O   UNL     1       7.729   4.278  16.169  0.00  0.00    +0.000 OA
ATOM      6  H   UNL     1       4.891   5.595  15.576  0.00  0.00    +0.000 HD
BRANCH   4   7
ATOM      7  C   UNL     1       6.205   3.840  14.423  0.00  0.00    +0.000 C 
ATOM      8  C   UNL     1       5.269   4.505  13.441  0.00  0.00    +0.000 C 
ATOM      9  C   UNL     1       6.651   4.102  12.984  0.00  0.00    +0.000 C 
ATOM     10  C   UNL     1       7.600   5.216  12.604  0.00  0.00    +0.000 C 
ATOM     11  C   UNL     1       6.801   2.878  12.109  0.00  0.00    +0.000 C 
ENDBRANCH   4   7
ENDBRANCH   2   3
BRANCH   2  12
ATOM     12  C   UNL     1       7.319   6.944  17.432  0.00  0.00    +0.000 C 
ATOM     13  O   UNL     1       7.931   7.867  16.927  0.00  0.00    +0.000 OA
BRANCH  12  14
ATOM     14  OXT UNL     1       7.838   6.155  18.402  0.00  0.00    +0.000 OA
ATOM     15  HXT UNL     1       8.703   5.786  18.141  0.00  0.00    +0.000 HD
ENDBRANCH  12  14
ENDBRANCH   2  12
BRANCH   1  16
ATOM     16  C   UNL     1       3.516   6.671  17.757  0.00  0.00    +0.000 C 
BRANCH  16  17
ATOM     17  C   UNL     1       2.401   7.592  18.232  0.00  0.00    +0.000 C 
BRANCH  17  18
ATOM     18  C   UNL     1       2.101   7.257  19.710  0.00  0.00    +0.000 C 
BRANCH  18  19
ATOM     19  C   UNL     1       2.456   5.799  20.048  0.00  0.00    +0.000 C 
BRANCH  19  20
ATOM     20  C   UNL     1       1.305   5.018  20.658  0.00  0.00    +0.000 C 
BRANCH  20  21
ATOM     21  S   UNL     1       1.998   3.455  21.295  0.00  0.00    +0.000 S 
BRANCH  21  22
ATOM     22  C   UNL     1       2.049   2.505  19.824  0.00  0.00    +0.000 C 
ATOM     23  S   UNL     1       0.746   2.445  18.779  0.00  0.00    +0.000 S 
BRANCH  22  24
ATOM     24  O   UNL     1       3.221   1.873  19.557  0.00  0.00    +0.000 OA
BRANCH  24  26
ATOM     25  C   UNL     1       4.885   3.468  19.007  0.00  0.00    +0.000 C 
ATOM     26  C   UNL     1       4.493   2.386  19.995  0.00  0.00    +0.000 C 
ENDBRANCH  24  26
ENDBRANCH  22  24
ENDBRANCH  21  22
ENDBRANCH  20  21
ENDBRANCH  19  20
ENDBRANCH  18  19
ENDBRANCH  17  18
ENDBRANCH  16  17
ENDBRANCH   1  16
TORSDOF 13
ENDMDL
MODEL 3
REMARK VINA RESULT:      -6.2      4.900      7.235
REMARK  Name = 
REMARK  16 active torsions:
REMARK  status: ('A' for Active; 'I' for Inactive)
REMARK    1  A    between atoms: C_1  and  C_2
REMARK    2  A    between atoms: C_2  and  O_3
REMARK    3  A    between atoms: O_3  and  C_4
REMARK    4  A    between atoms: C_4  and  S_6
REMARK    5  A    between atoms: S_6  and  C_7
REMARK    6  A    between atoms: C_7  and  C_8
REMARK    7  A    between atoms: C_8  and  C_9
REMARK    8  A    between atoms: C_9  and  C_10
REMARK    9  A    between atoms: C_10  and  C_11
REMARK   10  A    between atoms: C_11  and  C_12
REMARK   11  A    between atoms: CA_13  and  N_14
REMARK   12  A    between atoms: CA_13  and  C_22
REMARK   13  A    between atoms: C_15  and  C_17
REMARK   14  A    between atoms: C_19  and  C_20
REMARK   15  A    between atoms: C_19  and  C_21
REMARK   16  A    between atoms: C_22  and  OXT_24
REMARK                            x       y       z     vdW  Elec       q    Type
REMARK                         _______ _______ _______ _____ _____    ______ ____
ROOT
ATOM      1  C   UNL     1       1.553   4.732  19.922  0.00  0.00    +0.000 C 
ATOM      2  CA  UNL     1       2.440   4.450  18.941  0.00  0.00    +0.000 C 
ENDROOT
BRANCH   2   3
ATOM      3  N   UNL     1       3.714   5.011  18.749  0.00  0.00    +0.000 N 
ATOM      4  C   UNL     1       4.963   4.489  19.060  0.00  0.00    +0.000 C 
ATOM      5  O   UNL     1       5.206   3.353  19.441  0.00  0.00    +0.000 OA
ATOM      6  H   UNL     1       3.705   5.930  18.325  0.00  0.00    +0.000 HD
BRANCH   4   7
ATOM      7  C   UNL     1       6.083   5.456  18.832  0.00  0.00    +0.000 C 
ATOM      8  C   UNL     1       7.426   4.957  18.352  0.00  0.00    +0.000 C 
ATOM      9  C   UNL     1       6.628   5.888  17.469  0.00  0.00    +0.000 C 
ATOM     10  C   UNL     1       6.120   5.325  16.161  0.00  0.00    +0.000 C 
ATOM     11  C   UNL     1       7.055   7.334  17.360  0.00  0.00    +0.000 C 
ENDBRANCH   4   7
ENDBRANCH   2   3
BRANCH   2  12
ATOM     12  C   UNL     1       1.947   3.483  17.904  0.00  0.00    +0.000 C 
ATOM     13  O   UNL     1       2.440   3.308  16.806  0.00  0.00    +0.000 OA
BRANCH  12  14
ATOM     14  OXT UNL     1       0.853   2.813  18.339  0.00  0.00    +0.000 OA
ATOM     15  HXT UNL     1       0.216   3.410  18.774  0.00  0.00    +0.000 HD
ENDBRANCH  12  14
ENDBRANCH   2  12
BRANCH   1  16
ATOM     16  C   UNL     1       1.777   5.777  20.962  0.00  0.00    +0.000 C 
BRANCH  16  17
ATOM     17  C   UNL     1       1.814   7.259  20.615  0.00  0.00    +0.000 C 
BRANCH  17  18
ATOM     18  C   UNL     1       0.648   7.952  21.357  0.00  0.00    +0.000 C 
BRANCH  18  19
ATOM     19  C   UNL     1       1.015   9.382  21.784  0.00  0.00    +0.000 C 
BRANCH  19  20
ATOM     20  C   UNL     1      -0.007  10.424  21.365  0.00  0.00    +0.000 C 
BRANCH  20  21
ATOM     21  S   UNL     1       0.649  11.246  19.874  0.00  0.00    +0.000 S 
BRANCH  21  22
ATOM     22  C   UNL     1      -0.151  10.321  18.620  0.00  0.00    +0.000 C 
ATOM     23  S   UNL     1      -1.803  10.417  18.385  0.00  0.00    +0.000 S 
BRANCH  22  24
ATOM     24  O   UNL     1       0.652   9.574  17.819  0.00  0.00    +0.000 OA
BRANCH  24  26
ATOM     25  C   UNL     1       2.613   8.256  17.644  0.00  0.00    +0.000 C 
ATOM     26  C   UNL     1       2.088   9.661  17.867  0.00  0.00    +0.000 C 
ENDBRANCH  24  26
ENDBRANCH  22  24
ENDBRANCH  21  22
ENDBRANCH  20  21
ENDBRANCH  19  20
ENDBRANCH  18  19
ENDBRANCH  17  18
ENDBRANCH  16  17
ENDBRANCH   1  16
TORSDOF 13
ENDMDL
MODEL 4
REMARK VINA RESULT:      -6.2      1.568      2.133
REMARK  Name = 
REMARK  16 active torsions:
REMARK  status: ('A' for Active; 'I' for Inactive)
REMARK    1  A    between atoms: C_1  and  C_2
REMARK    2  A    between atoms: C_2  and  O_3
REMARK    3  A    between atoms: O_3  and  C_4
REMARK    4  A    between atoms: C_4  and  S_6
REMARK    5  A    between atoms: S_6  and  C_7
REMARK    6  A    between atoms: C_7  and  C_8
REMARK    7  A    between atoms: C_8  and  C_9
REMARK    8  A    between atoms: C_9  and  C_10
REMARK    9  A    between atoms: C_10  and  C_11
REMARK   10  A    between atoms: C_11  and  C_12
REMARK   11  A    between atoms: CA_13  and  N_14
REMARK   12  A    between atoms: CA_13  and  C_22
REMARK   13  A    between atoms: C_15  and  C_17
REMARK   14  A    between atoms: C_19  and  C_20
REMARK   15  A    between atoms: C_19  and  C_21
REMARK   16  A    between atoms: C_22  and  OXT_24
REMARK                            x       y       z     vdW  Elec       q    Type
REMARK                         _______ _______ _______ _____ _____    ______ ____
ROOT
ATOM      1  C   UNL     1       7.079   6.552  16.778  0.00  0.00    +0.000 C 
ATOM      2  CA  UNL     1       5.963   5.791  16.859  0.00  0.00    +0.000 C 
ENDROOT
BRANCH   2   3
ATOM      3  N   UNL     1       4.989   5.802  17.872  0.00  0.00    +0.000 N 
ATOM      4  C   UNL     1       4.761   4.880  18.885  0.00  0.00    +0.000 C 
ATOM      5  O   UNL     1       5.470   3.929  19.182  0.00  0.00    +0.000 OA
ATOM      6  H   UNL     1       4.370   6.602  17.847  0.00  0.00    +0.000 HD
BRANCH   4   7
ATOM      7  C   UNL     1       3.531   5.174  19.688  0.00  0.00    +0.000 C 
ATOM      8  C   UNL     1       2.594   6.277  19.259  0.00  0.00    +0.000 C 
ATOM      9  C   UNL     1       2.094   4.851  19.275  0.00  0.00    +0.000 C 
ATOM     10  C   UNL     1       1.738   4.235  17.942  0.00  0.00    +0.000 C 
ATOM     11  C   UNL     1       1.172   4.415  20.390  0.00  0.00    +0.000 C 
ENDBRANCH   4   7
ENDBRANCH   2   3
BRANCH   2  12
ATOM     12  C   UNL     1       5.815   4.769  15.770  0.00  0.00    +0.000 C 
ATOM     13  O   UNL     1       5.540   5.003  14.609  0.00  0.00    +0.000 OA
BRANCH  12  14
ATOM     14  OXT UNL     1       6.020   3.516  16.243  0.00  0.00    +0.000 OA
ATOM     15  HXT UNL     1       5.183   3.086  16.496  0.00  0.00    +0.000 HD
ENDBRANCH  12  14
ENDBRANCH   2  12
BRANCH   1  16
ATOM     16  C   UNL     1       7.497   7.518  17.833  0.00  0.00    +0.000 C 
BRANCH  16  17
ATOM     17  C   UNL     1       8.227   8.810  17.493  0.00  0.00    +0.000 C 
BRANCH  17  18
ATOM     18  C   UNL     1       8.830   9.377  18.798  0.00  0.00    +0.000 C 
BRANCH  18  19
ATOM     19  C   UNL     1       9.296  10.832  18.627  0.00  0.00    +0.000 C 
BRANCH  19  20
ATOM     20  C   UNL     1      10.639  11.121  19.274  0.00  0.00    +0.000 C 
BRANCH  20  21
ATOM     21  S   UNL     1      10.699  12.916  19.600  0.00  0.00    +0.000 S 
BRANCH  21  22
ATOM     22  C   UNL     1       9.128  13.160  20.334  0.00  0.00    +0.000 C 
ATOM     23  S   UNL     1       8.768  12.551  21.848  0.00  0.00    +0.000 S 
BRANCH  22  24
ATOM     24  O   UNL     1       8.247  13.919  19.631  0.00  0.00    +0.000 OA
BRANCH  24  26
ATOM     25  C   UNL     1       7.604  15.552  18.038  0.00  0.00    +0.000 C 
ATOM     26  C   UNL     1       8.509  14.360  18.286  0.00  0.00    +0.000 C 
ENDBRANCH  24  26
ENDBRANCH  22  24
ENDBRANCH  21  22
ENDBRANCH  20  21
ENDBRANCH  19  20
ENDBRANCH  18  19
ENDBRANCH  17  18
ENDBRANCH  16  17
ENDBRANCH   1  16
TORSDOF 13
ENDMDL
MODEL 5
REMARK VINA RESULT:      -6.2      2.643      3.299
REMARK  Name = 
REMARK  16 active torsions:
REMARK  status: ('A' for Active; 'I' for Inactive)
REMARK    1  A    between atoms: C_1  and  C_2
REMARK    2  A    between atoms: C_2  and  O_3
REMARK    3  A    between atoms: O_3  and  C_4
REMARK    4  A    between atoms: C_4  and  S_6
REMARK    5  A    between atoms: S_6  and  C_7
REMARK    6  A    between atoms: C_7  and  C_8
REMARK    7  A    between atoms: C_8  and  C_9
REMARK    8  A    between atoms: C_9  and  C_10
REMARK    9  A    between atoms: C_10  and  C_11
REMARK   10  A    between atoms: C_11  and  C_12
REMARK   11  A    between atoms: CA_13  and  N_14
REMARK   12  A    between atoms: CA_13  and  C_22
REMARK   13  A    between atoms: C_15  and  C_17
REMARK   14  A    between atoms: C_19  and  C_20
REMARK   15  A    between atoms: C_19  and  C_21
REMARK   16  A    between atoms: C_22  and  OXT_24
REMARK                            x       y       z     vdW  Elec       q    Type
REMARK                         _______ _______ _______ _____ _____    ______ ____
ROOT
ATOM      1  C   UNL     1       7.337   4.813  16.397  0.00  0.00    +0.000 C 
ATOM      2  CA  UNL     1       6.323   4.276  15.680  0.00  0.00    +0.000 C 
ENDROOT
BRANCH   2   3
ATOM      3  N   UNL     1       5.183   3.617  16.170  0.00  0.00    +0.000 N 
ATOM      4  C   UNL     1       4.105   4.129  16.880  0.00  0.00    +0.000 C 
ATOM      5  O   UNL     1       3.868   5.309  17.099  0.00  0.00    +0.000 OA
ATOM      6  H   UNL     1       5.157   2.624  15.971  0.00  0.00    +0.000 HD
BRANCH   4   7
ATOM      7  C   UNL     1       3.150   3.076  17.350  0.00  0.00    +0.000 C 
ATOM      8  C   UNL     1       3.659   1.888  18.132  0.00  0.00    +0.000 C 
ATOM      9  C   UNL     1       2.704   2.853  18.796  0.00  0.00    +0.000 C 
ATOM     10  C   UNL     1       3.241   3.657  19.958  0.00  0.00    +0.000 C 
ATOM     11  C   UNL     1       1.263   2.438  18.984  0.00  0.00    +0.000 C 
ENDBRANCH   4   7
ENDBRANCH   2   3
BRANCH   2  12
ATOM     12  C   UNL     1       6.503   4.333  14.191  0.00  0.00    +0.000 C 
ATOM     13  O   UNL     1       5.916   3.645  13.378  0.00  0.00    +0.000 OA
BRANCH  12  14
ATOM     14  OXT UNL     1       7.428   5.260  13.845  0.00  0.00    +0.000 OA
ATOM     15  HXT UNL     1       7.555   5.922  14.550  0.00  0.00    +0.000 HD
ENDBRANCH  12  14
ENDBRANCH   2  12
BRANCH   1  16
ATOM     16  C   UNL     1       7.435   4.726  17.882  0.00  0.00    +0.000 C 
BRANCH  16  17
ATOM     17  C   UNL     1       7.127   5.919  18.776  0.00  0.00    +0.000 C 
BRANCH  17  18
ATOM     18  C   UNL     1       8.184   7.012  18.496  0.00  0.00    +0.000 C 
BRANCH  18  19
ATOM     19  C   UNL     1       7.547   8.285  17.915  0.00  0.00    +0.000 C 
BRANCH  19  20
ATOM     20  C   UNL     1       8.549   9.388  17.621  0.00  0.00    +0.000 C 
BRANCH  20  21
ATOM     21  S   UNL     1       9.112  10.040  19.230  0.00  0.00    +0.000 S 
BRANCH  21  22
ATOM     22  C   UNL     1       9.728  11.606  18.742  0.00  0.00    +0.000 C 
ATOM     23  S   UNL     1      11.123  11.751  17.835  0.00  0.00    +0.000 S 
BRANCH  22  24
ATOM     24  O   UNL     1       8.977  12.682  19.092  0.00  0.00    +0.000 OA
BRANCH  24  26
ATOM     25  C   UNL     1       7.579  13.000  17.205  0.00  0.00    +0.000 C 
ATOM     26  C   UNL     1       8.562  13.678  18.139  0.00  0.00    +0.000 C 
ENDBRANCH  24  26
ENDBRANCH  22  24
ENDBRANCH  21  22
ENDBRANCH  20  21
ENDBRANCH  19  20
ENDBRANCH  18  19
ENDBRANCH  17  18
ENDBRANCH  16  17
ENDBRANCH   1  16
TORSDOF 13
ENDMDL
MODEL 6
REMARK VINA RESULT:      -6.2      2.136      2.887
REMARK  Name = 
REMARK  16 active torsions:
REMARK  status: ('A' for Active; 'I' for Inactive)
REMARK    1  A    between atoms: C_1  and  C_2
REMARK    2  A    between atoms: C_2  and  O_3
REMARK    3  A    between atoms: O_3  and  C_4
REMARK    4  A    between atoms: C_4  and  S_6
REMARK    5  A    between atoms: S_6  and  C_7
REMARK    6  A    between atoms: C_7  and  C_8
REMARK    7  A    between atoms: C_8  and  C_9
REMARK    8  A    between atoms: C_9  and  C_10
REMARK    9  A    between atoms: C_10  and  C_11
REMARK   10  A    between atoms: C_11  and  C_12
REMARK   11  A    between atoms: CA_13  and  N_14
REMARK   12  A    between atoms: CA_13  and  C_22
REMARK   13  A    between atoms: C_15  and  C_17
REMARK   14  A    between atoms: C_19  and  C_20
REMARK   15  A    between atoms: C_19  and  C_21
REMARK   16  A    between atoms: C_22  and  OXT_24
REMARK                            x       y       z     vdW  Elec       q    Type
REMARK                         _______ _______ _______ _____ _____    ______ ____
ROOT
ATOM      1  C   UNL     1       7.282   6.715  16.848  0.00  0.00    +0.000 C 
ATOM      2  CA  UNL     1       6.296   5.788  16.873  0.00  0.00    +0.000 C 
ENDROOT
BRANCH   2   3
ATOM      3  N   UNL     1       5.110   5.817  17.627  0.00  0.00    +0.000 N 
ATOM      4  C   UNL     1       4.781   5.116  18.779  0.00  0.00    +0.000 C 
ATOM      5  O   UNL     1       5.532   4.427  19.455  0.00  0.00    +0.000 OA
ATOM      6  H   UNL     1       4.401   6.442  17.264  0.00  0.00    +0.000 HD
BRANCH   4   7
ATOM      7  C   UNL     1       3.360   5.313  19.208  0.00  0.00    +0.000 C 
ATOM      8  C   UNL     1       2.277   5.501  18.171  0.00  0.00    +0.000 C 
ATOM      9  C   UNL     1       2.233   4.287  19.071  0.00  0.00    +0.000 C 
ATOM     10  C   UNL     1       2.421   2.939  18.413  0.00  0.00    +0.000 C 
ATOM     11  C   UNL     1       1.232   4.255  20.203  0.00  0.00    +0.000 C 
ENDBRANCH   4   7
ENDBRANCH   2   3
BRANCH   2  12
ATOM     12  C   UNL     1       6.564   4.559  16.054  0.00  0.00    +0.000 C 
ATOM     13  O   UNL     1       5.788   3.640  15.878  0.00  0.00    +0.000 OA
BRANCH  12  14
ATOM     14  OXT UNL     1       7.811   4.586  15.524  0.00  0.00    +0.000 OA
ATOM     15  HXT UNL     1       8.467   4.918  16.165  0.00  0.00    +0.000 HD
ENDBRANCH  12  14
ENDBRANCH   2  12
BRANCH   1  16
ATOM     16  C   UNL     1       7.289   7.934  17.705  0.00  0.00    +0.000 C 
BRANCH  16  17
ATOM     17  C   UNL     1       8.575   8.479  18.312  0.00  0.00    +0.000 C 
BRANCH  17  18
ATOM     18  C   UNL     1       8.505  10.022  18.274  0.00  0.00    +0.000 C 
BRANCH  18  19
ATOM     19  C   UNL     1       9.654  10.665  19.067  0.00  0.00    +0.000 C 
BRANCH  19  20
ATOM     20  C   UNL     1      10.636  11.435  18.201  0.00  0.00    +0.000 C 
BRANCH  20  21
ATOM     21  S   UNL     1       9.826  13.005  17.741  0.00  0.00    +0.000 S 
BRANCH  21  22
ATOM     22  C   UNL     1      10.767  14.139  18.687  0.00  0.00    +0.000 C 
ATOM     23  S   UNL     1      10.758  14.101  20.358  0.00  0.00    +0.000 S 
BRANCH  22  24
ATOM     24  O   UNL     1      11.543  15.006  17.987  0.00  0.00    +0.000 OA
BRANCH  24  26
ATOM     25  C   UNL     1      10.220  16.911  17.501  0.00  0.00    +0.000 C 
ATOM     26  C   UNL     1      11.034  15.787  16.890  0.00  0.00    +0.000 C 
ENDBRANCH  24  26
ENDBRANCH  22  24
ENDBRANCH  21  22
ENDBRANCH  20  21
ENDBRANCH  19  20
ENDBRANCH  18  19
ENDBRANCH  17  18
ENDBRANCH  16  17
ENDBRANCH   1  16
TORSDOF 13
ENDMDL
MODEL 7
REMARK VINA RESULT:      -6.2      1.960      2.245
REMARK  Name = 
REMARK  16 active torsions:
REMARK  status: ('A' for Active; 'I' for Inactive)
REMARK    1  A    between atoms: C_1  and  C_2
REMARK    2  A    between atoms: C_2  and  O_3
REMARK    3  A    between atoms: O_3  and  C_4
REMARK    4  A    between atoms: C_4  and  S_6
REMARK    5  A    between atoms: S_6  and  C_7
REMARK    6  A    between atoms: C_7  and  C_8
REMARK    7  A    between atoms: C_8  and  C_9
REMARK    8  A    between atoms: C_9  and  C_10
REMARK    9  A    between atoms: C_10  and  C_11
REMARK   10  A    between atoms: C_11  and  C_12
REMARK   11  A    between atoms: CA_13  and  N_14
REMARK   12  A    between atoms: CA_13  and  C_22
REMARK   13  A    between atoms: C_15  and  C_17
REMARK   14  A    between atoms: C_19  and  C_20
REMARK   15  A    between atoms: C_19  and  C_21
REMARK   16  A    between atoms: C_22  and  OXT_24
REMARK                            x       y       z     vdW  Elec       q    Type
REMARK                         _______ _______ _______ _____ _____    ______ ____
ROOT
ATOM      1  C   UNL     1       7.630   7.035  17.059  0.00  0.00    +0.000 C 
ATOM      2  CA  UNL     1       6.770   6.020  17.305  0.00  0.00    +0.000 C 
ENDROOT
BRANCH   2   3
ATOM      3  N   UNL     1       5.635   6.040  18.134  0.00  0.00    +0.000 N 
ATOM      4  C   UNL     1       5.166   5.068  19.009  0.00  0.00    +0.000 C 
ATOM      5  O   UNL     1       5.743   4.041  19.338  0.00  0.00    +0.000 OA
ATOM      6  H   UNL     1       5.088   6.889  18.073  0.00  0.00    +0.000 HD
BRANCH   4   7
ATOM      7  C   UNL     1       3.838   5.406  19.612  0.00  0.00    +0.000 C 
ATOM      8  C   UNL     1       2.924   6.392  18.925  0.00  0.00    +0.000 C 
ATOM      9  C   UNL     1       2.475   4.958  19.083  0.00  0.00    +0.000 C 
ATOM     10  C   UNL     1       2.307   4.149  17.817  0.00  0.00    +0.000 C 
ATOM     11  C   UNL     1       1.437   4.631  20.132  0.00  0.00    +0.000 C 
ENDBRANCH   4   7
ENDBRANCH   2   3
BRANCH   2  12
ATOM     12  C   UNL     1       7.140   4.712  16.670  0.00  0.00    +0.000 C 
ATOM     13  O   UNL     1       6.640   4.243  15.665  0.00  0.00    +0.000 OA
BRANCH  12  14
ATOM     14  OXT UNL     1       8.117   4.087  17.370  0.00  0.00    +0.000 OA
ATOM     15  HXT UNL     1       7.999   4.200  18.331  0.00  0.00    +0.000 HD
ENDBRANCH  12  14
ENDBRANCH   2  12
BRANCH   1  16
ATOM     16  C   UNL     1       7.537   8.372  17.711  0.00  0.00    +0.000 C 
BRANCH  16  17
ATOM     17  C   UNL     1       8.693   8.957  18.510  0.00  0.00    +0.000 C 
BRANCH  17  18
ATOM     18  C   UNL     1       8.655  10.494  18.351  0.00  0.00    +0.000 C 
BRANCH  18  19
ATOM     19  C   UNL     1      10.032  11.062  17.969  0.00  0.00    +0.000 C 
BRANCH  19  20
ATOM     20  C   UNL     1      10.472  12.227  18.838  0.00  0.00    +0.000 C 
BRANCH  20  21
ATOM     21  S   UNL     1       9.781  13.742  18.091  0.00  0.00    +0.000 S 
BRANCH  21  22
ATOM     22  C   UNL     1       8.888  14.391  19.451  0.00  0.00    +0.000 C 
ATOM     23  S   UNL     1       9.641  14.748  20.899  0.00  0.00    +0.000 S 
BRANCH  22  24
ATOM     24  O   UNL     1       7.569  14.639  19.240  0.00  0.00    +0.000 OA
BRANCH  24  26
ATOM     25  C   UNL     1       6.807  16.842  18.814  0.00  0.00    +0.000 C 
ATOM     26  C   UNL     1       6.883  15.745  19.857  0.00  0.00    +0.000 C 
ENDBRANCH  24  26
ENDBRANCH  22  24
ENDBRANCH  21  22
ENDBRANCH  20  21
ENDBRANCH  19  20
ENDBRANCH  18  19
ENDBRANCH  17  18
ENDBRANCH  16  17
ENDBRANCH   1  16
TORSDOF 13
ENDMDL
MODEL 8
REMARK VINA RESULT:      -6.2      6.120      8.369
REMARK  Name = 
REMARK  16 active torsions:
REMARK  status: ('A' for Active; 'I' for Inactive)
REMARK    1  A    between atoms: C_1  and  C_2
REMARK    2  A    between atoms: C_2  and  O_3
REMARK    3  A    between atoms: O_3  and  C_4
REMARK    4  A    between atoms: C_4  and  S_6
REMARK    5  A    between atoms: S_6  and  C_7
REMARK    6  A    between atoms: C_7  and  C_8
REMARK    7  A    between atoms: C_8  and  C_9
REMARK    8  A    between atoms: C_9  and  C_10
REMARK    9  A    between atoms: C_10  and  C_11
REMARK   10  A    between atoms: C_11  and  C_12
REMARK   11  A    between atoms: CA_13  and  N_14
REMARK   12  A    between atoms: CA_13  and  C_22
REMARK   13  A    between atoms: C_15  and  C_17
REMARK   14  A    between atoms: C_19  and  C_20
REMARK   15  A    between atoms: C_19  and  C_21
REMARK   16  A    between atoms: C_22  and  OXT_24
REMARK                            x       y       z     vdW  Elec       q    Type
REMARK                         _______ _______ _______ _____ _____    ______ ____
ROOT
ATOM      1  C   UNL     1       3.250   7.652  17.721  0.00  0.00    +0.000 C 
ATOM      2  CA  UNL     1       3.483   6.324  17.829  0.00  0.00    +0.000 C 
ENDROOT
BRANCH   2   3
ATOM      3  N   UNL     1       2.784   5.392  18.614  0.00  0.00    +0.000 N 
ATOM      4  C   UNL     1       1.783   4.503  18.244  0.00  0.00    +0.000 C 
ATOM      5  O   UNL     1       1.408   4.256  17.107  0.00  0.00    +0.000 OA
ATOM      6  H   UNL     1       3.056   5.379  19.589  0.00  0.00    +0.000 HD
BRANCH   4   7
ATOM      7  C   UNL     1       1.184   3.769  19.404  0.00  0.00    +0.000 C 
ATOM      8  C   UNL     1       0.795   2.316  19.259  0.00  0.00    +0.000 C 
ATOM      9  C   UNL     1       1.881   2.694  20.240  0.00  0.00    +0.000 C 
ATOM     10  C   UNL     1       3.277   2.195  19.943  0.00  0.00    +0.000 C 
ATOM     11  C   UNL     1       1.560   2.699  21.717  0.00  0.00    +0.000 C 
ENDBRANCH   4   7
ENDBRANCH   2   3
BRANCH   2  12
ATOM     12  C   UNL     1       4.686   5.831  17.078  0.00  0.00    +0.000 C 
ATOM     13  O   UNL     1       4.683   4.968  16.221  0.00  0.00    +0.000 OA
BRANCH  12  14
ATOM     14  OXT UNL     1       5.811   6.469  17.482  0.00  0.00    +0.000 OA
ATOM     15  HXT UNL     1       6.583   6.207  16.947  0.00  0.00    +0.000 HD
ENDBRANCH  12  14
ENDBRANCH   2  12
BRANCH   1  16
ATOM     16  C   UNL     1       2.205   8.373  18.502  0.00  0.00    +0.000 C 
BRANCH  16  17
ATOM     17  C   UNL     1       1.379   9.496  17.891  0.00  0.00    +0.000 C 
BRANCH  17  18
ATOM     18  C   UNL     1       1.015  10.490  19.018  0.00  0.00    +0.000 C 
BRANCH  18  19
ATOM     19  C   UNL     1      -0.449  10.337  19.461  0.00  0.00    +0.000 C 
BRANCH  19  20
ATOM     20  C   UNL     1      -1.412  10.094  18.312  0.00  0.00    +0.000 C 
BRANCH  20  21
ATOM     21  S   UNL     1      -1.985  11.730  17.741  0.00  0.00    +0.000 S 
BRANCH  21  22
ATOM     22  C   UNL     1      -3.676  11.390  17.441  0.00  0.00    +0.000 C 
ATOM     23  S   UNL     1      -4.855  11.768  18.563  0.00  0.00    +0.000 S 
BRANCH  22  24
ATOM     24  O   UNL     1      -3.977  10.858  16.227  0.00  0.00    +0.000 OA
BRANCH  24  26
ATOM     25  C   UNL     1      -3.689   9.970  14.049  0.00  0.00    +0.000 C 
ATOM     26  C   UNL     1      -2.975  10.611  15.223  0.00  0.00    +0.000 C 
ENDBRANCH  24  26
ENDBRANCH  22  24
ENDBRANCH  21  22
ENDBRANCH  20  21
ENDBRANCH  19  20
ENDBRANCH  18  19
ENDBRANCH  17  18
ENDBRANCH  16  17
ENDBRANCH   1  16
TORSDOF 13
ENDMDL
MODEL 9
REMARK VINA RESULT:      -6.2      5.590      6.989
REMARK  Name = 
REMARK  16 active torsions:
REMARK  status: ('A' for Active; 'I' for Inactive)
REMARK    1  A    between atoms: C_1  and  C_2
REMARK    2  A    between atoms: C_2  and  O_3
REMARK    3  A    between atoms: O_3  and  C_4
REMARK    4  A    between atoms: C_4  and  S_6
REMARK    5  A    between atoms: S_6  and  C_7
REMARK    6  A    between atoms: C_7  and  C_8
REMARK    7  A    between atoms: C_8  and  C_9
REMARK    8  A    between atoms: C_9  and  C_10
REMARK    9  A    between atoms: C_10  and  C_11
REMARK   10  A    between atoms: C_11  and  C_12
REMARK   11  A    between atoms: CA_13  and  N_14
REMARK   12  A    between atoms: CA_13  and  C_22
REMARK   13  A    between atoms: C_15  and  C_17
REMARK   14  A    between atoms: C_19  and  C_20
REMARK   15  A    between atoms: C_19  and  C_21
REMARK   16  A    between atoms: C_22  and  OXT_24
REMARK                            x       y       z     vdW  Elec       q    Type
REMARK                         _______ _______ _______ _____ _____    ______ ____
ROOT
ATOM      1  C   UNL     1       5.084   6.404  16.654  0.00  0.00    +0.000 C 
ATOM      2  CA  UNL     1       5.210   5.057  16.673  0.00  0.00    +0.000 C 
ENDROOT
BRANCH   2   3
ATOM      3  N   UNL     1       4.639   4.156  17.588  0.00  0.00    +0.000 N 
ATOM      4  C   UNL     1       3.374   3.581  17.586  0.00  0.00    +0.000 C 
ATOM      5  O   UNL     1       2.545   3.642  16.689  0.00  0.00    +0.000 OA
ATOM      6  H   UNL     1       5.246   3.899  18.356  0.00  0.00    +0.000 HD
BRANCH   4   7
ATOM      7  C   UNL     1       3.087   2.777  18.816  0.00  0.00    +0.000 C 
ATOM      8  C   UNL     1       4.062   2.785  19.969  0.00  0.00    +0.000 C 
ATOM      9  C   UNL     1       2.672   3.340  20.176  0.00  0.00    +0.000 C 
ATOM     10  C   UNL     1       2.561   4.822  20.457  0.00  0.00    +0.000 C 
ATOM     11  C   UNL     1       1.666   2.518  20.950  0.00  0.00    +0.000 C 
ENDBRANCH   4   7
ENDBRANCH   2   3
BRANCH   2  12
ATOM     12  C   UNL     1       6.139   4.495  15.638  0.00  0.00    +0.000 C 
ATOM     13  O   UNL     1       5.976   3.456  15.025  0.00  0.00    +0.000 OA
BRANCH  12  14
ATOM     14  OXT UNL     1       7.219   5.294  15.462  0.00  0.00    +0.000 OA
ATOM     15  HXT UNL     1       7.235   6.023  16.110  0.00  0.00    +0.000 HD
ENDBRANCH  12  14
ENDBRANCH   2  12
BRANCH   1  16
ATOM     16  C   UNL     1       4.336   7.178  17.685  0.00  0.00    +0.000 C 
BRANCH  16  17
ATOM     17  C   UNL     1       2.843   7.446  17.559  0.00  0.00    +0.000 C 
BRANCH  17  18
ATOM     18  C   UNL     1       2.593   8.931  17.907  0.00  0.00    +0.000 C 
BRANCH  18  19
ATOM     19  C   UNL     1       1.094   9.235  18.065  0.00  0.00    +0.000 C 
BRANCH  19  20
ATOM     20  C   UNL     1       0.802  10.377  19.023  0.00  0.00    +0.000 C 
BRANCH  20  21
ATOM     21  S   UNL     1      -1.011  10.458  19.220  0.00  0.00    +0.000 S 
BRANCH  21  22
ATOM     22  C   UNL     1      -1.380  11.844  18.216  0.00  0.00    +0.000 C 
ATOM     23  S   UNL     1      -0.570  13.295  18.399  0.00  0.00    +0.000 S 
BRANCH  22  24
ATOM     24  O   UNL     1      -2.315  11.654  17.249  0.00  0.00    +0.000 OA
BRANCH  24  26
ATOM     25  C   UNL     1      -3.177  10.738  15.240  0.00  0.00    +0.000 C 
ATOM     26  C   UNL     1      -2.435  10.417  16.523  0.00  0.00    +0.000 C 
ENDBRANCH  24  26
ENDBRANCH  22  24
ENDBRANCH  21  22
ENDBRANCH  20  21
ENDBRANCH  19  20
ENDBRANCH  18  19
ENDBRANCH  17  18
ENDBRANCH  16  17
ENDBRANCH   1  16
TORSDOF 13
ENDMDL
