MODEL 1
REMARK VINA RESULT:      -8.0      0.000      0.000
REMARK  Name = 
REMARK  5 active torsions:
REMARK  status: ('A' for Active; 'I' for Inactive)
REMARK    1  A    between atoms: C_1  and  C_2
REMARK    2  A    between atoms: C_5  and  S_6
REMARK    3  A    between atoms: S_6  and  N_9
REMARK    4  A    between atoms: C_11  and  C_12
REMARK    5  A    between atoms: C_17  and  C_18
REMARK                            x       y       z     vdW  Elec       q    Type
REMARK                         _______ _______ _______ _____ _____    ______ ____
ROOT
ATOM      1  N   UNL     1       5.318   4.857  16.939  0.00  0.00    +0.000 N 
ATOM      2  N   UNL     1       6.337   5.068  15.868  0.00  0.00    +0.000 NA
ATOM      3  C   UNL     1       6.168   4.017  15.101  0.00  0.00    +0.000 C 
ATOM      4  C   UNL     1       5.545   2.846  15.830  0.00  0.00    +0.000 C 
ATOM      5  C   UNL     1       4.498   3.721  16.496  0.00  0.00    +0.000 C 
ENDROOT
BRANCH   5   6
ATOM      6  C   UNL     1       3.252   3.167  17.131  0.00  0.00    +0.000 A 
ATOM      7  C   UNL     1       2.069   3.947  17.180  0.00  0.00    +0.000 A 
ATOM      8  C   UNL     1       1.316   4.010  18.352  0.00  0.00    +0.000 A 
ATOM      9  C   UNL     1       1.789   3.304  19.440  0.00  0.00    +0.000 A 
ATOM     10  C   UNL     1       2.833   2.414  19.333  0.00  0.00    +0.000 A 
ATOM     11  C   UNL     1       3.516   2.238  18.162  0.00  0.00    +0.000 A 
ATOM     12  O   UNL     1       3.255   1.964  20.550  0.00  0.00    +0.000 OA
ATOM     13  C   UNL     1       2.616   2.951  21.381  0.00  0.00    +0.000 C 
ATOM     14  O   UNL     1       1.447   3.514  20.744  0.00  0.00    +0.000 OA
ENDBRANCH   5   6
BRANCH   3  15
ATOM     15  C   UNL     1       6.184   4.031  13.596  0.00  0.00    +0.000 C 
ATOM     16  F   UNL     1       6.453   2.790  13.096  0.00  0.00    +0.000 F 
ATOM     17  F   UNL     1       4.963   4.358  13.088  0.00  0.00    +0.000 F 
ATOM     18  F   UNL     1       7.091   4.872  13.051  0.00  0.00    +0.000 F 
ENDBRANCH   3  15
BRANCH   1  19
ATOM     19  S   UNL     1       5.451   5.453  18.512  0.00  0.00    +0.000 S 
ATOM     20  O   UNL     1       6.602   6.327  18.601  0.00  0.00    +0.000 OA
ATOM     21  O   UNL     1       5.277   4.360  19.448  0.00  0.00    +0.000 OA
BRANCH  19  26
ATOM     22  C   UNL     1       0.906   9.369  19.179  0.00  0.00    +0.000 C 
ATOM     23  C   UNL     1       1.903   8.277  18.927  0.00  0.00    +0.000 A 
ATOM     24  C   UNL     1       2.635   8.243  17.734  0.00  0.00    +0.000 A 
ATOM     25  C   UNL     1       3.686   7.340  17.581  0.00  0.00    +0.000 A 
ATOM     26  C   UNL     1       4.002   6.476  18.630  0.00  0.00    +0.000 A 
ATOM     27  C   UNL     1       3.205   6.416  19.775  0.00  0.00    +0.000 A 
ATOM     28  C   UNL     1       2.161   7.325  19.924  0.00  0.00    +0.000 A 
ENDBRANCH  19  26
ENDBRANCH   1  19
TORSDOF 4
ENDMDL
MODEL 2
REMARK VINA RESULT:      -7.6      3.420      5.288
REMARK  Name = 
REMARK  5 active torsions:
REMARK  status: ('A' for Active; 'I' for Inactive)
REMARK    1  A    between atoms: C_1  and  C_2
REMARK    2  A    between atoms: C_5  and  S_6
REMARK    3  A    between atoms: S_6  and  N_9
REMARK    4  A    between atoms: C_11  and  C_12
REMARK    5  A    between atoms: C_17  and  C_18
REMARK                            x       y       z     vdW  Elec       q    Type
REMARK                         _______ _______ _______ _____ _____    ______ ____
ROOT
ATOM      1  N   UNL     1       3.256   5.265  18.283  0.00  0.00    +0.000 N 
ATOM      2  N   UNL     1       1.870   4.953  18.742  0.00  0.00    +0.000 NA
ATOM      3  C   UNL     1       1.711   3.711  18.352  0.00  0.00    +0.000 C 
ATOM      4  C   UNL     1       2.613   3.334  17.196  0.00  0.00    +0.000 C 
ATOM      5  C   UNL     1       3.827   3.989  17.830  0.00  0.00    +0.000 C 
ENDROOT
BRANCH   5   6
ATOM      6  C   UNL     1       5.236   3.702  17.389  0.00  0.00    +0.000 A 
ATOM      7  C   UNL     1       6.319   4.432  17.941  0.00  0.00    +0.000 A 
ATOM      8  C   UNL     1       7.330   4.924  17.116  0.00  0.00    +0.000 A 
ATOM      9  C   UNL     1       7.207   4.683  15.763  0.00  0.00    +0.000 A 
ATOM     10  C   UNL     1       6.253   3.828  15.259  0.00  0.00    +0.000 A 
ATOM     11  C   UNL     1       5.320   3.231  16.060  0.00  0.00    +0.000 A 
ATOM     12  O   UNL     1       6.189   3.871  13.896  0.00  0.00    +0.000 OA
ATOM     13  C   UNL     1       6.921   5.092  13.682  0.00  0.00    +0.000 C 
ATOM     14  O   UNL     1       7.840   5.364  14.765  0.00  0.00    +0.000 OA
ENDBRANCH   5   6
BRANCH   3  15
ATOM     15  C   UNL     1       1.045   2.628  19.158  0.00  0.00    +0.000 C 
ATOM     16  F   UNL     1      -0.025   2.107  18.489  0.00  0.00    +0.000 F 
ATOM     17  F   UNL     1       1.882   1.573  19.360  0.00  0.00    +0.000 F 
ATOM     18  F   UNL     1       0.590   3.026  20.366  0.00  0.00    +0.000 F 
ENDBRANCH   3  15
BRANCH   1  19
ATOM     19  S   UNL     1       3.805   6.812  17.891  0.00  0.00    +0.000 S 
ATOM     20  O   UNL     1       3.815   6.969  16.452  0.00  0.00    +0.000 OA
ATOM     21  O   UNL     1       4.988   7.107  18.675  0.00  0.00    +0.000 OA
BRANCH  19  26
ATOM     22  C   UNL     1      -0.203  10.698  20.184  0.00  0.00    +0.000 C 
ATOM     23  C   UNL     1       0.638   9.617  19.572  0.00  0.00    +0.000 A 
ATOM     24  C   UNL     1       0.933   9.634  18.203  0.00  0.00    +0.000 A 
ATOM     25  C   UNL     1       1.861   8.739  17.674  0.00  0.00    +0.000 A 
ATOM     26  C   UNL     1       2.493   7.829  18.524  0.00  0.00    +0.000 A 
ATOM     27  C   UNL     1       2.119   7.720  19.865  0.00  0.00    +0.000 A 
ATOM     28  C   UNL     1       1.197   8.623  20.388  0.00  0.00    +0.000 A 
ENDBRANCH  19  26
ENDBRANCH   1  19
TORSDOF 4
ENDMDL
MODEL 3
REMARK VINA RESULT:      -7.5      2.556      3.264
REMARK  Name = 
REMARK  5 active torsions:
REMARK  status: ('A' for Active; 'I' for Inactive)
REMARK    1  A    between atoms: C_1  and  C_2
REMARK    2  A    between atoms: C_5  and  S_6
REMARK    3  A    between atoms: S_6  and  N_9
REMARK    4  A    between atoms: C_11  and  C_12
REMARK    5  A    between atoms: C_17  and  C_18
REMARK                            x       y       z     vdW  Elec       q    Type
REMARK                         _______ _______ _______ _____ _____    ______ ____
ROOT
ATOM      1  N   UNL     1       6.570   4.676  16.484  0.00  0.00    +0.000 N 
ATOM      2  N   UNL     1       7.338   4.279  15.267  0.00  0.00    +0.000 NA
ATOM      3  C   UNL     1       6.412   3.751  14.503  0.00  0.00    +0.000 C 
ATOM      4  C   UNL     1       5.221   3.240  15.285  0.00  0.00    +0.000 C 
ATOM      5  C   UNL     1       5.152   4.489  16.145  0.00  0.00    +0.000 C 
ENDROOT
BRANCH   5   6
ATOM      6  C   UNL     1       3.943   4.858  16.959  0.00  0.00    +0.000 A 
ATOM      7  C   UNL     1       3.941   6.043  17.737  0.00  0.00    +0.000 A 
ATOM      8  C   UNL     1       3.453   6.026  19.043  0.00  0.00    +0.000 A 
ATOM      9  C   UNL     1       3.002   4.815  19.529  0.00  0.00    +0.000 A 
ATOM     10  C   UNL     1       2.844   3.717  18.714  0.00  0.00    +0.000 A 
ATOM     11  C   UNL     1       3.200   3.738  17.394  0.00  0.00    +0.000 A 
ATOM     12  O   UNL     1       2.563   2.585  19.422  0.00  0.00    +0.000 OA
ATOM     13  C   UNL     1       2.943   3.046  20.732  0.00  0.00    +0.000 C 
ATOM     14  O   UNL     1       2.846   4.485  20.843  0.00  0.00    +0.000 OA
ENDBRANCH   5   6
BRANCH   3  15
ATOM     15  C   UNL     1       6.289   3.961  13.017  0.00  0.00    +0.000 C 
ATOM     16  F   UNL     1       5.009   4.283  12.671  0.00  0.00    +0.000 F 
ATOM     17  F   UNL     1       7.043   5.016  12.600  0.00  0.00    +0.000 F 
ATOM     18  F   UNL     1       6.635   2.891  12.269  0.00  0.00    +0.000 F 
ENDBRANCH   3  15
BRANCH   1  19
ATOM     19  S   UNL     1       7.231   4.792  18.033  0.00  0.00    +0.000 S 
ATOM     20  O   UNL     1       8.505   4.105  18.066  0.00  0.00    +0.000 OA
ATOM     21  O   UNL     1       6.202   4.490  19.009  0.00  0.00    +0.000 OA
BRANCH  19  26
ATOM     22  C   UNL     1       8.858  10.604  18.033  0.00  0.00    +0.000 C 
ATOM     23  C   UNL     1       8.304   9.215  18.151  0.00  0.00    +0.000 A 
ATOM     24  C   UNL     1       7.347   8.750  17.240  0.00  0.00    +0.000 A 
ATOM     25  C   UNL     1       6.974   7.408  17.238  0.00  0.00    +0.000 A 
ATOM     26  C   UNL     1       7.566   6.533  18.150  0.00  0.00    +0.000 A 
ATOM     27  C   UNL     1       8.429   7.005  19.141  0.00  0.00    +0.000 A 
ATOM     28  C   UNL     1       8.803   8.346  19.133  0.00  0.00    +0.000 A 
ENDBRANCH  19  26
ENDBRANCH   1  19
TORSDOF 4
ENDMDL
MODEL 4
REMARK VINA RESULT:      -7.4      2.917      5.012
REMARK  Name = 
REMARK  5 active torsions:
REMARK  status: ('A' for Active; 'I' for Inactive)
REMARK    1  A    between atoms: C_1  and  C_2
REMARK    2  A    between atoms: C_5  and  S_6
REMARK    3  A    between atoms: S_6  and  N_9
REMARK    4  A    between atoms: C_11  and  C_12
REMARK    5  A    between atoms: C_17  and  C_18
REMARK                            x       y       z     vdW  Elec       q    Type
REMARK                         _______ _______ _______ _____ _____    ______ ____
ROOT
ATOM      1  N   UNL     1       5.356   6.111  18.010  0.00  0.00    +0.000 N 
ATOM      2  N   UNL     1       4.938   7.515  17.719  0.00  0.00    +0.000 NA
ATOM      3  C   UNL     1       3.647   7.395  17.521  0.00  0.00    +0.000 C 
ATOM      4  C   UNL     1       3.241   6.000  17.095  0.00  0.00    +0.000 C 
ATOM      5  C   UNL     1       4.112   5.342  18.151  0.00  0.00    +0.000 C 
ENDROOT
BRANCH   5   6
ATOM      6  C   UNL     1       3.945   3.908  18.571  0.00  0.00    +0.000 A 
ATOM      7  C   UNL     1       3.135   3.030  17.807  0.00  0.00    +0.000 A 
ATOM      8  C   UNL     1       2.237   2.171  18.441  0.00  0.00    +0.000 A 
ATOM      9  C   UNL     1       2.169   2.239  19.818  0.00  0.00    +0.000 A 
ATOM     10  C   UNL     1       3.078   2.961  20.557  0.00  0.00    +0.000 A 
ATOM     11  C   UNL     1       4.052   3.719  19.968  0.00  0.00    +0.000 A 
ATOM     12  O   UNL     1       2.727   3.041  21.873  0.00  0.00    +0.000 OA
ATOM     13  C   UNL     1       1.353   2.625  21.758  0.00  0.00    +0.000 C 
ATOM     14  O   UNL     1       1.140   1.793  20.595  0.00  0.00    +0.000 OA
ENDBRANCH   5   6
BRANCH   3  15
ATOM     15  C   UNL     1       2.600   8.351  18.028  0.00  0.00    +0.000 C 
ATOM     16  F   UNL     1       1.403   8.141  17.406  0.00  0.00    +0.000 F 
ATOM     17  F   UNL     1       2.349   8.157  19.352  0.00  0.00    +0.000 F 
ATOM     18  F   UNL     1       2.902   9.656  17.856  0.00  0.00    +0.000 F 
ENDBRANCH   3  15
BRANCH   1  19
ATOM     19  S   UNL     1       6.896   5.492  17.708  0.00  0.00    +0.000 S 
ATOM     20  O   UNL     1       7.166   4.404  18.624  0.00  0.00    +0.000 OA
ATOM     21  O   UNL     1       7.830   6.593  17.572  0.00  0.00    +0.000 OA
BRANCH  19  26
ATOM     22  C   UNL     1       5.677   3.465  12.155  0.00  0.00    +0.000 C 
ATOM     23  C   UNL     1       6.137   3.848  13.531  0.00  0.00    +0.000 A 
ATOM     24  C   UNL     1       7.024   4.916  13.713  0.00  0.00    +0.000 A 
ATOM     25  C   UNL     1       7.304   5.386  14.995  0.00  0.00    +0.000 A 
ATOM     26  C   UNL     1       6.687   4.783  16.093  0.00  0.00    +0.000 A 
ATOM     27  C   UNL     1       5.896   3.643  15.935  0.00  0.00    +0.000 A 
ATOM     28  C   UNL     1       5.616   3.184  14.651  0.00  0.00    +0.000 A 
ENDBRANCH  19  26
ENDBRANCH   1  19
TORSDOF 4
ENDMDL
MODEL 5
REMARK VINA RESULT:      -7.4      0.313      1.189
REMARK  Name = 
REMARK  5 active torsions:
REMARK  status: ('A' for Active; 'I' for Inactive)
REMARK    1  A    between atoms: C_1  and  C_2
REMARK    2  A    between atoms: C_5  and  S_6
REMARK    3  A    between atoms: S_6  and  N_9
REMARK    4  A    between atoms: C_11  and  C_12
REMARK    5  A    between atoms: C_17  and  C_18
REMARK                            x       y       z     vdW  Elec       q    Type
REMARK                         _______ _______ _______ _____ _____    ______ ____
ROOT
ATOM      1  N   UNL     1       5.197   4.810  17.090  0.00  0.00    +0.000 N 
ATOM      2  N   UNL     1       6.266   4.968  16.061  0.00  0.00    +0.000 NA
ATOM      3  C   UNL     1       6.067   3.934  15.279  0.00  0.00    +0.000 C 
ATOM      4  C   UNL     1       5.348   2.797  15.973  0.00  0.00    +0.000 C 
ATOM      5  C   UNL     1       4.328   3.727  16.606  0.00  0.00    +0.000 C 
ENDROOT
BRANCH   5   6
ATOM      6  C   UNL     1       3.029   3.244  17.188  0.00  0.00    +0.000 A 
ATOM      7  C   UNL     1       1.918   4.120  17.278  0.00  0.00    +0.000 A 
ATOM      8  C   UNL     1       1.153   4.170  18.444  0.00  0.00    +0.000 A 
ATOM      9  C   UNL     1       1.545   3.353  19.485  0.00  0.00    +0.000 A 
ATOM     10  C   UNL     1       2.509   2.384  19.328  0.00  0.00    +0.000 A 
ATOM     11  C   UNL     1       3.194   2.227  18.155  0.00  0.00    +0.000 A 
ATOM     12  O   UNL     1       2.869   1.817  20.516  0.00  0.00    +0.000 OA
ATOM     13  C   UNL     1       2.306   2.797  21.406  0.00  0.00    +0.000 C 
ATOM     14  O   UNL     1       1.201   3.504  20.797  0.00  0.00    +0.000 OA
ENDBRANCH   5   6
BRANCH   3  15
ATOM     15  C   UNL     1       6.142   3.956  13.775  0.00  0.00    +0.000 C 
ATOM     16  F   UNL     1       4.928   4.259  13.228  0.00  0.00    +0.000 F 
ATOM     17  F   UNL     1       6.981   4.933  13.334  0.00  0.00    +0.000 F 
ATOM     18  F   UNL     1       6.539   2.793  13.215  0.00  0.00    +0.000 F 
ENDBRANCH   3  15
BRANCH   1  19
ATOM     19  S   UNL     1       5.303   5.388  18.672  0.00  0.00    +0.000 S 
ATOM     20  O   UNL     1       6.566   6.072  18.852  0.00  0.00    +0.000 OA
ATOM     21  O   UNL     1       4.893   4.340  19.587  0.00  0.00    +0.000 OA
BRANCH  19  26
ATOM     22  C   UNL     1       0.589   9.151  18.449  0.00  0.00    +0.000 C 
ATOM     23  C   UNL     1       1.857   8.362  18.596  0.00  0.00    +0.000 A 
ATOM     24  C   UNL     1       2.074   7.570  19.730  0.00  0.00    +0.000 A 
ATOM     25  C   UNL     1       3.160   6.699  19.781  0.00  0.00    +0.000 A 
ATOM     26  C   UNL     1       4.026   6.623  18.689  0.00  0.00    +0.000 A 
ATOM     27  C   UNL     1       3.891   7.493  17.605  0.00  0.00    +0.000 A 
ATOM     28  C   UNL     1       2.799   8.356  17.558  0.00  0.00    +0.000 A 
ENDBRANCH  19  26
ENDBRANCH   1  19
TORSDOF 4
ENDMDL
MODEL 6
REMARK VINA RESULT:      -7.4      5.972      8.137
REMARK  Name = 
REMARK  5 active torsions:
REMARK  status: ('A' for Active; 'I' for Inactive)
REMARK    1  A    between atoms: C_1  and  C_2
REMARK    2  A    between atoms: C_5  and  S_6
REMARK    3  A    between atoms: S_6  and  N_9
REMARK    4  A    between atoms: C_11  and  C_12
REMARK    5  A    between atoms: C_17  and  C_18
REMARK                            x       y       z     vdW  Elec       q    Type
REMARK                         _______ _______ _______ _____ _____    ______ ____
ROOT
ATOM      1  N   UNL     1      -0.267  10.440  20.205  0.00  0.00    +0.000 N 
ATOM      2  N   UNL     1      -1.552  10.910  19.607  0.00  0.00    +0.000 NA
ATOM      3  C   UNL     1      -1.413  10.593  18.342  0.00  0.00    +0.000 C 
ATOM      4  C   UNL     1       0.036  10.473  17.918  0.00  0.00    +0.000 C 
ATOM      5  C   UNL     1       0.410   9.670  19.151  0.00  0.00    +0.000 C 
ENDROOT
BRANCH   5   6
ATOM      6  C   UNL     1       1.676   8.866  19.252  0.00  0.00    +0.000 A 
ATOM      7  C   UNL     1       2.451   8.608  18.092  0.00  0.00    +0.000 A 
ATOM      8  C   UNL     1       2.960   7.331  17.856  0.00  0.00    +0.000 A 
ATOM      9  C   UNL     1       2.655   6.354  18.782  0.00  0.00    +0.000 A 
ATOM     10  C   UNL     1       2.058   6.651  19.985  0.00  0.00    +0.000 A 
ATOM     11  C   UNL     1       1.656   7.920  20.300  0.00  0.00    +0.000 A 
ATOM     12  O   UNL     1       1.685   5.530  20.668  0.00  0.00    +0.000 OA
ATOM     13  C   UNL     1       1.778   4.578  19.592  0.00  0.00    +0.000 C 
ATOM     14  O   UNL     1       2.714   5.006  18.576  0.00  0.00    +0.000 OA
ENDBRANCH   5   6
BRANCH   3  15
ATOM     15  C   UNL     1      -2.492  10.007  17.472  0.00  0.00    +0.000 C 
ATOM     16  F   UNL     1      -3.301  10.985  16.969  0.00  0.00    +0.000 F 
ATOM     17  F   UNL     1      -1.968   9.387  16.379  0.00  0.00    +0.000 F 
ATOM     18  F   UNL     1      -3.298   9.121  18.097  0.00  0.00    +0.000 F 
ENDBRANCH   3  15
BRANCH   1  19
ATOM     19  S   UNL     1       0.444  11.105  21.583  0.00  0.00    +0.000 S 
ATOM     20  O   UNL     1       1.493  12.022  21.189  0.00  0.00    +0.000 OA
ATOM     21  O   UNL     1       0.708  10.047  22.538  0.00  0.00    +0.000 OA
BRANCH  19  26
ATOM     22  C   UNL     1      -3.717  14.511  24.325  0.00  0.00    +0.000 C 
ATOM     23  C   UNL     1      -2.810  13.653  23.492  0.00  0.00    +0.000 A 
ATOM     24  C   UNL     1      -1.892  14.235  22.610  0.00  0.00    +0.000 A 
ATOM     25  C   UNL     1      -0.930  13.450  21.978  0.00  0.00    +0.000 A 
ATOM     26  C   UNL     1      -0.889  12.079  22.239  0.00  0.00    +0.000 A 
ATOM     27  C   UNL     1      -1.872  11.468  23.021  0.00  0.00    +0.000 A 
ATOM     28  C   UNL     1      -2.826  12.260  23.654  0.00  0.00    +0.000 A 
ENDBRANCH  19  26
ENDBRANCH   1  19
TORSDOF 4
ENDMDL
MODEL 7
REMARK VINA RESULT:      -7.4      5.979      8.185
REMARK  Name = 
REMARK  5 active torsions:
REMARK  status: ('A' for Active; 'I' for Inactive)
REMARK    1  A    between atoms: C_1  and  C_2
REMARK    2  A    between atoms: C_5  and  S_6
REMARK    3  A    between atoms: S_6  and  N_9
REMARK    4  A    between atoms: C_11  and  C_12
REMARK    5  A    between atoms: C_17  and  C_18
REMARK                            x       y       z     vdW  Elec       q    Type
REMARK                         _______ _______ _______ _____ _____    ______ ____
ROOT
ATOM      1  N   UNL     1      -0.294  10.481  20.227  0.00  0.00    +0.000 N 
ATOM      2  N   UNL     1      -1.585  10.950  19.643  0.00  0.00    +0.000 NA
ATOM      3  C   UNL     1      -1.452  10.650  18.373  0.00  0.00    +0.000 C 
ATOM      4  C   UNL     1      -0.005  10.545  17.939  0.00  0.00    +0.000 C 
ATOM      5  C   UNL     1       0.381   9.729  19.160  0.00  0.00    +0.000 C 
ENDROOT
BRANCH   5   6
ATOM      6  C   UNL     1       1.654   8.932  19.242  0.00  0.00    +0.000 A 
ATOM      7  C   UNL     1       2.411   8.674  18.071  0.00  0.00    +0.000 A 
ATOM      8  C   UNL     1       2.923   7.399  17.831  0.00  0.00    +0.000 A 
ATOM      9  C   UNL     1       2.639   6.423  18.766  0.00  0.00    +0.000 A 
ATOM     10  C   UNL     1       2.059   6.722  19.977  0.00  0.00    +0.000 A 
ATOM     11  C   UNL     1       1.655   7.989  20.294  0.00  0.00    +0.000 A 
ATOM     12  O   UNL     1       1.703   5.601  20.670  0.00  0.00    +0.000 OA
ATOM     13  C   UNL     1       1.784   4.646  19.596  0.00  0.00    +0.000 C 
ATOM     14  O   UNL     1       2.702   5.076  18.564  0.00  0.00    +0.000 OA
ENDBRANCH   5   6
BRANCH   3  15
ATOM     15  C   UNL     1      -2.533  10.068  17.502  0.00  0.00    +0.000 C 
ATOM     16  F   UNL     1      -2.001   9.461  16.401  0.00  0.00    +0.000 F 
ATOM     17  F   UNL     1      -3.218   9.086  18.149  0.00  0.00    +0.000 F 
ATOM     18  F   UNL     1      -3.435  10.967  17.051  0.00  0.00    +0.000 F 
ENDBRANCH   3  15
BRANCH   1  19
ATOM     19  S   UNL     1       0.421  11.134  21.609  0.00  0.00    +0.000 S 
ATOM     20  O   UNL     1       1.480  12.041  21.221  0.00  0.00    +0.000 OA
ATOM     21  O   UNL     1       0.671  10.069  22.561  0.00  0.00    +0.000 OA
BRANCH  19  26
ATOM     22  C   UNL     1      -4.408  14.326  23.318  0.00  0.00    +0.000 C 
ATOM     23  C   UNL     1      -3.127  13.587  23.065  0.00  0.00    +0.000 A 
ATOM     24  C   UNL     1      -2.981  12.256  23.474  0.00  0.00    +0.000 A 
ATOM     25  C   UNL     1      -1.867  11.518  23.078  0.00  0.00    +0.000 A 
ATOM     26  C   UNL     1      -0.903  12.119  22.266  0.00  0.00    +0.000 A 
ATOM     27  C   UNL     1      -0.976  13.478  21.952  0.00  0.00    +0.000 A 
ATOM     28  C   UNL     1      -2.095  14.207  22.346  0.00  0.00    +0.000 A 
ENDBRANCH  19  26
ENDBRANCH   1  19
TORSDOF 4
ENDMDL
MODEL 8
REMARK VINA RESULT:      -7.3      2.975      5.206
REMARK  Name = 
REMARK  5 active torsions:
REMARK  status: ('A' for Active; 'I' for Inactive)
REMARK    1  A    between atoms: C_1  and  C_2
REMARK    2  A    between atoms: C_5  and  S_6
REMARK    3  A    between atoms: S_6  and  N_9
REMARK    4  A    between atoms: C_11  and  C_12
REMARK    5  A    between atoms: C_17  and  C_18
REMARK                            x       y       z     vdW  Elec       q    Type
REMARK                         _______ _______ _______ _____ _____    ______ ____
ROOT
ATOM      1  N   UNL     1       5.400   6.161  17.874  0.00  0.00    +0.000 N 
ATOM      2  N   UNL     1       4.891   7.511  17.491  0.00  0.00    +0.000 NA
ATOM      3  C   UNL     1       3.591   7.335  17.482  0.00  0.00    +0.000 C 
ATOM      4  C   UNL     1       3.191   5.891  17.267  0.00  0.00    +0.000 C 
ATOM      5  C   UNL     1       4.217   5.379  18.261  0.00  0.00    +0.000 C 
ENDROOT
BRANCH   5   6
ATOM      6  C   UNL     1       4.166   3.997  18.853  0.00  0.00    +0.000 A 
ATOM      7  C   UNL     1       3.651   2.915  18.095  0.00  0.00    +0.000 A 
ATOM      8  C   UNL     1       2.769   2.005  18.677  0.00  0.00    +0.000 A 
ATOM      9  C   UNL     1       2.420   2.225  19.994  0.00  0.00    +0.000 A 
ATOM     10  C   UNL     1       3.057   3.167  20.769  0.00  0.00    +0.000 A 
ATOM     11  C   UNL     1       4.017   3.996  20.258  0.00  0.00    +0.000 A 
ATOM     12  O   UNL     1       2.442   3.346  21.974  0.00  0.00    +0.000 OA
ATOM     13  C   UNL     1       1.189   2.704  21.677  0.00  0.00    +0.000 C 
ATOM     14  O   UNL     1       1.327   1.715  20.631  0.00  0.00    +0.000 OA
ENDBRANCH   5   6
BRANCH   3  15
ATOM     15  C   UNL     1       2.580   8.314  18.017  0.00  0.00    +0.000 C 
ATOM     16  F   UNL     1       2.372   8.123  19.352  0.00  0.00    +0.000 F 
ATOM     17  F   UNL     1       3.023   9.597  17.908  0.00  0.00    +0.000 F 
ATOM     18  F   UNL     1       1.367   8.249  17.423  0.00  0.00    +0.000 F 
ENDBRANCH   3  15
BRANCH   1  19
ATOM     19  S   UNL     1       6.913   5.553  17.438  0.00  0.00    +0.000 S 
ATOM     20  O   UNL     1       7.210   4.382  18.236  0.00  0.00    +0.000 OA
ATOM     21  O   UNL     1       7.857   6.650  17.354  0.00  0.00    +0.000 OA
BRANCH  19  26
ATOM     22  C   UNL     1       6.266   3.171  11.930  0.00  0.00    +0.000 C 
ATOM     23  C   UNL     1       6.301   3.903  13.239  0.00  0.00    +0.000 A 
ATOM     24  C   UNL     1       5.390   3.588  14.255  0.00  0.00    +0.000 A 
ATOM     25  C   UNL     1       5.541   4.136  15.528  0.00  0.00    +0.000 A 
ATOM     26  C   UNL     1       6.610   4.998  15.778  0.00  0.00    +0.000 A 
ATOM     27  C   UNL     1       7.453   5.415  14.745  0.00  0.00    +0.000 A 
ATOM     28  C   UNL     1       7.300   4.857  13.478  0.00  0.00    +0.000 A 
ENDBRANCH  19  26
ENDBRANCH   1  19
TORSDOF 4
ENDMDL
MODEL 9
REMARK VINA RESULT:      -7.3      6.126      8.389
REMARK  Name = 
REMARK  5 active torsions:
REMARK  status: ('A' for Active; 'I' for Inactive)
REMARK    1  A    between atoms: C_1  and  C_2
REMARK    2  A    between atoms: C_5  and  S_6
REMARK    3  A    between atoms: S_6  and  N_9
REMARK    4  A    between atoms: C_11  and  C_12
REMARK    5  A    between atoms: C_17  and  C_18
REMARK                            x       y       z     vdW  Elec       q    Type
REMARK                         _______ _______ _______ _____ _____    ______ ____
ROOT
ATOM      1  N   UNL     1      -1.083  11.100  19.943  0.00  0.00    +0.000 N 
ATOM      2  N   UNL     1      -2.435  11.267  19.331  0.00  0.00    +0.000 NA
ATOM      3  C   UNL     1      -2.260  10.801  18.117  0.00  0.00    +0.000 C 
ATOM      4  C   UNL     1      -0.816  10.858  17.664  0.00  0.00    +0.000 C 
ATOM      5  C   UNL     1      -0.301  10.309  18.982  0.00  0.00    +0.000 C 
ENDROOT
BRANCH   5   6
ATOM      6  C   UNL     1       1.082   9.743  19.149  0.00  0.00    +0.000 A 
ATOM      7  C   UNL     1       1.915   9.550  18.017  0.00  0.00    +0.000 A 
ATOM      8  C   UNL     1       2.639   8.367  17.871  0.00  0.00    +0.000 A 
ATOM      9  C   UNL     1       2.487   7.413  18.856  0.00  0.00    +0.000 A 
ATOM     10  C   UNL     1       1.821   7.678  20.031  0.00  0.00    +0.000 A 
ATOM     11  C   UNL     1       1.202   8.876  20.257  0.00  0.00    +0.000 A 
ATOM     12  O   UNL     1       1.631   6.555  20.782  0.00  0.00    +0.000 OA
ATOM     13  C   UNL     1       1.910   5.567  19.773  0.00  0.00    +0.000 C 
ATOM     14  O   UNL     1       2.780   6.085  18.741  0.00  0.00    +0.000 OA
ENDBRANCH   5   6
BRANCH   3  15
ATOM     15  C   UNL     1      -3.237   9.930  17.374  0.00  0.00    +0.000 C 
ATOM     16  F   UNL     1      -3.628   8.868  18.137  0.00  0.00    +0.000 F 
ATOM     17  F   UNL     1      -4.387  10.603  17.091  0.00  0.00    +0.000 F 
ATOM     18  F   UNL     1      -2.766   9.421  16.214  0.00  0.00    +0.000 F 
ENDBRANCH   3  15
BRANCH   1  19
ATOM     19  S   UNL     1      -0.476  12.060  21.191  0.00  0.00    +0.000 S 
ATOM     20  O   UNL     1       0.331  11.247  22.075  0.00  0.00    +0.000 OA
ATOM     21  O   UNL     1      -1.546  12.887  21.715  0.00  0.00    +0.000 OA
BRANCH  19  26
ATOM     22  C   UNL     1       3.295  15.269  17.739  0.00  0.00    +0.000 C 
ATOM     23  C   UNL     1       2.361  14.625  18.721  0.00  0.00    +0.000 A 
ATOM     24  C   UNL     1       0.977  14.805  18.609  0.00  0.00    +0.000 A 
ATOM     25  C   UNL     1       0.106  14.063  19.404  0.00  0.00    +0.000 A 
ATOM     26  C   UNL     1       0.629  13.137  20.308  0.00  0.00    +0.000 A 
ATOM     27  C   UNL     1       2.006  13.035  20.516  0.00  0.00    +0.000 A 
ATOM     28  C   UNL     1       2.870  13.775  19.713  0.00  0.00    +0.000 A 
ENDBRANCH  19  26
ENDBRANCH   1  19
TORSDOF 4
ENDMDL
