MODEL 1
REMARK VINA RESULT:      -8.0      0.000      0.000
REMARK  Name = 
REMARK  6 active torsions:
REMARK  status: ('A' for Active; 'I' for Inactive)
REMARK    1  A    between atoms: C_1  and  C_2
REMARK    2  A    between atoms: C_2  and  N_3
REMARK    3  A    between atoms: C_5  and  C_6
REMARK    4  A    between atoms: C_8  and  C_9
REMARK    5  A    between atoms: N_11  and  C_12
REMARK    6  A    between atoms: C_17  and  C_18
REMARK                            x       y       z     vdW  Elec       q    Type
REMARK                         _______ _______ _______ _____ _____    ______ ____
ROOT
ATOM      1  C   UNL     1       5.173   4.209  17.956  0.00  0.00    +0.000 C 
ATOM      2  O   UNL     1       5.733   3.968  19.024  0.00  0.00    +0.000 OA
ATOM      3  N   UNL     1       3.801   4.081  17.811  0.00  0.00    +0.000 N 
ATOM      4  H   UNL     1       3.411   4.043  16.868  0.00  0.00    +0.000 HD
ENDROOT
BRANCH   1  10
ATOM      5  N   UNL     1       6.920   5.573  16.820  0.00  0.00    +0.000 N 
ATOM      6  N   UNL     1       7.532   5.760  15.635  0.00  0.00    +0.000 NA
ATOM      7  C   UNL     1       6.916   4.916  14.807  0.00  0.00    +0.000 A 
ATOM      8  C   UNL     1       7.345   4.826  13.391  0.00  0.00    +0.000 C 
ATOM      9  C   UNL     1       5.897   4.191  15.470  0.00  0.00    +0.000 A 
ATOM     10  C   UNL     1       5.935   4.605  16.791  0.00  0.00    +0.000 A 
BRANCH   5  12
ATOM     11  C   UNL     1       7.665   7.809  17.548  0.00  0.00    +0.000 C 
ATOM     12  C   UNL     1       7.372   6.374  17.948  0.00  0.00    +0.000 C 
ENDBRANCH   5  12
ENDBRANCH   1  10
BRANCH   3  13
ATOM     13  C   UNL     1       2.888   3.806  18.875  0.00  0.00    +0.000 A 
ATOM     14  C   UNL     1       2.619   2.501  19.302  0.00  0.00    +0.000 A 
ATOM     15  N   UNL     1       1.763   2.164  20.296  0.00  0.00    +0.000 NA
ATOM     16  C   UNL     1       1.137   3.168  20.922  0.00  0.00    +0.000 A 
ATOM     17  C   UNL     1       1.339   4.500  20.611  0.00  0.00    +0.000 A 
ATOM     18  C   UNL     1       2.223   4.835  19.573  0.00  0.00    +0.000 A 
BRANCH  18  19
ATOM     19  C   UNL     1       2.432   6.267  19.194  0.00  0.00    +0.000 C 
ATOM     20  N   UNL     1       2.429   7.222  20.174  0.00  0.00    +0.000 N 
ATOM     21  O   UNL     1       2.596   6.600  18.024  0.00  0.00    +0.000 OA
ATOM     22  H   UNL     1       2.246   7.069  21.154  0.00  0.00    +0.000 HD
ATOM     23  H   UNL     1       2.529   8.185  19.877  0.00  0.00    +0.000 HD
ENDBRANCH  18  19
ENDBRANCH   3  13
TORSDOF 4
ENDMDL
MODEL 2
REMARK VINA RESULT:      -7.8      1.831      2.458
REMARK  Name = 
REMARK  6 active torsions:
REMARK  status: ('A' for Active; 'I' for Inactive)
REMARK    1  A    between atoms: C_1  and  C_2
REMARK    2  A    between atoms: C_2  and  N_3
REMARK    3  A    between atoms: C_5  and  C_6
REMARK    4  A    between atoms: C_8  and  C_9
REMARK    5  A    between atoms: N_11  and  C_12
REMARK    6  A    between atoms: C_17  and  C_18
REMARK                            x       y       z     vdW  Elec       q    Type
REMARK                         _______ _______ _______ _____ _____    ______ ____
ROOT
ATOM      1  C   UNL     1       4.552   4.786  16.746  0.00  0.00    +0.000 C 
ATOM      2  O   UNL     1       4.067   5.787  17.271  0.00  0.00    +0.000 OA
ATOM      3  N   UNL     1       4.158   3.510  17.114  0.00  0.00    +0.000 N 
ATOM      4  H   UNL     1       4.748   2.721  16.847  0.00  0.00    +0.000 HD
ENDROOT
BRANCH   1  10
ATOM      5  N   UNL     1       6.869   5.335  16.014  0.00  0.00    +0.000 N 
ATOM      6  N   UNL     1       7.684   5.332  14.942  0.00  0.00    +0.000 NA
ATOM      7  C   UNL     1       6.910   4.915  13.940  0.00  0.00    +0.000 A 
ATOM      8  C   UNL     1       7.482   4.764  12.580  0.00  0.00    +0.000 C 
ATOM      9  C   UNL     1       5.589   4.658  14.376  0.00  0.00    +0.000 A 
ATOM     10  C   UNL     1       5.586   4.903  15.740  0.00  0.00    +0.000 A 
BRANCH   5  12
ATOM     11  C   UNL     1       7.424   7.271  17.439  0.00  0.00    +0.000 C 
ATOM     12  C   UNL     1       7.430   5.760  17.289  0.00  0.00    +0.000 C 
ENDBRANCH   5  12
ENDBRANCH   1  10
BRANCH   3  13
ATOM     13  C   UNL     1       3.083   3.212  18.007  0.00  0.00    +0.000 A 
ATOM     14  C   UNL     1       1.744   3.290  17.609  0.00  0.00    +0.000 A 
ATOM     15  N   UNL     1       0.677   3.030  18.401  0.00  0.00    +0.000 NA
ATOM     16  C   UNL     1       0.934   2.658  19.660  0.00  0.00    +0.000 A 
ATOM     17  C   UNL     1       2.213   2.518  20.165  0.00  0.00    +0.000 A 
ATOM     18  C   UNL     1       3.311   2.798  19.336  0.00  0.00    +0.000 A 
BRANCH  18  19
ATOM     19  C   UNL     1       4.705   2.689  19.868  0.00  0.00    +0.000 C 
ATOM     20  N   UNL     1       5.110   1.510  20.435  0.00  0.00    +0.000 N 
ATOM     21  O   UNL     1       5.485   3.634  19.813  0.00  0.00    +0.000 OA
ATOM     22  H   UNL     1       4.537   0.694  20.585  0.00  0.00    +0.000 HD
ATOM     23  H   UNL     1       6.044   1.485  20.824  0.00  0.00    +0.000 HD
ENDBRANCH  18  19
ENDBRANCH   3  13
TORSDOF 4
ENDMDL
MODEL 3
REMARK VINA RESULT:      -7.7      1.434      1.533
REMARK  Name = 
REMARK  6 active torsions:
REMARK  status: ('A' for Active; 'I' for Inactive)
REMARK    1  A    between atoms: C_1  and  C_2
REMARK    2  A    between atoms: C_2  and  N_3
REMARK    3  A    between atoms: C_5  and  C_6
REMARK    4  A    between atoms: C_8  and  C_9
REMARK    5  A    between atoms: N_11  and  C_12
REMARK    6  A    between atoms: C_17  and  C_18
REMARK                            x       y       z     vdW  Elec       q    Type
REMARK                         _______ _______ _______ _____ _____    ______ ____
ROOT
ATOM      1  C   UNL     1       4.868   4.559  18.208  0.00  0.00    +0.000 C 
ATOM      2  O   UNL     1       4.727   5.570  18.895  0.00  0.00    +0.000 OA
ATOM      3  N   UNL     1       4.248   3.365  18.540  0.00  0.00    +0.000 N 
ATOM      4  H   UNL     1       4.582   2.504  18.105  0.00  0.00    +0.000 HD
ENDROOT
BRANCH   1  10
ATOM      5  N   UNL     1       7.087   4.756  17.095  0.00  0.00    +0.000 N 
ATOM      6  N   UNL     1       7.695   4.689  15.894  0.00  0.00    +0.000 NA
ATOM      7  C   UNL     1       6.699   4.480  15.032  0.00  0.00    +0.000 A 
ATOM      8  C   UNL     1       6.996   4.328  13.587  0.00  0.00    +0.000 C 
ATOM      9  C   UNL     1       5.448   4.421  15.689  0.00  0.00    +0.000 A 
ATOM     10  C   UNL     1       5.719   4.568  17.039  0.00  0.00    +0.000 A 
BRANCH   5  12
ATOM     11  C   UNL     1       7.991   6.463  18.630  0.00  0.00    +0.000 C 
ATOM     12  C   UNL     1       7.923   4.991  18.263  0.00  0.00    +0.000 C 
ENDBRANCH   5  12
ENDBRANCH   1  10
BRANCH   3  13
ATOM     13  C   UNL     1       3.296   3.203  19.593  0.00  0.00    +0.000 A 
ATOM     14  C   UNL     1       3.616   2.553  20.789  0.00  0.00    +0.000 A 
ATOM     15  N   UNL     1       2.765   2.356  21.825  0.00  0.00    +0.000 NA
ATOM     16  C   UNL     1       1.523   2.835  21.687  0.00  0.00    +0.000 A 
ATOM     17  C   UNL     1       1.093   3.519  20.565  0.00  0.00    +0.000 A 
ATOM     18  C   UNL     1       1.983   3.710  19.495  0.00  0.00    +0.000 A 
BRANCH  18  19
ATOM     19  C   UNL     1       1.531   4.415  18.256  0.00  0.00    +0.000 C 
ATOM     20  N   UNL     1       1.645   5.777  18.187  0.00  0.00    +0.000 N 
ATOM     21  O   UNL     1       1.055   3.797  17.308  0.00  0.00    +0.000 OA
ATOM     22  H   UNL     1       1.965   6.386  18.924  0.00  0.00    +0.000 HD
ATOM     23  H   UNL     1       1.290   6.225  17.351  0.00  0.00    +0.000 HD
ENDBRANCH  18  19
ENDBRANCH   3  13
TORSDOF 4
ENDMDL
MODEL 4
REMARK VINA RESULT:      -7.7      1.408      2.494
REMARK  Name = 
REMARK  6 active torsions:
REMARK  status: ('A' for Active; 'I' for Inactive)
REMARK    1  A    between atoms: C_1  and  C_2
REMARK    2  A    between atoms: C_2  and  N_3
REMARK    3  A    between atoms: C_5  and  C_6
REMARK    4  A    between atoms: C_8  and  C_9
REMARK    5  A    between atoms: N_11  and  C_12
REMARK    6  A    between atoms: C_17  and  C_18
REMARK                            x       y       z     vdW  Elec       q    Type
REMARK                         _______ _______ _______ _____ _____    ______ ____
ROOT
ATOM      1  C   UNL     1       5.423   4.373  17.992  0.00  0.00    +0.000 C 
ATOM      2  O   UNL     1       6.091   4.201  19.011  0.00  0.00    +0.000 OA
ATOM      3  N   UNL     1       4.042   4.271  18.004  0.00  0.00    +0.000 N 
ATOM      4  H   UNL     1       3.552   4.171  17.114  0.00  0.00    +0.000 HD
ENDROOT
BRANCH   1  10
ATOM      5  N   UNL     1       7.050   5.612  16.569  0.00  0.00    +0.000 N 
ATOM      6  N   UNL     1       7.537   5.689  15.316  0.00  0.00    +0.000 NA
ATOM      7  C   UNL     1       6.835   4.786  14.632  0.00  0.00    +0.000 A 
ATOM      8  C   UNL     1       7.115   4.569  13.192  0.00  0.00    +0.000 C 
ATOM      9  C   UNL     1       5.887   4.133  15.456  0.00  0.00    +0.000 A 
ATOM     10  C   UNL     1       6.062   4.658  16.725  0.00  0.00    +0.000 A 
BRANCH   5  12
ATOM     11  C   UNL     1       7.109   7.923  17.430  0.00  0.00    +0.000 C 
ATOM     12  C   UNL     1       7.619   6.500  17.572  0.00  0.00    +0.000 C 
ENDBRANCH   5  12
ENDBRANCH   1  10
BRANCH   3  13
ATOM     13  C   UNL     1       3.244   4.102  19.177  0.00  0.00    +0.000 A 
ATOM     14  C   UNL     1       2.439   5.129  19.681  0.00  0.00    +0.000 A 
ATOM     15  N   UNL     1       1.664   5.043  20.789  0.00  0.00    +0.000 NA
ATOM     16  C   UNL     1       1.668   3.875  21.441  0.00  0.00    +0.000 A 
ATOM     17  C   UNL     1       2.400   2.777  21.029  0.00  0.00    +0.000 A 
ATOM     18  C   UNL     1       3.205   2.881  19.883  0.00  0.00    +0.000 A 
BRANCH  18  19
ATOM     19  C   UNL     1       4.034   1.720  19.437  0.00  0.00    +0.000 C 
ATOM     20  N   UNL     1       5.156   1.391  20.148  0.00  0.00    +0.000 N 
ATOM     21  O   UNL     1       3.732   1.064  18.444  0.00  0.00    +0.000 OA
ATOM     22  H   UNL     1       5.528   1.894  20.939  0.00  0.00    +0.000 HD
ATOM     23  H   UNL     1       5.718   0.627  19.793  0.00  0.00    +0.000 HD
ENDBRANCH  18  19
ENDBRANCH   3  13
TORSDOF 4
ENDMDL
MODEL 5
REMARK VINA RESULT:      -7.6      1.223      2.278
REMARK  Name = 
REMARK  6 active torsions:
REMARK  status: ('A' for Active; 'I' for Inactive)
REMARK    1  A    between atoms: C_1  and  C_2
REMARK    2  A    between atoms: C_2  and  N_3
REMARK    3  A    between atoms: C_5  and  C_6
REMARK    4  A    between atoms: C_8  and  C_9
REMARK    5  A    between atoms: N_11  and  C_12
REMARK    6  A    between atoms: C_17  and  C_18
REMARK                            x       y       z     vdW  Elec       q    Type
REMARK                         _______ _______ _______ _____ _____    ______ ____
ROOT
ATOM      1  C   UNL     1       5.051   4.573  17.663  0.00  0.00    +0.000 C 
ATOM      2  O   UNL     1       5.478   3.910  18.609  0.00  0.00    +0.000 OA
ATOM      3  N   UNL     1       3.750   5.047  17.639  0.00  0.00    +0.000 N 
ATOM      4  H   UNL     1       3.363   5.366  16.750  0.00  0.00    +0.000 HD
ENDROOT
BRANCH   1  10
ATOM      5  N   UNL     1       6.988   5.689  16.566  0.00  0.00    +0.000 N 
ATOM      6  N   UNL     1       7.651   5.784  15.397  0.00  0.00    +0.000 NA
ATOM      7  C   UNL     1       6.953   5.016  14.560  0.00  0.00    +0.000 A 
ATOM      8  C   UNL     1       7.405   4.856  13.156  0.00  0.00    +0.000 C 
ATOM      9  C   UNL     1       5.833   4.435  15.199  0.00  0.00    +0.000 A 
ATOM     10  C   UNL     1       5.888   4.855  16.517  0.00  0.00    +0.000 A 
BRANCH   5  12
ATOM     11  C   UNL     1       7.637   7.920  17.395  0.00  0.00    +0.000 C 
ATOM     12  C   UNL     1       7.509   6.438  17.701  0.00  0.00    +0.000 C 
ENDBRANCH   5  12
ENDBRANCH   1  10
BRANCH   3  13
ATOM     13  C   UNL     1       2.825   4.954  18.724  0.00  0.00    +0.000 A 
ATOM     14  C   UNL     1       2.639   6.001  19.633  0.00  0.00    +0.000 A 
ATOM     15  N   UNL     1       1.787   5.981  20.686  0.00  0.00    +0.000 NA
ATOM     16  C   UNL     1       1.062   4.870  20.856  0.00  0.00    +0.000 A 
ATOM     17  C   UNL     1       1.135   3.778  20.012  0.00  0.00    +0.000 A 
ATOM     18  C   UNL     1       2.027   3.808  18.928  0.00  0.00    +0.000 A 
BRANCH  18  19
ATOM     19  C   UNL     1       2.152   2.626  18.020  0.00  0.00    +0.000 C 
ATOM     20  N   UNL     1       2.285   1.379  18.568  0.00  0.00    +0.000 N 
ATOM     21  O   UNL     1       2.144   2.755  16.800  0.00  0.00    +0.000 OA
ATOM     22  H   UNL     1       2.363   1.165  19.550  0.00  0.00    +0.000 HD
ATOM     23  H   UNL     1       2.411   0.607  17.925  0.00  0.00    +0.000 HD
ENDBRANCH  18  19
ENDBRANCH   3  13
TORSDOF 4
ENDMDL
MODEL 6
REMARK VINA RESULT:      -7.4      1.582      2.625
REMARK  Name = 
REMARK  6 active torsions:
REMARK  status: ('A' for Active; 'I' for Inactive)
REMARK    1  A    between atoms: C_1  and  C_2
REMARK    2  A    between atoms: C_2  and  N_3
REMARK    3  A    between atoms: C_5  and  C_6
REMARK    4  A    between atoms: C_8  and  C_9
REMARK    5  A    between atoms: N_11  and  C_12
REMARK    6  A    between atoms: C_17  and  C_18
REMARK                            x       y       z     vdW  Elec       q    Type
REMARK                         _______ _______ _______ _____ _____    ______ ____
ROOT
ATOM      1  C   UNL     1       4.403   5.274  17.332  0.00  0.00    +0.000 C 
ATOM      2  O   UNL     1       3.478   6.085  17.308  0.00  0.00    +0.000 OA
ATOM      3  N   UNL     1       4.484   4.294  18.308  0.00  0.00    +0.000 N 
ATOM      4  H   UNL     1       5.375   3.813  18.444  0.00  0.00    +0.000 HD
ENDROOT
BRANCH   1  10
ATOM      5  N   UNL     1       6.679   5.959  16.585  0.00  0.00    +0.000 N 
ATOM      6  N   UNL     1       7.545   5.864  15.557  0.00  0.00    +0.000 NA
ATOM      7  C   UNL     1       6.875   5.187  14.624  0.00  0.00    +0.000 A 
ATOM      8  C   UNL     1       7.531   4.867  13.333  0.00  0.00    +0.000 C 
ATOM      9  C   UNL     1       5.571   4.854  15.059  0.00  0.00    +0.000 A 
ATOM     10  C   UNL     1       5.468   5.334  16.354  0.00  0.00    +0.000 A 
BRANCH   5  12
ATOM     11  C   UNL     1       7.792   5.739  18.776  0.00  0.00    +0.000 C 
ATOM     12  C   UNL     1       7.121   6.666  17.778  0.00  0.00    +0.000 C 
ENDBRANCH   5  12
ENDBRANCH   1  10
BRANCH   3  13
ATOM     13  C   UNL     1       3.474   4.023  19.281  0.00  0.00    +0.000 A 
ATOM     14  C   UNL     1       3.184   4.916  20.318  0.00  0.00    +0.000 A 
ATOM     15  N   UNL     1       2.248   4.724  21.277  0.00  0.00    +0.000 NA
ATOM     16  C   UNL     1       1.541   3.589  21.214  0.00  0.00    +0.000 A 
ATOM     17  C   UNL     1       1.714   2.641  20.223  0.00  0.00    +0.000 A 
ATOM     18  C   UNL     1       2.694   2.849  19.238  0.00  0.00    +0.000 A 
BRANCH  18  19
ATOM     19  C   UNL     1       2.925   1.822  18.177  0.00  0.00    +0.000 C 
ATOM     20  N   UNL     1       3.807   0.803  18.419  0.00  0.00    +0.000 N 
ATOM     21  O   UNL     1       2.348   1.880  17.096  0.00  0.00    +0.000 OA
ATOM     22  H   UNL     1       4.376   0.691  19.244  0.00  0.00    +0.000 HD
ATOM     23  H   UNL     1       3.972   0.150  17.663  0.00  0.00    +0.000 HD
ENDBRANCH  18  19
ENDBRANCH   3  13
TORSDOF 4
ENDMDL
MODEL 7
REMARK VINA RESULT:      -7.4      1.167      1.218
REMARK  Name = 
REMARK  6 active torsions:
REMARK  status: ('A' for Active; 'I' for Inactive)
REMARK    1  A    between atoms: C_1  and  C_2
REMARK    2  A    between atoms: C_2  and  N_3
REMARK    3  A    between atoms: C_5  and  C_6
REMARK    4  A    between atoms: C_8  and  C_9
REMARK    5  A    between atoms: N_11  and  C_12
REMARK    6  A    between atoms: C_17  and  C_18
REMARK                            x       y       z     vdW  Elec       q    Type
REMARK                         _______ _______ _______ _____ _____    ______ ____
ROOT
ATOM      1  C   UNL     1       4.491   3.909  17.189  0.00  0.00    +0.000 C 
ATOM      2  O   UNL     1       3.587   3.143  16.855  0.00  0.00    +0.000 OA
ATOM      3  N   UNL     1       4.543   4.460  18.459  0.00  0.00    +0.000 N 
ATOM      4  H   UNL     1       5.147   5.269  18.615  0.00  0.00    +0.000 HD
ENDROOT
BRANCH   1  10
ATOM      5  N   UNL     1       6.806   4.640  16.630  0.00  0.00    +0.000 N 
ATOM      6  N   UNL     1       7.621   4.924  15.596  0.00  0.00    +0.000 NA
ATOM      7  C   UNL     1       6.847   4.787  14.519  0.00  0.00    +0.000 A 
ATOM      8  C   UNL     1       7.418   5.004  13.168  0.00  0.00    +0.000 C 
ATOM      9  C   UNL     1       5.527   4.419  14.871  0.00  0.00    +0.000 A 
ATOM     10  C   UNL     1       5.523   4.292  16.250  0.00  0.00    +0.000 A 
BRANCH   5  12
ATOM     11  C   UNL     1       7.663   6.141  18.389  0.00  0.00    +0.000 C 
ATOM     12  C   UNL     1       7.366   4.712  17.972  0.00  0.00    +0.000 C 
ENDBRANCH   5  12
ENDBRANCH   1  10
BRANCH   3  13
ATOM     13  C   UNL     1       3.673   4.113  19.537  0.00  0.00    +0.000 A 
ATOM     14  C   UNL     1       3.757   2.879  20.190  0.00  0.00    +0.000 A 
ATOM     15  N   UNL     1       2.964   2.479  21.213  0.00  0.00    +0.000 NA
ATOM     16  C   UNL     1       2.034   3.346  21.632  0.00  0.00    +0.000 A 
ATOM     17  C   UNL     1       1.869   4.605  21.087  0.00  0.00    +0.000 A 
ATOM     18  C   UNL     1       2.693   5.005  20.022  0.00  0.00    +0.000 A 
BRANCH  18  19
ATOM     19  C   UNL     1       2.511   6.348  19.391  0.00  0.00    +0.000 C 
ATOM     20  N   UNL     1       2.234   7.426  20.189  0.00  0.00    +0.000 N 
ATOM     21  O   UNL     1       2.596   6.499  18.176  0.00  0.00    +0.000 OA
ATOM     22  H   UNL     1       2.085   7.406  21.186  0.00  0.00    +0.000 HD
ATOM     23  H   UNL     1       2.074   8.311  19.725  0.00  0.00    +0.000 HD
ENDBRANCH  18  19
ENDBRANCH   3  13
TORSDOF 4
ENDMDL
MODEL 8
REMARK VINA RESULT:      -7.3      1.431      2.448
REMARK  Name = 
REMARK  6 active torsions:
REMARK  status: ('A' for Active; 'I' for Inactive)
REMARK    1  A    between atoms: C_1  and  C_2
REMARK    2  A    between atoms: C_2  and  N_3
REMARK    3  A    between atoms: C_5  and  C_6
REMARK    4  A    between atoms: C_8  and  C_9
REMARK    5  A    between atoms: N_11  and  C_12
REMARK    6  A    between atoms: C_17  and  C_18
REMARK                            x       y       z     vdW  Elec       q    Type
REMARK                         _______ _______ _______ _____ _____    ______ ____
ROOT
ATOM      1  C   UNL     1       5.393   4.301  18.069  0.00  0.00    +0.000 C 
ATOM      2  O   UNL     1       5.994   3.808  19.023  0.00  0.00    +0.000 OA
ATOM      3  N   UNL     1       4.016   4.458  18.083  0.00  0.00    +0.000 N 
ATOM      4  H   UNL     1       3.536   4.630  17.198  0.00  0.00    +0.000 HD
ENDROOT
BRANCH   1  10
ATOM      5  N   UNL     1       7.026   5.734  16.850  0.00  0.00    +0.000 N 
ATOM      6  N   UNL     1       7.597   5.922  15.645  0.00  0.00    +0.000 NA
ATOM      7  C   UNL     1       7.014   5.017  14.859  0.00  0.00    +0.000 A 
ATOM      8  C   UNL     1       7.415   4.911  13.434  0.00  0.00    +0.000 C 
ATOM      9  C   UNL     1       6.058   4.252  15.567  0.00  0.00    +0.000 A 
ATOM     10  C   UNL     1       6.101   4.707  16.874  0.00  0.00    +0.000 A 
BRANCH   5  12
ATOM     11  C   UNL     1       7.706   8.019  17.483  0.00  0.00    +0.000 C 
ATOM     12  C   UNL     1       7.454   6.594  17.944  0.00  0.00    +0.000 C 
ENDBRANCH   5  12
ENDBRANCH   1  10
BRANCH   3  13
ATOM     13  C   UNL     1       3.176   4.212  19.211  0.00  0.00    +0.000 A 
ATOM     14  C   UNL     1       2.834   5.222  20.117  0.00  0.00    +0.000 A 
ATOM     15  N   UNL     1       2.051   5.061  21.209  0.00  0.00    +0.000 NA
ATOM     16  C   UNL     1       1.560   3.835  21.427  0.00  0.00    +0.000 A 
ATOM     17  C   UNL     1       1.803   2.761  20.592  0.00  0.00    +0.000 A 
ATOM     18  C   UNL     1       2.623   2.940  19.466  0.00  0.00    +0.000 A 
BRANCH  18  19
ATOM     19  C   UNL     1       2.931   1.785  18.567  0.00  0.00    +0.000 C 
ATOM     20  N   UNL     1       2.177   1.601  17.439  0.00  0.00    +0.000 N 
ATOM     21  O   UNL     1       3.836   0.998  18.825  0.00  0.00    +0.000 OA
ATOM     22  H   UNL     1       1.376   2.148  17.162  0.00  0.00    +0.000 HD
ATOM     23  H   UNL     1       2.384   0.785  16.876  0.00  0.00    +0.000 HD
ENDBRANCH  18  19
ENDBRANCH   3  13
TORSDOF 4
ENDMDL
MODEL 9
REMARK VINA RESULT:      -7.3      1.630      2.776
REMARK  Name = 
REMARK  6 active torsions:
REMARK  status: ('A' for Active; 'I' for Inactive)
REMARK    1  A    between atoms: C_1  and  C_2
REMARK    2  A    between atoms: C_2  and  N_3
REMARK    3  A    between atoms: C_5  and  C_6
REMARK    4  A    between atoms: C_8  and  C_9
REMARK    5  A    between atoms: N_11  and  C_12
REMARK    6  A    between atoms: C_17  and  C_18
REMARK                            x       y       z     vdW  Elec       q    Type
REMARK                         _______ _______ _______ _____ _____    ______ ____
ROOT
ATOM      1  C   UNL     1       4.236   4.059  17.070  0.00  0.00    +0.000 C 
ATOM      2  O   UNL     1       3.252   3.488  16.601  0.00  0.00    +0.000 OA
ATOM      3  N   UNL     1       4.285   4.447  18.398  0.00  0.00    +0.000 N 
ATOM      4  H   UNL     1       4.992   5.127  18.682  0.00  0.00    +0.000 HD
ENDROOT
BRANCH   1  10
ATOM      5  N   UNL     1       6.638   4.628  16.738  0.00  0.00    +0.000 N 
ATOM      6  N   UNL     1       7.563   4.866  15.788  0.00  0.00    +0.000 NA
ATOM      7  C   UNL     1       6.885   4.797  14.643  0.00  0.00    +0.000 A 
ATOM      8  C   UNL     1       7.593   4.989  13.354  0.00  0.00    +0.000 C 
ATOM      9  C   UNL     1       5.515   4.520  14.866  0.00  0.00    +0.000 A 
ATOM     10  C   UNL     1       5.375   4.378  16.237  0.00  0.00    +0.000 A 
BRANCH   5  12
ATOM     11  C   UNL     1       7.602   6.007  18.543  0.00  0.00    +0.000 C 
ATOM     12  C   UNL     1       7.075   4.645  18.127  0.00  0.00    +0.000 C 
ENDBRANCH   5  12
ENDBRANCH   1  10
BRANCH   3  13
ATOM     13  C   UNL     1       3.302   4.121  19.383  0.00  0.00    +0.000 A 
ATOM     14  C   UNL     1       2.290   5.017  19.746  0.00  0.00    +0.000 A 
ATOM     15  N   UNL     1       1.332   4.780  20.673  0.00  0.00    +0.000 NA
ATOM     16  C   UNL     1       1.356   3.587  21.277  0.00  0.00    +0.000 A 
ATOM     17  C   UNL     1       2.288   2.607  20.987  0.00  0.00    +0.000 A 
ATOM     18  C   UNL     1       3.281   2.868  20.029  0.00  0.00    +0.000 A 
BRANCH  18  19
ATOM     19  C   UNL     1       4.321   1.839  19.723  0.00  0.00    +0.000 C 
ATOM     20  N   UNL     1       4.178   1.059  18.607  0.00  0.00    +0.000 N 
ATOM     21  O   UNL     1       5.293   1.676  20.455  0.00  0.00    +0.000 OA
ATOM     22  H   UNL     1       3.394   1.066  17.972  0.00  0.00    +0.000 HD
ATOM     23  H   UNL     1       4.877   0.343  18.454  0.00  0.00    +0.000 HD
ENDBRANCH  18  19
ENDBRANCH   3  13
TORSDOF 4
ENDMDL
