MODEL 1
REMARK VINA RESULT:      -7.9      0.000      0.000
REMARK  Name = 
REMARK  9 active torsions:
REMARK  status: ('A' for Active; 'I' for Inactive)
REMARK    1  A    between atoms: C_2  and  C_3
REMARK    2  A    between atoms: C_2  and  C_13
REMARK    3  A    between atoms: C_5  and  S_6
REMARK    4  A    between atoms: S_6  and  C_7
REMARK    5  A    between atoms: C_9  and  S_10
REMARK    6  A    between atoms: S_10  and  C_11
REMARK    7  A    between atoms: C_19  and  C_20
REMARK    8  A    between atoms: C_20  and  O_22
REMARK    9  A    between atoms: N_24  and  C_25
REMARK                            x       y       z     vdW  Elec       q    Type
REMARK                         _______ _______ _______ _____ _____    ______ ____
ROOT
ATOM      1  C   UNL     1       3.173   5.279  19.060  0.00  0.00    +0.000 A 
ATOM      2  C   UNL     1       2.777   4.716  17.846  0.00  0.00    +0.000 A 
ATOM      3  C   UNL     1       3.719   4.342  16.880  0.00  0.00    +0.000 A 
ATOM      4  C   UNL     1       5.080   4.558  17.161  0.00  0.00    +0.000 A 
ATOM      5  C   UNL     1       5.511   5.123  18.364  0.00  0.00    +0.000 A 
ATOM      6  C   UNL     1       4.537   5.479  19.323  0.00  0.00    +0.000 A 
ATOM      7  C   UNL     1       6.947   5.221  18.325  0.00  0.00    +0.000 A 
ATOM      8  C   UNL     1       7.331   4.704  17.096  0.00  0.00    +0.000 A 
ATOM      9  N   UNL     1       6.208   4.303  16.416  0.00  0.00    +0.000 N 
ATOM     10  C   UNL     1       6.214   3.699  15.100  0.00  0.00    +0.000 C 
ENDROOT
BRANCH   1  12
ATOM     11  C   UNL     1       1.624   4.728  20.819  0.00  0.00    +0.000 C 
ATOM     12  C   UNL     1       2.171   5.694  20.063  0.00  0.00    +0.000 C 
BRANCH  12  13
ATOM     13  C   UNL     1       1.691   7.082  20.211  0.00  0.00    +0.000 A 
ATOM     14  C   UNL     1       1.079   7.513  21.389  0.00  0.00    +0.000 A 
ATOM     15  C   UNL     1       0.719   8.850  21.499  0.00  0.00    +0.000 A 
ATOM     16  N   UNL     1       0.921   9.748  20.512  0.00  0.00    +0.000 NA
ATOM     17  C   UNL     1       1.502   9.318  19.374  0.00  0.00    +0.000 A 
ATOM     18  C   UNL     1       1.893   8.001  19.180  0.00  0.00    +0.000 A 
BRANCH  15  19
ATOM     19  S   UNL     1      -0.019   9.443  23.014  0.00  0.00    +0.000 S 
ATOM     20  C   UNL     1      -0.642  11.059  22.467  0.00  0.00    +0.000 C 
ENDBRANCH  15  19
BRANCH  17  21
ATOM     21  S   UNL     1       1.801  10.514  18.082  0.00  0.00    +0.000 S 
ATOM     22  C   UNL     1       0.858  11.929  18.713  0.00  0.00    +0.000 C 
ENDBRANCH  17  21
ENDBRANCH  12  13
ENDBRANCH   1  12
BRANCH   7  23
ATOM     23  C   UNL     1       7.800   5.764  19.381  0.00  0.00    +0.000 C 
ATOM     24  O   UNL     1       7.925   5.251  20.488  0.00  0.00    +0.000 OA
BRANCH  23  25
ATOM     25  O   UNL     1       8.468   6.904  19.070  0.00  0.00    +0.000 OA
ATOM     26  H   UNL     1       7.874   7.655  18.922  0.00  0.00    +0.000 HD
ENDBRANCH  23  25
ENDBRANCH   7  23
TORSDOF 6
ENDMDL
MODEL 2
REMARK VINA RESULT:      -7.9      0.195      2.147
REMARK  Name = 
REMARK  9 active torsions:
REMARK  status: ('A' for Active; 'I' for Inactive)
REMARK    1  A    between atoms: C_2  and  C_3
REMARK    2  A    between atoms: C_2  and  C_13
REMARK    3  A    between atoms: C_5  and  S_6
REMARK    4  A    between atoms: S_6  and  C_7
REMARK    5  A    between atoms: C_9  and  S_10
REMARK    6  A    between atoms: S_10  and  C_11
REMARK    7  A    between atoms: C_19  and  C_20
REMARK    8  A    between atoms: C_20  and  O_22
REMARK    9  A    between atoms: N_24  and  C_25
REMARK                            x       y       z     vdW  Elec       q    Type
REMARK                         _______ _______ _______ _____ _____    ______ ____
ROOT
ATOM      1  C   UNL     1       3.124   5.368  19.036  0.00  0.00    +0.000 A 
ATOM      2  C   UNL     1       2.725   4.802  17.824  0.00  0.00    +0.000 A 
ATOM      3  C   UNL     1       3.666   4.406  16.865  0.00  0.00    +0.000 A 
ATOM      4  C   UNL     1       5.029   4.603  17.152  0.00  0.00    +0.000 A 
ATOM      5  C   UNL     1       5.463   5.169  18.353  0.00  0.00    +0.000 A 
ATOM      6  C   UNL     1       4.490   5.548  19.304  0.00  0.00    +0.000 A 
ATOM      7  C   UNL     1       6.900   5.243  18.321  0.00  0.00    +0.000 A 
ATOM      8  C   UNL     1       7.283   4.711  17.098  0.00  0.00    +0.000 A 
ATOM      9  N   UNL     1       6.157   4.323  16.415  0.00  0.00    +0.000 N 
ATOM     10  C   UNL     1       6.160   3.710  15.103  0.00  0.00    +0.000 C 
ENDROOT
BRANCH   1  12
ATOM     11  C   UNL     1       1.484   4.848  20.719  0.00  0.00    +0.000 C 
ATOM     12  C   UNL     1       2.124   5.806  20.030  0.00  0.00    +0.000 C 
BRANCH  12  13
ATOM     13  C   UNL     1       1.742   7.217  20.236  0.00  0.00    +0.000 A 
ATOM     14  C   UNL     1       1.891   8.162  19.220  0.00  0.00    +0.000 A 
ATOM     15  C   UNL     1       1.442   9.457  19.447  0.00  0.00    +0.000 A 
ATOM     16  N   UNL     1       0.883   9.846  20.612  0.00  0.00    +0.000 NA
ATOM     17  C   UNL     1       0.755   8.928  21.590  0.00  0.00    +0.000 A 
ATOM     18  C   UNL     1       1.176   7.614  21.449  0.00  0.00    +0.000 A 
BRANCH  15  19
ATOM     19  S   UNL     1       1.571  10.675  18.146  0.00  0.00    +0.000 S 
ATOM     20  C   UNL     1       0.157  11.741  18.552  0.00  0.00    +0.000 C 
ENDBRANCH  15  19
BRANCH  17  21
ATOM     21  S   UNL     1      -0.017   9.436  23.119  0.00  0.00    +0.000 S 
ATOM     22  C   UNL     1      -0.793  10.991  22.601  0.00  0.00    +0.000 C 
ENDBRANCH  17  21
ENDBRANCH  12  13
ENDBRANCH   1  12
BRANCH   7  23
ATOM     23  C   UNL     1       7.756   5.779  19.378  0.00  0.00    +0.000 C 
ATOM     24  O   UNL     1       7.885   5.259  20.481  0.00  0.00    +0.000 OA
BRANCH  23  25
ATOM     25  O   UNL     1       8.423   6.922  19.072  0.00  0.00    +0.000 OA
ATOM     26  H   UNL     1       8.193   7.264  18.196  0.00  0.00    +0.000 HD
ENDBRANCH  23  25
ENDBRANCH   7  23
TORSDOF 6
ENDMDL
MODEL 3
REMARK VINA RESULT:      -7.5      3.750      7.624
REMARK  Name = 
REMARK  9 active torsions:
REMARK  status: ('A' for Active; 'I' for Inactive)
REMARK    1  A    between atoms: C_2  and  C_3
REMARK    2  A    between atoms: C_2  and  C_13
REMARK    3  A    between atoms: C_5  and  S_6
REMARK    4  A    between atoms: S_6  and  C_7
REMARK    5  A    between atoms: C_9  and  S_10
REMARK    6  A    between atoms: S_10  and  C_11
REMARK    7  A    between atoms: C_19  and  C_20
REMARK    8  A    between atoms: C_20  and  O_22
REMARK    9  A    between atoms: N_24  and  C_25
REMARK                            x       y       z     vdW  Elec       q    Type
REMARK                         _______ _______ _______ _____ _____    ______ ____
ROOT
ATOM      1  C   UNL     1       2.207   7.289  19.017  0.00  0.00    +0.000 A 
ATOM      2  C   UNL     1       2.317   8.143  17.919  0.00  0.00    +0.000 A 
ATOM      3  C   UNL     1       1.847   9.461  17.977  0.00  0.00    +0.000 A 
ATOM      4  C   UNL     1       1.250   9.901  19.171  0.00  0.00    +0.000 A 
ATOM      5  C   UNL     1       1.121   9.072  20.288  0.00  0.00    +0.000 A 
ATOM      6  C   UNL     1       1.614   7.752  20.203  0.00  0.00    +0.000 A 
ATOM      7  C   UNL     1       0.458   9.818  21.327  0.00  0.00    +0.000 A 
ATOM      8  C   UNL     1       0.216  11.078  20.797  0.00  0.00    +0.000 A 
ATOM      9  N   UNL     1       0.703  11.117  19.514  0.00  0.00    +0.000 N 
ATOM     10  C   UNL     1       0.645  12.274  18.646  0.00  0.00    +0.000 C 
ENDROOT
BRANCH   1  12
ATOM     11  C   UNL     1       1.914   4.951  19.512  0.00  0.00    +0.000 C 
ATOM     12  C   UNL     1       2.681   5.893  18.939  0.00  0.00    +0.000 C 
BRANCH  12  13
ATOM     13  C   UNL     1       3.976   5.503  18.346  0.00  0.00    +0.000 A 
ATOM     14  C   UNL     1       4.046   4.936  17.073  0.00  0.00    +0.000 A 
ATOM     15  C   UNL     1       5.298   4.662  16.537  0.00  0.00    +0.000 A 
ATOM     16  N   UNL     1       6.449   4.906  17.198  0.00  0.00    +0.000 NA
ATOM     17  C   UNL     1       6.368   5.443  18.432  0.00  0.00    +0.000 A 
ATOM     18  C   UNL     1       5.161   5.747  19.042  0.00  0.00    +0.000 A 
BRANCH  15  19
ATOM     19  S   UNL     1       5.422   3.985  14.888  0.00  0.00    +0.000 S 
ATOM     20  C   UNL     1       6.911   4.837  14.293  0.00  0.00    +0.000 C 
ENDBRANCH  15  19
BRANCH  17  21
ATOM     21  S   UNL     1       7.893   5.797  19.291  0.00  0.00    +0.000 S 
ATOM     22  C   UNL     1       8.298   7.423  18.598  0.00  0.00    +0.000 C 
ENDBRANCH  17  21
ENDBRANCH  12  13
ENDBRANCH   1  12
BRANCH   7  23
ATOM     23  C   UNL     1       0.119   9.320  22.659  0.00  0.00    +0.000 C 
ATOM     24  O   UNL     1       0.684   9.680  23.685  0.00  0.00    +0.000 OA
BRANCH  23  25
ATOM     25  O   UNL     1      -0.883   8.406  22.708  0.00  0.00    +0.000 OA
ATOM     26  H   UNL     1      -1.434   8.414  21.912  0.00  0.00    +0.000 HD
ENDBRANCH  23  25
ENDBRANCH   7  23
TORSDOF 6
ENDMDL
MODEL 4
REMARK VINA RESULT:      -7.4      3.096      4.466
REMARK  Name = 
REMARK  9 active torsions:
REMARK  status: ('A' for Active; 'I' for Inactive)
REMARK    1  A    between atoms: C_2  and  C_3
REMARK    2  A    between atoms: C_2  and  C_13
REMARK    3  A    between atoms: C_5  and  S_6
REMARK    4  A    between atoms: S_6  and  C_7
REMARK    5  A    between atoms: C_9  and  S_10
REMARK    6  A    between atoms: S_10  and  C_11
REMARK    7  A    between atoms: C_19  and  C_20
REMARK    8  A    between atoms: C_20  and  O_22
REMARK    9  A    between atoms: N_24  and  C_25
REMARK                            x       y       z     vdW  Elec       q    Type
REMARK                         _______ _______ _______ _____ _____    ______ ____
ROOT
ATOM      1  C   UNL     1       1.712   7.875  19.837  0.00  0.00    +0.000 A 
ATOM      2  C   UNL     1       2.425   8.102  18.658  0.00  0.00    +0.000 A 
ATOM      3  C   UNL     1       3.088   7.058  18.001  0.00  0.00    +0.000 A 
ATOM      4  C   UNL     1       3.025   5.772  18.565  0.00  0.00    +0.000 A 
ATOM      5  C   UNL     1       2.324   5.511  19.746  0.00  0.00    +0.000 A 
ATOM      6  C   UNL     1       1.657   6.582  20.379  0.00  0.00    +0.000 A 
ATOM      7  C   UNL     1       2.472   4.113  20.056  0.00  0.00    +0.000 A 
ATOM      8  C   UNL     1       3.258   3.578  19.043  0.00  0.00    +0.000 A 
ATOM      9  N   UNL     1       3.571   4.577  18.155  0.00  0.00    +0.000 N 
ATOM     10  C   UNL     1       4.366   4.396  16.959  0.00  0.00    +0.000 C 
ENDROOT
BRANCH   1  12
ATOM     11  C   UNL     1       0.874   8.865  21.865  0.00  0.00    +0.000 C 
ATOM     12  C   UNL     1       1.038   8.987  20.537  0.00  0.00    +0.000 C 
BRANCH  12  13
ATOM     13  C   UNL     1       0.472  10.163  19.847  0.00  0.00    +0.000 A 
ATOM     14  C   UNL     1      -0.748  10.088  19.173  0.00  0.00    +0.000 A 
ATOM     15  C   UNL     1      -1.267  11.246  18.610  0.00  0.00    +0.000 A 
ATOM     16  N   UNL     1      -0.638  12.438  18.671  0.00  0.00    +0.000 NA
ATOM     17  C   UNL     1       0.545  12.496  19.314  0.00  0.00    +0.000 A 
ATOM     18  C   UNL     1       1.136  11.389  19.905  0.00  0.00    +0.000 A 
BRANCH  15  19
ATOM     19  S   UNL     1      -2.852  11.191  17.786  0.00  0.00    +0.000 S 
ATOM     20  C   UNL     1      -2.486  10.024  16.444  0.00  0.00    +0.000 C 
ENDBRANCH  15  19
BRANCH  17  21
ATOM     21  S   UNL     1       1.360  14.082  19.425  0.00  0.00    +0.000 S 
ATOM     22  C   UNL     1       2.724  13.840  18.254  0.00  0.00    +0.000 C 
ENDBRANCH  17  21
ENDBRANCH  12  13
ENDBRANCH   1  12
BRANCH   7  23
ATOM     23  C   UNL     1       1.903   3.424  21.213  0.00  0.00    +0.000 C 
ATOM     24  O   UNL     1       2.487   3.290  22.282  0.00  0.00    +0.000 OA
BRANCH  23  25
ATOM     25  O   UNL     1       0.654   2.918  21.041  0.00  0.00    +0.000 OA
ATOM     26  H   UNL     1       0.610   1.968  21.219  0.00  0.00    +0.000 HD
ENDBRANCH  23  25
ENDBRANCH   7  23
TORSDOF 6
ENDMDL
MODEL 5
REMARK VINA RESULT:      -7.4      3.103      4.459
REMARK  Name = 
REMARK  9 active torsions:
REMARK  status: ('A' for Active; 'I' for Inactive)
REMARK    1  A    between atoms: C_2  and  C_3
REMARK    2  A    between atoms: C_2  and  C_13
REMARK    3  A    between atoms: C_5  and  S_6
REMARK    4  A    between atoms: S_6  and  C_7
REMARK    5  A    between atoms: C_9  and  S_10
REMARK    6  A    between atoms: S_10  and  C_11
REMARK    7  A    between atoms: C_19  and  C_20
REMARK    8  A    between atoms: C_20  and  O_22
REMARK    9  A    between atoms: N_24  and  C_25
REMARK                            x       y       z     vdW  Elec       q    Type
REMARK                         _______ _______ _______ _____ _____    ______ ____
ROOT
ATOM      1  C   UNL     1       1.803   7.770  19.802  0.00  0.00    +0.000 A 
ATOM      2  C   UNL     1       2.510   7.978  18.617  0.00  0.00    +0.000 A 
ATOM      3  C   UNL     1       3.149   6.920  17.959  0.00  0.00    +0.000 A 
ATOM      4  C   UNL     1       3.069   5.638  18.531  0.00  0.00    +0.000 A 
ATOM      5  C   UNL     1       2.373   5.395  19.718  0.00  0.00    +0.000 A 
ATOM      6  C   UNL     1       1.729   6.480  20.351  0.00  0.00    +0.000 A 
ATOM      7  C   UNL     1       2.499   3.995  20.034  0.00  0.00    +0.000 A 
ATOM      8  C   UNL     1       3.267   3.443  19.018  0.00  0.00    +0.000 A 
ATOM      9  N   UNL     1       3.591   4.432  18.122  0.00  0.00    +0.000 N 
ATOM     10  C   UNL     1       4.373   4.231  16.921  0.00  0.00    +0.000 C 
ENDROOT
BRANCH   1  12
ATOM     11  C   UNL     1       1.180   8.880  21.845  0.00  0.00    +0.000 C 
ATOM     12  C   UNL     1       1.153   8.896  20.502  0.00  0.00    +0.000 C 
BRANCH  12  13
ATOM     13  C   UNL     1       0.418   9.973  19.810  0.00  0.00    +0.000 A 
ATOM     14  C   UNL     1       0.952  11.257  19.699  0.00  0.00    +0.000 A 
ATOM     15  C   UNL     1       0.250  12.207  18.968  0.00  0.00    +0.000 A 
ATOM     16  N   UNL     1      -0.934  11.948  18.375  0.00  0.00    +0.000 NA
ATOM     17  C   UNL     1      -1.446  10.708  18.499  0.00  0.00    +0.000 A 
ATOM     18  C   UNL     1      -0.812   9.700  19.209  0.00  0.00    +0.000 A 
BRANCH  15  19
ATOM     19  S   UNL     1       0.934  13.845  18.764  0.00  0.00    +0.000 S 
ATOM     20  C   UNL     1       2.505  13.660  19.656  0.00  0.00    +0.000 C 
ENDBRANCH  15  19
BRANCH  17  21
ATOM     21  S   UNL     1      -2.995  10.356  17.683  0.00  0.00    +0.000 S 
ATOM     22  C   UNL     1      -2.645  10.980  16.016  0.00  0.00    +0.000 C 
ENDBRANCH  17  21
ENDBRANCH  12  13
ENDBRANCH   1  12
BRANCH   7  23
ATOM     23  C   UNL     1       1.927   3.323  21.199  0.00  0.00    +0.000 C 
ATOM     24  O   UNL     1       2.522   3.171  22.259  0.00  0.00    +0.000 OA
BRANCH  23  25
ATOM     25  O   UNL     1       0.662   2.853  21.045  0.00  0.00    +0.000 OA
ATOM     26  H   UNL     1       0.639   1.910  20.827  0.00  0.00    +0.000 HD
ENDBRANCH  23  25
ENDBRANCH   7  23
TORSDOF 6
ENDMDL
MODEL 6
REMARK VINA RESULT:      -7.2      3.068      4.736
REMARK  Name = 
REMARK  9 active torsions:
REMARK  status: ('A' for Active; 'I' for Inactive)
REMARK    1  A    between atoms: C_2  and  C_3
REMARK    2  A    between atoms: C_2  and  C_13
REMARK    3  A    between atoms: C_5  and  S_6
REMARK    4  A    between atoms: S_6  and  C_7
REMARK    5  A    between atoms: C_9  and  S_10
REMARK    6  A    between atoms: S_10  and  C_11
REMARK    7  A    between atoms: C_19  and  C_20
REMARK    8  A    between atoms: C_20  and  O_22
REMARK    9  A    between atoms: N_24  and  C_25
REMARK                            x       y       z     vdW  Elec       q    Type
REMARK                         _______ _______ _______ _____ _____    ______ ____
ROOT
ATOM      1  C   UNL     1       1.630   7.908  20.037  0.00  0.00    +0.000 A 
ATOM      2  C   UNL     1       2.319   8.191  18.856  0.00  0.00    +0.000 A 
ATOM      3  C   UNL     1       2.974   7.182  18.140  0.00  0.00    +0.000 A 
ATOM      4  C   UNL     1       2.929   5.872  18.648  0.00  0.00    +0.000 A 
ATOM      5  C   UNL     1       2.252   5.554  19.829  0.00  0.00    +0.000 A 
ATOM      6  C   UNL     1       1.592   6.592  20.522  0.00  0.00    +0.000 A 
ATOM      7  C   UNL     1       2.413   4.144  20.074  0.00  0.00    +0.000 A 
ATOM      8  C   UNL     1       3.182   3.660  19.023  0.00  0.00    +0.000 A 
ATOM      9  N   UNL     1       3.473   4.699  18.175  0.00  0.00    +0.000 N 
ATOM     10  C   UNL     1       4.246   4.576  16.957  0.00  0.00    +0.000 C 
ENDROOT
BRANCH   1  12
ATOM     11  C   UNL     1       1.206   9.040  22.119  0.00  0.00    +0.000 C 
ATOM     12  C   UNL     1       0.964   8.984  20.799  0.00  0.00    +0.000 C 
BRANCH  12  13
ATOM     13  C   UNL     1      -0.002   9.928  20.204  0.00  0.00    +0.000 A 
ATOM     14  C   UNL     1      -0.577   9.683  18.956  0.00  0.00    +0.000 A 
ATOM     15  C   UNL     1      -1.538  10.567  18.483  0.00  0.00    +0.000 A 
ATOM     16  N   UNL     1      -1.930  11.661  19.169  0.00  0.00    +0.000 NA
ATOM     17  C   UNL     1      -1.359  11.894  20.367  0.00  0.00    +0.000 A 
ATOM     18  C   UNL     1      -0.393  11.064  20.915  0.00  0.00    +0.000 A 
BRANCH  15  19
ATOM     19  S   UNL     1      -2.330  10.251  16.912  0.00  0.00    +0.000 S 
ATOM     20  C   UNL     1      -3.778  11.338  17.049  0.00  0.00    +0.000 C 
ENDBRANCH  15  19
BRANCH  17  21
ATOM     21  S   UNL     1      -1.904  13.323  21.290  0.00  0.00    +0.000 S 
ATOM     22  C   UNL     1      -3.548  12.772  21.822  0.00  0.00    +0.000 C 
ENDBRANCH  17  21
ENDBRANCH  12  13
ENDBRANCH   1  12
BRANCH   7  23
ATOM     23  C   UNL     1       1.870   3.402  21.209  0.00  0.00    +0.000 C 
ATOM     24  O   UNL     1       2.466   3.243  22.269  0.00  0.00    +0.000 OA
BRANCH  23  25
ATOM     25  O   UNL     1       0.632   2.874  21.029  0.00  0.00    +0.000 OA
ATOM     26  H   UNL     1      -0.012   3.206  21.672  0.00  0.00    +0.000 HD
ENDBRANCH  23  25
ENDBRANCH   7  23
TORSDOF 6
ENDMDL
MODEL 7
REMARK VINA RESULT:      -7.0      3.091      4.466
REMARK  Name = 
REMARK  9 active torsions:
REMARK  status: ('A' for Active; 'I' for Inactive)
REMARK    1  A    between atoms: C_2  and  C_3
REMARK    2  A    between atoms: C_2  and  C_13
REMARK    3  A    between atoms: C_5  and  S_6
REMARK    4  A    between atoms: S_6  and  C_7
REMARK    5  A    between atoms: C_9  and  S_10
REMARK    6  A    between atoms: S_10  and  C_11
REMARK    7  A    between atoms: C_19  and  C_20
REMARK    8  A    between atoms: C_20  and  O_22
REMARK    9  A    between atoms: N_24  and  C_25
REMARK                            x       y       z     vdW  Elec       q    Type
REMARK                         _______ _______ _______ _____ _____    ______ ____
ROOT
ATOM      1  C   UNL     1       1.627   7.946  20.077  0.00  0.00    +0.000 A 
ATOM      2  C   UNL     1       2.303   8.225  18.888  0.00  0.00    +0.000 A 
ATOM      3  C   UNL     1       2.945   7.212  18.165  0.00  0.00    +0.000 A 
ATOM      4  C   UNL     1       2.899   5.902  18.674  0.00  0.00    +0.000 A 
ATOM      5  C   UNL     1       2.234   5.588  19.863  0.00  0.00    +0.000 A 
ATOM      6  C   UNL     1       1.587   6.630  20.563  0.00  0.00    +0.000 A 
ATOM      7  C   UNL     1       2.392   4.178  20.106  0.00  0.00    +0.000 A 
ATOM      8  C   UNL     1       3.145   3.689  19.048  0.00  0.00    +0.000 A 
ATOM      9  N   UNL     1       3.432   4.727  18.195  0.00  0.00    +0.000 N 
ATOM     10  C   UNL     1       4.190   4.600  16.969  0.00  0.00    +0.000 C 
ENDROOT
BRANCH   1  12
ATOM     11  C   UNL     1       1.196   9.054  22.170  0.00  0.00    +0.000 C 
ATOM     12  C   UNL     1       0.974   9.025  20.846  0.00  0.00    +0.000 C 
BRANCH  12  13
ATOM     13  C   UNL     1       0.041  10.001  20.251  0.00  0.00    +0.000 A 
ATOM     14  C   UNL     1      -0.137  11.267  20.813  0.00  0.00    +0.000 A 
ATOM     15  C   UNL     1      -0.969  12.170  20.165  0.00  0.00    +0.000 A 
ATOM     16  N   UNL     1      -1.626  11.874  19.024  0.00  0.00    +0.000 NA
ATOM     17  C   UNL     1      -1.457  10.645  18.497  0.00  0.00    +0.000 A 
ATOM     18  C   UNL     1      -0.645   9.683  19.078  0.00  0.00    +0.000 A 
BRANCH  15  19
ATOM     19  S   UNL     1      -1.175  13.815  20.832  0.00  0.00    +0.000 S 
ATOM     20  C   UNL     1      -0.422  14.803  19.508  0.00  0.00    +0.000 C 
ENDBRANCH  15  19
BRANCH  17  21
ATOM     21  S   UNL     1      -2.299  10.267  16.968  0.00  0.00    +0.000 S 
ATOM     22  C   UNL     1      -3.754  11.339  17.114  0.00  0.00    +0.000 C 
ENDBRANCH  17  21
ENDBRANCH  12  13
ENDBRANCH   1  12
BRANCH   7  23
ATOM     23  C   UNL     1       1.858   3.438  21.249  0.00  0.00    +0.000 C 
ATOM     24  O   UNL     1       2.435   3.337  22.325  0.00  0.00    +0.000 OA
BRANCH  23  25
ATOM     25  O   UNL     1       0.652   2.846  21.054  0.00  0.00    +0.000 OA
ATOM     26  H   UNL     1       0.278   2.486  21.872  0.00  0.00    +0.000 HD
ENDBRANCH  23  25
ENDBRANCH   7  23
TORSDOF 6
ENDMDL
MODEL 8
REMARK VINA RESULT:      -7.0      2.274      4.073
REMARK  Name = 
REMARK  9 active torsions:
REMARK  status: ('A' for Active; 'I' for Inactive)
REMARK    1  A    between atoms: C_2  and  C_3
REMARK    2  A    between atoms: C_2  and  C_13
REMARK    3  A    between atoms: C_5  and  S_6
REMARK    4  A    between atoms: S_6  and  C_7
REMARK    5  A    between atoms: C_9  and  S_10
REMARK    6  A    between atoms: S_10  and  C_11
REMARK    7  A    between atoms: C_19  and  C_20
REMARK    8  A    between atoms: C_20  and  O_22
REMARK    9  A    between atoms: N_24  and  C_25
REMARK                            x       y       z     vdW  Elec       q    Type
REMARK                         _______ _______ _______ _____ _____    ______ ____
ROOT
ATOM      1  C   UNL     1       2.324   6.987  19.255  0.00  0.00    +0.000 A 
ATOM      2  C   UNL     1       1.546   6.455  20.284  0.00  0.00    +0.000 A 
ATOM      3  C   UNL     1       1.788   5.169  20.785  0.00  0.00    +0.000 A 
ATOM      4  C   UNL     1       2.832   4.421  20.215  0.00  0.00    +0.000 A 
ATOM      5  C   UNL     1       3.628   4.922  19.181  0.00  0.00    +0.000 A 
ATOM      6  C   UNL     1       3.367   6.225  18.706  0.00  0.00    +0.000 A 
ATOM      7  C   UNL     1       4.584   3.908  18.819  0.00  0.00    +0.000 A 
ATOM      8  C   UNL     1       4.332   2.829  19.656  0.00  0.00    +0.000 A 
ATOM      9  N   UNL     1       3.291   3.153  20.491  0.00  0.00    +0.000 N 
ATOM     10  C   UNL     1       2.754   2.281  21.513  0.00  0.00    +0.000 C 
ENDROOT
BRANCH   1  12
ATOM     11  C   UNL     1       2.778   8.737  17.665  0.00  0.00    +0.000 C 
ATOM     12  C   UNL     1       2.045   8.333  18.716  0.00  0.00    +0.000 C 
BRANCH  12  13
ATOM     13  C   UNL     1       1.076   9.269  19.320  0.00  0.00    +0.000 A 
ATOM     14  C   UNL     1       0.336  10.152  18.531  0.00  0.00    +0.000 A 
ATOM     15  C   UNL     1      -0.616  10.954  19.148  0.00  0.00    +0.000 A 
ATOM     16  N   UNL     1      -0.847  10.928  20.477  0.00  0.00    +0.000 NA
ATOM     17  C   UNL     1      -0.118  10.081  21.230  0.00  0.00    +0.000 A 
ATOM     18  C   UNL     1       0.852   9.246  20.697  0.00  0.00    +0.000 A 
BRANCH  15  19
ATOM     19  S   UNL     1      -1.615  12.056  18.157  0.00  0.00    +0.000 S 
ATOM     20  C   UNL     1      -2.334  10.877  16.978  0.00  0.00    +0.000 C 
ENDBRANCH  15  19
BRANCH  17  21
ATOM     21  S   UNL     1      -0.450  10.023  22.984  0.00  0.00    +0.000 S 
ATOM     22  C   UNL     1      -1.645  11.378  23.143  0.00  0.00    +0.000 C 
ENDBRANCH  17  21
ENDBRANCH  12  13
ENDBRANCH   1  12
BRANCH   7  23
ATOM     23  C   UNL     1       5.601   4.019  17.775  0.00  0.00    +0.000 C 
ATOM     24  O   UNL     1       5.353   3.979  16.575  0.00  0.00    +0.000 OA
BRANCH  23  25
ATOM     25  O   UNL     1       6.878   4.170  18.210  0.00  0.00    +0.000 OA
ATOM     26  H   UNL     1       7.504   4.314  17.485  0.00  0.00    +0.000 HD
ENDBRANCH  23  25
ENDBRANCH   7  23
TORSDOF 6
ENDMDL
MODEL 9
REMARK VINA RESULT:      -7.0      2.499      3.717
REMARK  Name = 
REMARK  9 active torsions:
REMARK  status: ('A' for Active; 'I' for Inactive)
REMARK    1  A    between atoms: C_2  and  C_3
REMARK    2  A    between atoms: C_2  and  C_13
REMARK    3  A    between atoms: C_5  and  S_6
REMARK    4  A    between atoms: S_6  and  C_7
REMARK    5  A    between atoms: C_9  and  S_10
REMARK    6  A    between atoms: S_10  and  C_11
REMARK    7  A    between atoms: C_19  and  C_20
REMARK    8  A    between atoms: C_20  and  O_22
REMARK    9  A    between atoms: N_24  and  C_25
REMARK                            x       y       z     vdW  Elec       q    Type
REMARK                         _______ _______ _______ _____ _____    ______ ____
ROOT
ATOM      1  C   UNL     1       2.235   7.198  19.175  0.00  0.00    +0.000 A 
ATOM      2  C   UNL     1       1.483   6.691  20.236  0.00  0.00    +0.000 A 
ATOM      3  C   UNL     1       1.730   5.414  20.753  0.00  0.00    +0.000 A 
ATOM      4  C   UNL     1       2.753   4.647  20.168  0.00  0.00    +0.000 A 
ATOM      5  C   UNL     1       3.523   5.122  19.103  0.00  0.00    +0.000 A 
ATOM      6  C   UNL     1       3.257   6.418  18.611  0.00  0.00    +0.000 A 
ATOM      7  C   UNL     1       4.461   4.094  18.733  0.00  0.00    +0.000 A 
ATOM      8  C   UNL     1       4.225   3.033  19.597  0.00  0.00    +0.000 A 
ATOM      9  N   UNL     1       3.211   3.381  20.455  0.00  0.00    +0.000 N 
ATOM     10  C   UNL     1       2.696   2.532  21.508  0.00  0.00    +0.000 C 
ENDROOT
BRANCH   1  12
ATOM     11  C   UNL     1       2.836   9.036  17.740  0.00  0.00    +0.000 C 
ATOM     12  C   UNL     1       1.951   8.536  18.619  0.00  0.00    +0.000 C 
BRANCH  12  13
ATOM     13  C   UNL     1       0.807   9.369  19.040  0.00  0.00    +0.000 A 
ATOM     14  C   UNL     1       0.639   9.746  20.373  0.00  0.00    +0.000 A 
ATOM     15  C   UNL     1      -0.412  10.594  20.696  0.00  0.00    +0.000 A 
ATOM     16  N   UNL     1      -1.289  11.057  19.780  0.00  0.00    +0.000 NA
ATOM     17  C   UNL     1      -1.124  10.677  18.498  0.00  0.00    +0.000 A 
ATOM     18  C   UNL     1      -0.103   9.834  18.088  0.00  0.00    +0.000 A 
BRANCH  15  19
ATOM     19  S   UNL     1      -0.621  11.136  22.386  0.00  0.00    +0.000 S 
ATOM     20  C   UNL     1      -0.174   9.618  23.276  0.00  0.00    +0.000 C 
ENDBRANCH  15  19
BRANCH  17  21
ATOM     21  S   UNL     1      -2.264  11.318  17.282  0.00  0.00    +0.000 S 
ATOM     22  C   UNL     1      -3.760  10.380  17.697  0.00  0.00    +0.000 C 
ENDBRANCH  17  21
ENDBRANCH  12  13
ENDBRANCH   1  12
BRANCH   7  23
ATOM     23  C   UNL     1       5.448   4.178  17.658  0.00  0.00    +0.000 C 
ATOM     24  O   UNL     1       5.158   4.301  16.474  0.00  0.00    +0.000 OA
BRANCH  23  25
ATOM     25  O   UNL     1       6.747   4.107  18.045  0.00  0.00    +0.000 OA
ATOM     26  H   UNL     1       7.202   3.331  17.685  0.00  0.00    +0.000 HD
ENDBRANCH  23  25
ENDBRANCH   7  23
TORSDOF 6
ENDMDL
