MODEL 1
REMARK VINA RESULT:      -8.1      0.000      0.000
REMARK  Name = 
REMARK  5 active torsions:
REMARK  status: ('A' for Active; 'I' for Inactive)
REMARK    1  A    between atoms: N_6  and  C_7
REMARK    2  A    between atoms: C_7  and  C_8
REMARK    3  A    between atoms: C_8  and  N_9
REMARK    4  A    between atoms: C_13  and  C_14
REMARK    5  A    between atoms: C_15  and  C_16
REMARK                            x       y       z     vdW  Elec       q    Type
REMARK                         _______ _______ _______ _____ _____    ______ ____
ROOT
ATOM      1  C   UNL     1       3.397   5.265  19.134  0.00  0.00    +0.000 A 
ATOM      2  C   UNL     1       4.659   4.940  18.619  0.00  0.00    +0.000 A 
ATOM      3  N   UNL     1       4.614   3.598  18.291  0.00  0.00    +0.000 N 
ATOM      4  C   UNL     1       3.362   3.068  18.475  0.00  0.00    +0.000 A 
ATOM      5  C   UNL     1       2.884   1.773  18.227  0.00  0.00    +0.000 A 
ATOM      6  C   UNL     1       1.542   1.503  18.493  0.00  0.00    +0.000 A 
ATOM      7  C   UNL     1       0.699   2.502  18.959  0.00  0.00    +0.000 A 
ATOM      8  C   UNL     1       1.191   3.792  19.175  0.00  0.00    +0.000 A 
ATOM      9  C   UNL     1       2.559   4.091  18.969  0.00  0.00    +0.000 A 
ATOM     10  H   UNL     1       5.394   3.080  17.917  0.00  0.00    +0.000 HD
ENDROOT
BRANCH   1  15
ATOM     11  N   UNL     1       1.862   8.799  19.011  0.00  0.00    +0.000 NA
ATOM     12  C   UNL     1       0.876   8.608  20.083  0.00  0.00    +0.000 C 
ATOM     13  C   UNL     1       1.531   7.938  21.289  0.00  0.00    +0.000 C 
ATOM     14  C   UNL     1       2.072   6.567  20.913  0.00  0.00    +0.000 C 
ATOM     15  C   UNL     1       2.957   6.628  19.658  0.00  0.00    +0.000 C 
ATOM     16  C   UNL     1       2.352   7.490  18.532  0.00  0.00    +0.000 C 
BRANCH  11  17
ATOM     17  C   UNL     1       1.314   9.573  17.882  0.00  0.00    +0.000 C 
BRANCH  17  18
ATOM     18  C   UNL     1      -0.154  10.039  18.013  0.00  0.00    +0.000 C 
BRANCH  18  24
ATOM     19  O   UNL     1      -2.612  11.743  17.912  0.00  0.00    +0.000 OA
ATOM     20  C   UNL     1      -1.529  12.135  18.304  0.00  0.00    +0.000 C 
ATOM     21  N   UNL     1      -1.276  13.428  18.751  0.00  0.00    +0.000 N 
ATOM     22  C   UNL     1       0.142  13.645  18.864  0.00  0.00    +0.000 C 
ATOM     23  C   UNL     1       0.697  12.234  18.991  0.00  0.00    +0.000 C 
ATOM     24  N   UNL     1      -0.325  11.441  18.348  0.00  0.00    +0.000 N 
ATOM     25  H   UNL     1      -1.978  14.141  18.608  0.00  0.00    +0.000 HD
ENDBRANCH  18  24
ENDBRANCH  17  18
ENDBRANCH  11  17
ENDBRANCH   1  15
BRANCH   2  26
ATOM     26  C   UNL     1       5.859   5.760  18.347  0.00  0.00    +0.000 A 
ATOM     27  C   UNL     1       7.030   5.626  19.101  0.00  0.00    +0.000 A 
ATOM     28  C   UNL     1       8.098   6.517  18.955  0.00  0.00    +0.000 A 
ATOM     29  C   UNL     1       8.043   7.519  17.994  0.00  0.00    +0.000 A 
ATOM     30  C   UNL     1       6.924   7.619  17.173  0.00  0.00    +0.000 A 
ATOM     31  C   UNL     1       5.836   6.755  17.354  0.00  0.00    +0.000 A 
ENDBRANCH   2  26
TORSDOF 5
ENDMDL
MODEL 2
REMARK VINA RESULT:      -8.1      0.820      1.233
REMARK  Name = 
REMARK  5 active torsions:
REMARK  status: ('A' for Active; 'I' for Inactive)
REMARK    1  A    between atoms: N_6  and  C_7
REMARK    2  A    between atoms: C_7  and  C_8
REMARK    3  A    between atoms: C_8  and  N_9
REMARK    4  A    between atoms: C_13  and  C_14
REMARK    5  A    between atoms: C_15  and  C_16
REMARK                            x       y       z     vdW  Elec       q    Type
REMARK                         _______ _______ _______ _____ _____    ______ ____
ROOT
ATOM      1  C   UNL     1       3.358   5.249  19.148  0.00  0.00    +0.000 A 
ATOM      2  C   UNL     1       4.613   4.926  18.613  0.00  0.00    +0.000 A 
ATOM      3  N   UNL     1       4.558   3.590  18.265  0.00  0.00    +0.000 N 
ATOM      4  C   UNL     1       3.306   3.063  18.457  0.00  0.00    +0.000 A 
ATOM      5  C   UNL     1       2.820   1.774  18.195  0.00  0.00    +0.000 A 
ATOM      6  C   UNL     1       1.480   1.504  18.474  0.00  0.00    +0.000 A 
ATOM      7  C   UNL     1       0.647   2.500  18.965  0.00  0.00    +0.000 A 
ATOM      8  C   UNL     1       1.147   3.785  19.194  0.00  0.00    +0.000 A 
ATOM      9  C   UNL     1       2.514   4.081  18.975  0.00  0.00    +0.000 A 
ATOM     10  H   UNL     1       5.332   3.075  17.874  0.00  0.00    +0.000 HD
ENDROOT
BRANCH   1  15
ATOM     11  N   UNL     1       1.886   8.811  19.085  0.00  0.00    +0.000 NA
ATOM     12  C   UNL     1       0.875   8.611  20.132  0.00  0.00    +0.000 C 
ATOM     13  C   UNL     1       1.493   7.898  21.333  0.00  0.00    +0.000 C 
ATOM     14  C   UNL     1       2.019   6.529  20.932  0.00  0.00    +0.000 C 
ATOM     15  C   UNL     1       2.931   6.606  19.698  0.00  0.00    +0.000 C 
ATOM     16  C   UNL     1       2.364   7.507  18.583  0.00  0.00    +0.000 C 
BRANCH  11  17
ATOM     17  C   UNL     1       1.375   9.623  17.965  0.00  0.00    +0.000 C 
BRANCH  17  18
ATOM     18  C   UNL     1       0.777  11.002  18.329  0.00  0.00    +0.000 C 
BRANCH  18  24
ATOM     19  O   UNL     1      -1.050  13.288  18.953  0.00  0.00    +0.000 OA
ATOM     20  C   UNL     1      -1.421  12.232  18.475  0.00  0.00    +0.000 C 
ATOM     21  N   UNL     1      -2.743  11.934  18.159  0.00  0.00    +0.000 N 
ATOM     22  C   UNL     1      -2.883  10.527  17.892  0.00  0.00    +0.000 C 
ATOM     23  C   UNL     1      -1.469  10.103  17.524  0.00  0.00    +0.000 C 
ATOM     24  N   UNL     1      -0.664  11.101  18.192  0.00  0.00    +0.000 N 
ATOM     25  H   UNL     1      -3.474  12.555  18.477  0.00  0.00    +0.000 HD
ENDBRANCH  18  24
ENDBRANCH  17  18
ENDBRANCH  11  17
ENDBRANCH   1  15
BRANCH   2  26
ATOM     26  C   UNL     1       5.812   5.746  18.338  0.00  0.00    +0.000 A 
ATOM     27  C   UNL     1       6.986   5.609  19.089  0.00  0.00    +0.000 A 
ATOM     28  C   UNL     1       8.055   6.500  18.941  0.00  0.00    +0.000 A 
ATOM     29  C   UNL     1       7.998   7.503  17.982  0.00  0.00    +0.000 A 
ATOM     30  C   UNL     1       6.876   7.606  17.164  0.00  0.00    +0.000 A 
ATOM     31  C   UNL     1       5.788   6.743  17.347  0.00  0.00    +0.000 A 
ENDBRANCH   2  26
TORSDOF 5
ENDMDL
MODEL 3
REMARK VINA RESULT:      -8.0      1.442      1.580
REMARK  Name = 
REMARK  5 active torsions:
REMARK  status: ('A' for Active; 'I' for Inactive)
REMARK    1  A    between atoms: N_6  and  C_7
REMARK    2  A    between atoms: C_7  and  C_8
REMARK    3  A    between atoms: C_8  and  N_9
REMARK    4  A    between atoms: C_13  and  C_14
REMARK    5  A    between atoms: C_15  and  C_16
REMARK                            x       y       z     vdW  Elec       q    Type
REMARK                         _______ _______ _______ _____ _____    ______ ____
ROOT
ATOM      1  C   UNL     1       3.360   5.253  19.132  0.00  0.00    +0.000 A 
ATOM      2  C   UNL     1       4.614   4.935  18.592  0.00  0.00    +0.000 A 
ATOM      3  N   UNL     1       4.555   3.605  18.225  0.00  0.00    +0.000 N 
ATOM      4  C   UNL     1       3.302   3.078  18.408  0.00  0.00    +0.000 A 
ATOM      5  C   UNL     1       2.812   1.794  18.126  0.00  0.00    +0.000 A 
ATOM      6  C   UNL     1       1.471   1.525  18.401  0.00  0.00    +0.000 A 
ATOM      7  C   UNL     1       0.640   2.516  18.906  0.00  0.00    +0.000 A 
ATOM      8  C   UNL     1       1.145   3.795  19.156  0.00  0.00    +0.000 A 
ATOM      9  C   UNL     1       2.512   4.091  18.941  0.00  0.00    +0.000 A 
ATOM     10  H   UNL     1       5.328   3.093  17.826  0.00  0.00    +0.000 HD
ENDROOT
BRANCH   1  15
ATOM     11  N   UNL     1       1.956   8.844  19.110  0.00  0.00    +0.000 NA
ATOM     12  C   UNL     1       0.902   8.635  20.112  0.00  0.00    +0.000 C 
ATOM     13  C   UNL     1       1.460   7.879  21.315  0.00  0.00    +0.000 C 
ATOM     14  C   UNL     1       1.976   6.511  20.898  0.00  0.00    +0.000 C 
ATOM     15  C   UNL     1       2.936   6.603  19.702  0.00  0.00    +0.000 C 
ATOM     16  C   UNL     1       2.429   7.544  18.591  0.00  0.00    +0.000 C 
BRANCH  11  17
ATOM     17  C   UNL     1       1.503   9.695  17.994  0.00  0.00    +0.000 C 
BRANCH  17  18
ATOM     18  C   UNL     1       0.722  10.973  18.375  0.00  0.00    +0.000 C 
BRANCH  18  24
ATOM     19  O   UNL     1       0.963  11.960  21.190  0.00  0.00    +0.000 OA
ATOM     20  C   UNL     1       1.602  12.406  20.256  0.00  0.00    +0.000 C 
ATOM     21  N   UNL     1       2.527  13.441  20.360  0.00  0.00    +0.000 N 
ATOM     22  C   UNL     1       2.886  13.918  19.051  0.00  0.00    +0.000 C 
ATOM     23  C   UNL     1       2.544  12.741  18.149  0.00  0.00    +0.000 C 
ATOM     24  N   UNL     1       1.532  12.049  18.914  0.00  0.00    +0.000 N 
ATOM     25  H   UNL     1       2.576  13.968  21.220  0.00  0.00    +0.000 HD
ENDBRANCH  18  24
ENDBRANCH  17  18
ENDBRANCH  11  17
ENDBRANCH   1  15
BRANCH   2  26
ATOM     26  C   UNL     1       5.816   5.756  18.330  0.00  0.00    +0.000 A 
ATOM     27  C   UNL     1       6.986   5.611  19.086  0.00  0.00    +0.000 A 
ATOM     28  C   UNL     1       8.056   6.501  18.950  0.00  0.00    +0.000 A 
ATOM     29  C   UNL     1       8.005   7.512  17.999  0.00  0.00    +0.000 A 
ATOM     30  C   UNL     1       6.888   7.623  17.177  0.00  0.00    +0.000 A 
ATOM     31  C   UNL     1       5.798   6.761  17.347  0.00  0.00    +0.000 A 
ENDBRANCH   2  26
TORSDOF 5
ENDMDL
MODEL 4
REMARK VINA RESULT:      -7.9      0.993      1.042
REMARK  Name = 
REMARK  5 active torsions:
REMARK  status: ('A' for Active; 'I' for Inactive)
REMARK    1  A    between atoms: N_6  and  C_7
REMARK    2  A    between atoms: C_7  and  C_8
REMARK    3  A    between atoms: C_8  and  N_9
REMARK    4  A    between atoms: C_13  and  C_14
REMARK    5  A    between atoms: C_15  and  C_16
REMARK                            x       y       z     vdW  Elec       q    Type
REMARK                         _______ _______ _______ _____ _____    ______ ____
ROOT
ATOM      1  C   UNL     1       3.285   5.386  19.154  0.00  0.00    +0.000 A 
ATOM      2  C   UNL     1       4.531   5.034  18.619  0.00  0.00    +0.000 A 
ATOM      3  N   UNL     1       4.455   3.692  18.298  0.00  0.00    +0.000 N 
ATOM      4  C   UNL     1       3.196   3.188  18.507  0.00  0.00    +0.000 A 
ATOM      5  C   UNL     1       2.689   1.901  18.274  0.00  0.00    +0.000 A 
ATOM      6  C   UNL     1       1.347   1.657  18.566  0.00  0.00    +0.000 A 
ATOM      7  C   UNL     1       0.532   2.675  19.041  0.00  0.00    +0.000 A 
ATOM      8  C   UNL     1       1.053   3.956  19.242  0.00  0.00    +0.000 A 
ATOM      9  C   UNL     1       2.422   4.228  19.010  0.00  0.00    +0.000 A 
ATOM     10  H   UNL     1       5.218   3.157  17.913  0.00  0.00    +0.000 HD
ENDROOT
BRANCH   1  15
ATOM     11  N   UNL     1       1.774   8.931  19.054  0.00  0.00    +0.000 NA
ATOM     12  C   UNL     1       0.838   8.763  20.174  0.00  0.00    +0.000 C 
ATOM     13  C   UNL     1       1.542   8.103  21.357  0.00  0.00    +0.000 C 
ATOM     14  C   UNL     1       2.055   6.723  20.975  0.00  0.00    +0.000 C 
ATOM     15  C   UNL     1       2.880   6.759  19.680  0.00  0.00    +0.000 C 
ATOM     16  C   UNL     1       2.230   7.612  18.571  0.00  0.00    +0.000 C 
BRANCH  11  17
ATOM     17  C   UNL     1       1.179   9.695  17.941  0.00  0.00    +0.000 C 
BRANCH  17  18
ATOM     18  C   UNL     1      -0.301   9.395  17.613  0.00  0.00    +0.000 C 
BRANCH  18  24
ATOM     19  O   UNL     1      -2.425  10.549  15.848  0.00  0.00    +0.000 OA
ATOM     20  C   UNL     1      -2.203  10.929  16.982  0.00  0.00    +0.000 C 
ATOM     21  N   UNL     1      -2.896  11.956  17.616  0.00  0.00    +0.000 N 
ATOM     22  C   UNL     1      -2.210  12.348  18.818  0.00  0.00    +0.000 C 
ATOM     23  C   UNL     1      -1.371  11.123  19.152  0.00  0.00    +0.000 C 
ATOM     24  N   UNL     1      -1.218  10.492  17.861  0.00  0.00    +0.000 N 
ATOM     25  H   UNL     1      -3.519  12.535  17.071  0.00  0.00    +0.000 HD
ENDBRANCH  18  24
ENDBRANCH  17  18
ENDBRANCH  11  17
ENDBRANCH   1  15
BRANCH   2  26
ATOM     26  C   UNL     1       5.741   5.830  18.321  0.00  0.00    +0.000 A 
ATOM     27  C   UNL     1       6.932   5.656  19.036  0.00  0.00    +0.000 A 
ATOM     28  C   UNL     1       8.017   6.524  18.869  0.00  0.00    +0.000 A 
ATOM     29  C   UNL     1       7.955   7.542  17.926  0.00  0.00    +0.000 A 
ATOM     30  C   UNL     1       6.814   7.682  17.142  0.00  0.00    +0.000 A 
ATOM     31  C   UNL     1       5.712   6.841  17.344  0.00  0.00    +0.000 A 
ENDBRANCH   2  26
TORSDOF 5
ENDMDL
MODEL 5
REMARK VINA RESULT:      -7.8      3.015      9.077
REMARK  Name = 
REMARK  5 active torsions:
REMARK  status: ('A' for Active; 'I' for Inactive)
REMARK    1  A    between atoms: N_6  and  C_7
REMARK    2  A    between atoms: C_7  and  C_8
REMARK    3  A    between atoms: C_8  and  N_9
REMARK    4  A    between atoms: C_13  and  C_14
REMARK    5  A    between atoms: C_15  and  C_16
REMARK                            x       y       z     vdW  Elec       q    Type
REMARK                         _______ _______ _______ _____ _____    ______ ____
ROOT
ATOM      1  C   UNL     1      -0.260  11.568  19.202  0.00  0.00    +0.000 A 
ATOM      2  C   UNL     1      -1.209  12.039  18.284  0.00  0.00    +0.000 A 
ATOM      3  N   UNL     1      -0.975  13.394  18.141  0.00  0.00    +0.000 N 
ATOM      4  C   UNL     1       0.133  13.798  18.841  0.00  0.00    +0.000 A 
ATOM      5  C   UNL     1       0.732  15.064  18.930  0.00  0.00    +0.000 A 
ATOM      6  C   UNL     1       1.878  15.197  19.713  0.00  0.00    +0.000 A 
ATOM      7  C   UNL     1       2.427  14.095  20.356  0.00  0.00    +0.000 A 
ATOM      8  C   UNL     1       1.827  12.839  20.232  0.00  0.00    +0.000 A 
ATOM      9  C   UNL     1       0.632  12.675  19.492  0.00  0.00    +0.000 A 
ATOM     10  H   UNL     1      -1.525  14.004  17.556  0.00  0.00    +0.000 HD
ENDROOT
BRANCH   1  15
ATOM     11  N   UNL     1       1.384   8.121  19.727  0.00  0.00    +0.000 NA
ATOM     12  C   UNL     1       1.347   8.122  21.195  0.00  0.00    +0.000 C 
ATOM     13  C   UNL     1      -0.028   8.563  21.689  0.00  0.00    +0.000 C 
ATOM     14  C   UNL     1      -0.340   9.976  21.220  0.00  0.00    +0.000 C 
ATOM     15  C   UNL     1      -0.124  10.136  19.708  0.00  0.00    +0.000 C 
ATOM     16  C   UNL     1       1.187   9.492  19.213  0.00  0.00    +0.000 C 
BRANCH  11  17
ATOM     17  C   UNL     1       2.644   7.564  19.201  0.00  0.00    +0.000 C 
BRANCH  17  18
ATOM     18  C   UNL     1       2.531   6.264  18.373  0.00  0.00    +0.000 C 
BRANCH  18  24
ATOM     19  O   UNL     1       1.091   3.818  17.424  0.00  0.00    +0.000 OA
ATOM     20  C   UNL     1       1.459   3.988  18.571  0.00  0.00    +0.000 C 
ATOM     21  N   UNL     1       1.256   3.077  19.604  0.00  0.00    +0.000 N 
ATOM     22  C   UNL     1       1.545   3.694  20.871  0.00  0.00    +0.000 C 
ATOM     23  C   UNL     1       2.461   4.848  20.493  0.00  0.00    +0.000 C 
ATOM     24  N   UNL     1       2.091   5.099  19.118  0.00  0.00    +0.000 N 
ATOM     25  H   UNL     1       0.638   2.293  19.450  0.00  0.00    +0.000 HD
ENDBRANCH  18  24
ENDBRANCH  17  18
ENDBRANCH  11  17
ENDBRANCH   1  15
BRANCH   2  26
ATOM     26  C   UNL     1      -2.249  11.348  17.492  0.00  0.00    +0.000 A 
ATOM     27  C   UNL     1      -1.931  10.319  16.597  0.00  0.00    +0.000 A 
ATOM     28  C   UNL     1      -2.888   9.787  15.727  0.00  0.00    +0.000 A 
ATOM     29  C   UNL     1      -4.205  10.225  15.789  0.00  0.00    +0.000 A 
ATOM     30  C   UNL     1      -4.564  11.186  16.730  0.00  0.00    +0.000 A 
ATOM     31  C   UNL     1      -3.594  11.751  17.567  0.00  0.00    +0.000 A 
ENDBRANCH   2  26
TORSDOF 5
ENDMDL
MODEL 6
REMARK VINA RESULT:      -7.8      1.258      1.418
REMARK  Name = 
REMARK  5 active torsions:
REMARK  status: ('A' for Active; 'I' for Inactive)
REMARK    1  A    between atoms: N_6  and  C_7
REMARK    2  A    between atoms: C_7  and  C_8
REMARK    3  A    between atoms: C_8  and  N_9
REMARK    4  A    between atoms: C_13  and  C_14
REMARK    5  A    between atoms: C_15  and  C_16
REMARK                            x       y       z     vdW  Elec       q    Type
REMARK                         _______ _______ _______ _____ _____    ______ ____
ROOT
ATOM      1  C   UNL     1       3.372   5.259  19.120  0.00  0.00    +0.000 A 
ATOM      2  C   UNL     1       4.628   4.945  18.584  0.00  0.00    +0.000 A 
ATOM      3  N   UNL     1       4.576   3.613  18.221  0.00  0.00    +0.000 N 
ATOM      4  C   UNL     1       3.324   3.082  18.403  0.00  0.00    +0.000 A 
ATOM      5  C   UNL     1       2.840   1.795  18.125  0.00  0.00    +0.000 A 
ATOM      6  C   UNL     1       1.500   1.521  18.398  0.00  0.00    +0.000 A 
ATOM      7  C   UNL     1       0.664   2.509  18.899  0.00  0.00    +0.000 A 
ATOM      8  C   UNL     1       1.163   3.792  19.145  0.00  0.00    +0.000 A 
ATOM      9  C   UNL     1       2.530   4.093  18.932  0.00  0.00    +0.000 A 
ATOM     10  H   UNL     1       5.351   3.102  17.825  0.00  0.00    +0.000 HD
ENDROOT
BRANCH   1  15
ATOM     11  N   UNL     1       2.070   8.887  19.069  0.00  0.00    +0.000 NA
ATOM     12  C   UNL     1       0.937   8.688  19.983  0.00  0.00    +0.000 C 
ATOM     13  C   UNL     1       1.381   7.894  21.209  0.00  0.00    +0.000 C 
ATOM     14  C   UNL     1       1.891   6.520  20.803  0.00  0.00    +0.000 C 
ATOM     15  C   UNL     1       2.942   6.609  19.686  0.00  0.00    +0.000 C 
ATOM     16  C   UNL     1       2.546   7.585  18.560  0.00  0.00    +0.000 C 
BRANCH  11  17
ATOM     17  C   UNL     1       1.726   9.772  17.940  0.00  0.00    +0.000 C 
BRANCH  17  18
ATOM     18  C   UNL     1       1.793  11.292  18.211  0.00  0.00    +0.000 C 
BRANCH  18  24
ATOM     19  O   UNL     1       1.834  12.503  20.947  0.00  0.00    +0.000 OA
ATOM     20  C   UNL     1       0.833  12.404  20.262  0.00  0.00    +0.000 C 
ATOM     21  N   UNL     1      -0.432  12.830  20.655  0.00  0.00    +0.000 N 
ATOM     22  C   UNL     1      -1.429  12.313  19.756  0.00  0.00    +0.000 C 
ATOM     23  C   UNL     1      -0.635  12.017  18.493  0.00  0.00    +0.000 C 
ATOM     24  N   UNL     1       0.701  11.822  19.007  0.00  0.00    +0.000 N 
ATOM     25  H   UNL     1      -0.580  13.100  21.617  0.00  0.00    +0.000 HD
ENDBRANCH  18  24
ENDBRANCH  17  18
ENDBRANCH  11  17
ENDBRANCH   1  15
BRANCH   2  26
ATOM     26  C   UNL     1       5.827   5.769  18.322  0.00  0.00    +0.000 A 
ATOM     27  C   UNL     1       6.998   5.629  19.077  0.00  0.00    +0.000 A 
ATOM     28  C   UNL     1       8.066   6.522  18.941  0.00  0.00    +0.000 A 
ATOM     29  C   UNL     1       8.011   7.533  17.990  0.00  0.00    +0.000 A 
ATOM     30  C   UNL     1       6.893   7.641  17.168  0.00  0.00    +0.000 A 
ATOM     31  C   UNL     1       5.806   6.774  17.339  0.00  0.00    +0.000 A 
ENDBRANCH   2  26
TORSDOF 5
ENDMDL
MODEL 7
REMARK VINA RESULT:      -7.8      1.002      1.689
REMARK  Name = 
REMARK  5 active torsions:
REMARK  status: ('A' for Active; 'I' for Inactive)
REMARK    1  A    between atoms: N_6  and  C_7
REMARK    2  A    between atoms: C_7  and  C_8
REMARK    3  A    between atoms: C_8  and  N_9
REMARK    4  A    between atoms: C_13  and  C_14
REMARK    5  A    between atoms: C_15  and  C_16
REMARK                            x       y       z     vdW  Elec       q    Type
REMARK                         _______ _______ _______ _____ _____    ______ ____
ROOT
ATOM      1  C   UNL     1       3.189   5.392  19.256  0.00  0.00    +0.000 A 
ATOM      2  C   UNL     1       4.454   5.078  18.741  0.00  0.00    +0.000 A 
ATOM      3  N   UNL     1       4.420   3.737  18.409  0.00  0.00    +0.000 N 
ATOM      4  C   UNL     1       3.172   3.197  18.592  0.00  0.00    +0.000 A 
ATOM      5  C   UNL     1       2.704   1.899  18.341  0.00  0.00    +0.000 A 
ATOM      6  C   UNL     1       1.364   1.617  18.607  0.00  0.00    +0.000 A 
ATOM      7  C   UNL     1       0.513   2.609  19.075  0.00  0.00    +0.000 A 
ATOM      8  C   UNL     1       0.995   3.903  19.294  0.00  0.00    +0.000 A 
ATOM      9  C   UNL     1       2.361   4.212  19.088  0.00  0.00    +0.000 A 
ATOM     10  H   UNL     1       5.204   3.226  18.034  0.00  0.00    +0.000 HD
ENDROOT
BRANCH   1  15
ATOM     11  N   UNL     1       1.630   8.916  19.140  0.00  0.00    +0.000 NA
ATOM     12  C   UNL     1       0.643   8.715  20.210  0.00  0.00    +0.000 C 
ATOM     13  C   UNL     1       1.300   8.046  21.415  0.00  0.00    +0.000 C 
ATOM     14  C   UNL     1       1.852   6.680  21.036  0.00  0.00    +0.000 C 
ATOM     15  C   UNL     1       2.739   6.751  19.784  0.00  0.00    +0.000 C 
ATOM     16  C   UNL     1       2.130   7.612  18.659  0.00  0.00    +0.000 C 
BRANCH  11  17
ATOM     17  C   UNL     1       1.078   9.690  18.012  0.00  0.00    +0.000 C 
BRANCH  17  18
ATOM     18  C   UNL     1       0.230  10.930  18.376  0.00  0.00    +0.000 C 
BRANCH  18  24
ATOM     19  O   UNL     1      -2.052  12.571  19.401  0.00  0.00    +0.000 OA
ATOM     20  C   UNL     1      -2.178  11.638  18.630  0.00  0.00    +0.000 C 
ATOM     21  N   UNL     1      -3.397  11.197  18.124  0.00  0.00    +0.000 N 
ATOM     22  C   UNL     1      -3.233   9.919  17.484  0.00  0.00    +0.000 C 
ATOM     23  C   UNL     1      -1.749   9.885  17.154  0.00  0.00    +0.000 C 
ATOM     24  N   UNL     1      -1.194  10.792  18.133  0.00  0.00    +0.000 N 
ATOM     25  H   UNL     1      -4.252  11.559  18.522  0.00  0.00    +0.000 HD
ENDBRANCH  18  24
ENDBRANCH  17  18
ENDBRANCH  11  17
ENDBRANCH   1  15
BRANCH   2  26
ATOM     26  C   UNL     1       5.647   5.909  18.470  0.00  0.00    +0.000 A 
ATOM     27  C   UNL     1       5.651   6.889  17.470  0.00  0.00    +0.000 A 
ATOM     28  C   UNL     1       6.827   7.551  17.102  0.00  0.00    +0.000 A 
ATOM     29  C   UNL     1       8.011   7.297  17.782  0.00  0.00    +0.000 A 
ATOM     30  C   UNL     1       8.014   6.389  18.837  0.00  0.00    +0.000 A 
ATOM     31  C   UNL     1       6.846   5.693  19.172  0.00  0.00    +0.000 A 
ENDBRANCH   2  26
TORSDOF 5
ENDMDL
MODEL 8
REMARK VINA RESULT:      -7.8      3.568      6.498
REMARK  Name = 
REMARK  5 active torsions:
REMARK  status: ('A' for Active; 'I' for Inactive)
REMARK    1  A    between atoms: N_6  and  C_7
REMARK    2  A    between atoms: C_7  and  C_8
REMARK    3  A    between atoms: C_8  and  N_9
REMARK    4  A    between atoms: C_13  and  C_14
REMARK    5  A    between atoms: C_15  and  C_16
REMARK                            x       y       z     vdW  Elec       q    Type
REMARK                         _______ _______ _______ _____ _____    ______ ____
ROOT
ATOM      1  C   UNL     1       3.537   5.631  18.791  0.00  0.00    +0.000 A 
ATOM      2  C   UNL     1       2.525   6.394  19.389  0.00  0.00    +0.000 A 
ATOM      3  N   UNL     1       1.943   5.587  20.348  0.00  0.00    +0.000 N 
ATOM      4  C   UNL     1       2.590   4.383  20.465  0.00  0.00    +0.000 A 
ATOM      5  C   UNL     1       2.348   3.309  21.335  0.00  0.00    +0.000 A 
ATOM      6  C   UNL     1       3.180   2.193  21.251  0.00  0.00    +0.000 A 
ATOM      7  C   UNL     1       4.238   2.165  20.352  0.00  0.00    +0.000 A 
ATOM      8  C   UNL     1       4.474   3.257  19.512  0.00  0.00    +0.000 A 
ATOM      9  C   UNL     1       3.619   4.385  19.530  0.00  0.00    +0.000 A 
ATOM     10  H   UNL     1       1.164   5.866  20.926  0.00  0.00    +0.000 HD
ENDROOT
BRANCH   1  15
ATOM     11  N   UNL     1       6.609   7.262  17.127  0.00  0.00    +0.000 NA
ATOM     12  C   UNL     1       7.064   6.079  16.384  0.00  0.00    +0.000 C 
ATOM     13  C   UNL     1       5.886   5.415  15.675  0.00  0.00    +0.000 C 
ATOM     14  C   UNL     1       4.845   4.952  16.683  0.00  0.00    +0.000 C 
ATOM     15  C   UNL     1       4.454   6.075  17.655  0.00  0.00    +0.000 C 
ATOM     16  C   UNL     1       5.667   6.860  18.192  0.00  0.00    +0.000 C 
BRANCH  11  17
ATOM     17  C   UNL     1       7.732   8.020  17.710  0.00  0.00    +0.000 C 
BRANCH  17  18
ATOM     18  C   UNL     1       7.816   9.519  17.342  0.00  0.00    +0.000 C 
BRANCH  18  24
ATOM     19  O   UNL     1       8.359  12.461  17.302  0.00  0.00    +0.000 OA
ATOM     20  C   UNL     1       8.803  11.699  18.141  0.00  0.00    +0.000 C 
ATOM     21  N   UNL     1       9.629  12.084  19.193  0.00  0.00    +0.000 N 
ATOM     22  C   UNL     1      10.204  10.923  19.820  0.00  0.00    +0.000 C 
ATOM     23  C   UNL     1       9.239   9.811  19.437  0.00  0.00    +0.000 C 
ATOM     24  N   UNL     1       8.646  10.320  18.222  0.00  0.00    +0.000 N 
ATOM     25  H   UNL     1      10.020  13.015  19.192  0.00  0.00    +0.000 HD
ENDBRANCH  18  24
ENDBRANCH  17  18
ENDBRANCH  11  17
ENDBRANCH   1  15
BRANCH   2  26
ATOM     26  C   UNL     1       2.102   7.798  19.203  0.00  0.00    +0.000 A 
ATOM     27  C   UNL     1       1.473   8.520  20.224  0.00  0.00    +0.000 A 
ATOM     28  C   UNL     1       0.922   9.785  19.991  0.00  0.00    +0.000 A 
ATOM     29  C   UNL     1       1.057  10.384  18.745  0.00  0.00    +0.000 A 
ATOM     30  C   UNL     1       1.754   9.723  17.738  0.00  0.00    +0.000 A 
ATOM     31  C   UNL     1       2.263   8.437  17.961  0.00  0.00    +0.000 A 
ENDBRANCH   2  26
TORSDOF 5
ENDMDL
MODEL 9
REMARK VINA RESULT:      -7.7      2.766      9.255
REMARK  Name = 
REMARK  5 active torsions:
REMARK  status: ('A' for Active; 'I' for Inactive)
REMARK    1  A    between atoms: N_6  and  C_7
REMARK    2  A    between atoms: C_7  and  C_8
REMARK    3  A    between atoms: C_8  and  N_9
REMARK    4  A    between atoms: C_13  and  C_14
REMARK    5  A    between atoms: C_15  and  C_16
REMARK                            x       y       z     vdW  Elec       q    Type
REMARK                         _______ _______ _______ _____ _____    ______ ____
ROOT
ATOM      1  C   UNL     1      -0.141  11.668  19.437  0.00  0.00    +0.000 A 
ATOM      2  C   UNL     1      -1.047  12.101  18.459  0.00  0.00    +0.000 A 
ATOM      3  N   UNL     1      -0.735  13.420  18.193  0.00  0.00    +0.000 N 
ATOM      4  C   UNL     1       0.384  13.828  18.875  0.00  0.00    +0.000 A 
ATOM      5  C   UNL     1       1.052  15.061  18.856  0.00  0.00    +0.000 A 
ATOM      6  C   UNL     1       2.192  15.205  19.647  0.00  0.00    +0.000 A 
ATOM      7  C   UNL     1       2.667  14.142  20.402  0.00  0.00    +0.000 A 
ATOM      8  C   UNL     1       1.999  12.914  20.386  0.00  0.00    +0.000 A 
ATOM      9  C   UNL     1       0.808  12.747  19.639  0.00  0.00    +0.000 A 
ATOM     10  H   UNL     1      -1.239  14.001  17.541  0.00  0.00    +0.000 HD
ENDROOT
BRANCH   1  15
ATOM     11  N   UNL     1       1.198   8.128  20.170  0.00  0.00    +0.000 NA
ATOM     12  C   UNL     1       1.320   8.276  21.626  0.00  0.00    +0.000 C 
ATOM     13  C   UNL     1       0.056   8.911  22.200  0.00  0.00    +0.000 C 
ATOM     14  C   UNL     1      -0.162  10.298  21.614  0.00  0.00    +0.000 C 
ATOM     15  C   UNL     1      -0.095  10.285  20.079  0.00  0.00    +0.000 C 
ATOM     16  C   UNL     1       1.084   9.455  19.532  0.00  0.00    +0.000 C 
BRANCH  11  17
ATOM     17  C   UNL     1       2.332   7.387  19.588  0.00  0.00    +0.000 C 
BRANCH  17  18
ATOM     18  C   UNL     1       2.383   5.868  19.873  0.00  0.00    +0.000 C 
BRANCH  18  24
ATOM     19  O   UNL     1       3.248   3.030  20.262  0.00  0.00    +0.000 OA
ATOM     20  C   UNL     1       3.900   3.863  19.662  0.00  0.00    +0.000 C 
ATOM     21  N   UNL     1       5.141   3.619  19.080  0.00  0.00    +0.000 N 
ATOM     22  C   UNL     1       5.766   4.861  18.709  0.00  0.00    +0.000 C 
ATOM     23  C   UNL     1       4.590   5.820  18.598  0.00  0.00    +0.000 C 
ATOM     24  N   UNL     1       3.609   5.208  19.465  0.00  0.00    +0.000 N 
ATOM     25  H   UNL     1       5.615   2.752  19.285  0.00  0.00    +0.000 HD
ENDBRANCH  18  24
ENDBRANCH  17  18
ENDBRANCH  11  17
ENDBRANCH   1  15
BRANCH   2  26
ATOM     26  C   UNL     1      -2.112  11.395  17.715  0.00  0.00    +0.000 A 
ATOM     27  C   UNL     1      -1.821  10.370  16.806  0.00  0.00    +0.000 A 
ATOM     28  C   UNL     1      -2.810   9.825  15.980  0.00  0.00    +0.000 A 
ATOM     29  C   UNL     1      -4.128  10.245  16.101  0.00  0.00    +0.000 A 
ATOM     30  C   UNL     1      -4.457  11.202  17.057  0.00  0.00    +0.000 A 
ATOM     31  C   UNL     1      -3.458  11.780  17.849  0.00  0.00    +0.000 A 
ENDBRANCH   2  26
TORSDOF 5
ENDMDL
