MODEL 1
REMARK VINA RESULT:      -6.7      0.000      0.000
REMARK  Name = 
REMARK  12 active torsions:
REMARK  status: ('A' for Active; 'I' for Inactive)
REMARK    1  A    between atoms: N_5  and  C_6
REMARK    2  A    between atoms: C_6  and  C_7
REMARK    3  A    between atoms: C_7  and  C_8
REMARK    4  A    between atoms: C_8  and  P_9
REMARK    5  A    between atoms: P_9  and  O_11
REMARK    6  A    between atoms: P_9  and  O_12
REMARK    7  A    between atoms: O_12  and  P_13
REMARK    8  A    between atoms: P_13  and  O_15
REMARK    9  A    between atoms: P_13  and  O_16
REMARK   10  A    between atoms: O_16  and  P_17
REMARK   11  A    between atoms: P_17  and  O_19
REMARK   12  A    between atoms: P_17  and  O_20
REMARK                            x       y       z     vdW  Elec       q    Type
REMARK                         _______ _______ _______ _____ _____    ______ ____
ROOT
ATOM      1  P   UNL     1       3.969   5.932  18.316  0.00  0.00    +0.000 P 
ATOM      2  O   UNL     1       4.073   5.008  17.096  0.00  0.00    +0.000 OA
ENDROOT
BRANCH   1   3
ATOM      3  O   UNL     1       3.576   7.416  17.725  0.00  0.00    +0.000 OA
ATOM      4  H   UNL     1       3.435   7.490  16.766  0.00  0.00    +0.000 HD
ENDBRANCH   1   3
BRANCH   1   5
ATOM      5  C   UNL     1       2.194   5.501  18.432  0.00  0.00    +0.000 C 
BRANCH   5   6
ATOM      6  C   UNL     1       1.871   4.294  17.541  0.00  0.00    +0.000 C 
BRANCH   6   7
ATOM      7  C   UNL     1       1.499   3.039  18.330  0.00  0.00    +0.000 C 
BRANCH   7  12
ATOM      8  O   UNL     1       5.484   1.268  21.633  0.00  0.00    +0.000 OA
ATOM      9  C   UNL     1       4.620   1.712  20.888  0.00  0.00    +0.000 A 
ATOM     10  C   UNL     1       3.419   2.371  21.426  0.00  0.00    +0.000 A 
ATOM     11  C   UNL     1       2.477   2.790  20.577  0.00  0.00    +0.000 A 
ATOM     12  N   UNL     1       2.598   2.625  19.212  0.00  0.00    +0.000 N 
ATOM     13  C   UNL     1       3.712   2.008  18.648  0.00  0.00    +0.000 A 
ATOM     14  O   UNL     1       3.839   1.780  17.447  0.00  0.00    +0.000 OA
ATOM     15  N   UNL     1       4.689   1.626  19.530  0.00  0.00    +0.000 N 
ATOM     16  H   UNL     1       5.496   1.165  19.139  0.00  0.00    +0.000 HD
ENDBRANCH   7  12
ENDBRANCH   6   7
ENDBRANCH   5   6
ENDBRANCH   1   5
BRANCH   1  17
ATOM     17  O   UNL     1       5.646   6.339  18.206  0.00  0.00    +0.000 OA
BRANCH  17  18
ATOM     18  P   UNL     1       6.421   5.290  17.069  0.00  0.00    +0.000 P 
ATOM     19  O   UNL     1       7.540   6.305  16.837  0.00  0.00    +0.000 OA
BRANCH  18  20
ATOM     20  O   UNL     1       6.944   4.348  18.296  0.00  0.00    +0.000 OA
ATOM     21  H   UNL     1       7.919   4.313  18.253  0.00  0.00    +0.000 HD
ENDBRANCH  18  20
BRANCH  18  22
ATOM     22  O   UNL     1       7.196   4.241  15.933  0.00  0.00    +0.000 OA
BRANCH  22  23
ATOM     23  P   UNL     1       6.837   4.764  14.465  0.00  0.00    +0.000 P 
ATOM     24  O   UNL     1       7.961   5.467  13.776  0.00  0.00    +0.000 OA
BRANCH  23  25
ATOM     25  O   UNL     1       6.220   3.502  13.722  0.00  0.00    +0.000 OA
ATOM     26  H   UNL     1       6.905   2.972  13.270  0.00  0.00    +0.000 HD
ENDBRANCH  23  25
BRANCH  23  27
ATOM     27  O   UNL     1       5.560   5.694  14.660  0.00  0.00    +0.000 OA
ATOM     28  H   UNL     1       5.158   5.951  13.807  0.00  0.00    +0.000 HD
ENDBRANCH  23  27
ENDBRANCH  22  23
ENDBRANCH  18  22
ENDBRANCH  17  18
ENDBRANCH   1  17
TORSDOF 12
ENDMDL
MODEL 2
REMARK VINA RESULT:      -6.6      2.222      3.541
REMARK  Name = 
REMARK  12 active torsions:
REMARK  status: ('A' for Active; 'I' for Inactive)
REMARK    1  A    between atoms: N_5  and  C_6
REMARK    2  A    between atoms: C_6  and  C_7
REMARK    3  A    between atoms: C_7  and  C_8
REMARK    4  A    between atoms: C_8  and  P_9
REMARK    5  A    between atoms: P_9  and  O_11
REMARK    6  A    between atoms: P_9  and  O_12
REMARK    7  A    between atoms: O_12  and  P_13
REMARK    8  A    between atoms: P_13  and  O_15
REMARK    9  A    between atoms: P_13  and  O_16
REMARK   10  A    between atoms: O_16  and  P_17
REMARK   11  A    between atoms: P_17  and  O_19
REMARK   12  A    between atoms: P_17  and  O_20
REMARK                            x       y       z     vdW  Elec       q    Type
REMARK                         _______ _______ _______ _____ _____    ______ ____
ROOT
ATOM      1  P   UNL     1       7.030   5.278  16.879  0.00  0.00    +0.000 P 
ATOM      2  O   UNL     1       7.715   6.646  16.986  0.00  0.00    +0.000 OA
ENDROOT
BRANCH   1   3
ATOM      3  O   UNL     1       8.172   4.169  17.292  0.00  0.00    +0.000 OA
ATOM      4  H   UNL     1       7.867   3.265  17.480  0.00  0.00    +0.000 HD
ENDBRANCH   1   3
BRANCH   1   5
ATOM      5  C   UNL     1       6.540   5.439  18.634  0.00  0.00    +0.000 C 
BRANCH   5   6
ATOM      6  C   UNL     1       5.042   5.749  18.752  0.00  0.00    +0.000 C 
BRANCH   6   7
ATOM      7  C   UNL     1       4.146   4.601  18.286  0.00  0.00    +0.000 C 
BRANCH   7  12
ATOM      8  O   UNL     1       1.123   2.407  22.283  0.00  0.00    +0.000 OA
ATOM      9  C   UNL     1       1.822   2.932  21.426  0.00  0.00    +0.000 A 
ATOM     10  C   UNL     1       1.312   4.040  20.603  0.00  0.00    +0.000 A 
ATOM     11  C   UNL     1       2.092   4.544  19.643  0.00  0.00    +0.000 A 
ATOM     12  N   UNL     1       3.361   4.058  19.402  0.00  0.00    +0.000 N 
ATOM     13  C   UNL     1       3.895   3.011  20.149  0.00  0.00    +0.000 A 
ATOM     14  O   UNL     1       4.991   2.500  19.934  0.00  0.00    +0.000 OA
ATOM     15  N   UNL     1       3.099   2.536  21.159  0.00  0.00    +0.000 N 
ATOM     16  H   UNL     1       3.465   1.769  21.701  0.00  0.00    +0.000 HD
ENDBRANCH   7  12
ENDBRANCH   6   7
ENDBRANCH   5   6
ENDBRANCH   1   5
BRANCH   1  17
ATOM     17  O   UNL     1       7.493   5.127  15.219  0.00  0.00    +0.000 OA
BRANCH  17  18
ATOM     18  P   UNL     1       6.205   4.396  14.325  0.00  0.00    +0.000 P 
ATOM     19  O   UNL     1       6.118   3.240  15.322  0.00  0.00    +0.000 OA
BRANCH  18  20
ATOM     20  O   UNL     1       5.172   5.527  14.889  0.00  0.00    +0.000 OA
ATOM     21  H   UNL     1       5.216   6.299  14.291  0.00  0.00    +0.000 HD
ENDBRANCH  18  20
BRANCH  18  22
ATOM     22  O   UNL     1       4.917   3.664  13.432  0.00  0.00    +0.000 OA
BRANCH  22  23
ATOM     23  P   UNL     1       5.469   3.331  11.968  0.00  0.00    +0.000 P 
ATOM     24  O   UNL     1       4.481   3.575  10.874  0.00  0.00    +0.000 OA
BRANCH  23  25
ATOM     25  O   UNL     1       6.852   4.107  11.868  0.00  0.00    +0.000 OA
ATOM     26  H   UNL     1       7.183   4.380  12.745  0.00  0.00    +0.000 HD
ENDBRANCH  23  25
BRANCH  23  27
ATOM     27  O   UNL     1       5.941   1.813  12.041  0.00  0.00    +0.000 OA
ATOM     28  H   UNL     1       6.706   1.637  11.460  0.00  0.00    +0.000 HD
ENDBRANCH  23  27
ENDBRANCH  22  23
ENDBRANCH  18  22
ENDBRANCH  17  18
ENDBRANCH   1  17
TORSDOF 12
ENDMDL
MODEL 3
REMARK VINA RESULT:      -6.6      4.453      7.093
REMARK  Name = 
REMARK  12 active torsions:
REMARK  status: ('A' for Active; 'I' for Inactive)
REMARK    1  A    between atoms: N_5  and  C_6
REMARK    2  A    between atoms: C_6  and  C_7
REMARK    3  A    between atoms: C_7  and  C_8
REMARK    4  A    between atoms: C_8  and  P_9
REMARK    5  A    between atoms: P_9  and  O_11
REMARK    6  A    between atoms: P_9  and  O_12
REMARK    7  A    between atoms: O_12  and  P_13
REMARK    8  A    between atoms: P_13  and  O_15
REMARK    9  A    between atoms: P_13  and  O_16
REMARK   10  A    between atoms: O_16  and  P_17
REMARK   11  A    between atoms: P_17  and  O_19
REMARK   12  A    between atoms: P_17  and  O_20
REMARK                            x       y       z     vdW  Elec       q    Type
REMARK                         _______ _______ _______ _____ _____    ______ ____
ROOT
ATOM      1  P   UNL     1       4.033   5.355  17.917  0.00  0.00    +0.000 P 
ATOM      2  O   UNL     1       4.447   5.637  19.367  0.00  0.00    +0.000 OA
ENDROOT
BRANCH   1   3
ATOM      3  O   UNL     1       2.475   4.833  17.987  0.00  0.00    +0.000 OA
ATOM      4  H   UNL     1       2.064   4.775  18.866  0.00  0.00    +0.000 HD
ENDBRANCH   1   3
BRANCH   1   5
ATOM      5  C   UNL     1       3.455   7.087  17.795  0.00  0.00    +0.000 C 
BRANCH   5   6
ATOM      6  C   UNL     1       2.430   7.394  18.896  0.00  0.00    +0.000 C 
BRANCH   6   7
ATOM      7  C   UNL     1       1.677   8.706  18.674  0.00  0.00    +0.000 C 
BRANCH   7  12
ATOM      8  O   UNL     1      -0.389  10.648  23.352  0.00  0.00    +0.000 OA
ATOM      9  C   UNL     1       0.029  10.181  22.300  0.00  0.00    +0.000 A 
ATOM     10  C   UNL     1       0.956   9.039  22.291  0.00  0.00    +0.000 A 
ATOM     11  C   UNL     1       1.428   8.599  21.122  0.00  0.00    +0.000 A 
ATOM     12  N   UNL     1       1.071   9.183  19.923  0.00  0.00    +0.000 N 
ATOM     13  C   UNL     1       0.198  10.267  19.872  0.00  0.00    +0.000 A 
ATOM     14  O   UNL     1      -0.101  10.863  18.840  0.00  0.00    +0.000 OA
ATOM     15  N   UNL     1      -0.312  10.676  21.077  0.00  0.00    +0.000 N 
ATOM     16  H   UNL     1      -0.935  11.469  21.058  0.00  0.00    +0.000 HD
ENDBRANCH   7  12
ENDBRANCH   6   7
ENDBRANCH   5   6
ENDBRANCH   1   5
BRANCH   1  17
ATOM     17  O   UNL     1       4.581   3.719  18.031  0.00  0.00    +0.000 OA
BRANCH  17  18
ATOM     18  P   UNL     1       3.739   2.917  19.313  0.00  0.00    +0.000 P 
ATOM     19  O   UNL     1       3.084   1.949  18.329  0.00  0.00    +0.000 OA
BRANCH  18  20
ATOM     20  O   UNL     1       5.127   2.191  19.770  0.00  0.00    +0.000 OA
ATOM     21  H   UNL     1       5.829   2.871  19.793  0.00  0.00    +0.000 HD
ENDBRANCH  18  20
BRANCH  18  22
ATOM     22  O   UNL     1       2.897   2.116  20.594  0.00  0.00    +0.000 OA
BRANCH  22  23
ATOM     23  P   UNL     1       1.750   3.102  21.113  0.00  0.00    +0.000 P 
ATOM     24  O   UNL     1       1.144   2.699  22.418  0.00  0.00    +0.000 OA
BRANCH  23  25
ATOM     25  O   UNL     1       2.396   4.552  21.042  0.00  0.00    +0.000 OA
ATOM     26  H   UNL     1       2.654   4.794  20.132  0.00  0.00    +0.000 HD
ENDBRANCH  23  25
BRANCH  23  27
ATOM     27  O   UNL     1       0.685   3.152  19.932  0.00  0.00    +0.000 OA
ATOM     28  H   UNL     1      -0.229   3.019  20.253  0.00  0.00    +0.000 HD
ENDBRANCH  23  27
ENDBRANCH  22  23
ENDBRANCH  18  22
ENDBRANCH  17  18
ENDBRANCH   1  17
TORSDOF 12
ENDMDL
MODEL 4
REMARK VINA RESULT:      -6.5      3.695      5.318
REMARK  Name = 
REMARK  12 active torsions:
REMARK  status: ('A' for Active; 'I' for Inactive)
REMARK    1  A    between atoms: N_5  and  C_6
REMARK    2  A    between atoms: C_6  and  C_7
REMARK    3  A    between atoms: C_7  and  C_8
REMARK    4  A    between atoms: C_8  and  P_9
REMARK    5  A    between atoms: P_9  and  O_11
REMARK    6  A    between atoms: P_9  and  O_12
REMARK    7  A    between atoms: O_12  and  P_13
REMARK    8  A    between atoms: P_13  and  O_15
REMARK    9  A    between atoms: P_13  and  O_16
REMARK   10  A    between atoms: O_16  and  P_17
REMARK   11  A    between atoms: P_17  and  O_19
REMARK   12  A    between atoms: P_17  and  O_20
REMARK                            x       y       z     vdW  Elec       q    Type
REMARK                         _______ _______ _______ _____ _____    ______ ____
ROOT
ATOM      1  P   UNL     1       1.972   6.372  19.436  0.00  0.00    +0.000 P 
ATOM      2  O   UNL     1       1.830   5.129  18.548  0.00  0.00    +0.000 OA
ENDROOT
BRANCH   1   3
ATOM      3  O   UNL     1       3.571   6.483  19.801  0.00  0.00    +0.000 OA
ATOM      4  H   UNL     1       4.170   6.775  19.093  0.00  0.00    +0.000 HD
ENDBRANCH   1   3
BRANCH   1   5
ATOM      5  C   UNL     1       2.241   7.364  17.922  0.00  0.00    +0.000 C 
BRANCH   5   6
ATOM      6  C   UNL     1       3.735   7.645  17.718  0.00  0.00    +0.000 C 
BRANCH   6   7
ATOM      7  C   UNL     1       4.321   6.947  16.490  0.00  0.00    +0.000 C 
BRANCH   7  12
ATOM      8  O   UNL     1       8.643   3.979  18.051  0.00  0.00    +0.000 OA
ATOM      9  C   UNL     1       7.699   4.647  17.651  0.00  0.00    +0.000 A 
ATOM     10  C   UNL     1       7.661   6.105  17.850  0.00  0.00    +0.000 A 
ATOM     11  C   UNL     1       6.585   6.784  17.447  0.00  0.00    +0.000 A 
ATOM     12  N   UNL     1       5.509   6.160  16.848  0.00  0.00    +0.000 N 
ATOM     13  C   UNL     1       5.490   4.784  16.635  0.00  0.00    +0.000 A 
ATOM     14  O   UNL     1       4.533   4.174  16.165  0.00  0.00    +0.000 OA
ATOM     15  N   UNL     1       6.621   4.109  17.014  0.00  0.00    +0.000 N 
ATOM     16  H   UNL     1       6.617   3.110  16.879  0.00  0.00    +0.000 HD
ENDBRANCH   7  12
ENDBRANCH   6   7
ENDBRANCH   5   6
ENDBRANCH   1   5
BRANCH   1  17
ATOM     17  O   UNL     1       1.716   5.433  20.866  0.00  0.00    +0.000 OA
BRANCH  17  18
ATOM     18  P   UNL     1       2.166   3.790  20.566  0.00  0.00    +0.000 P 
ATOM     19  O   UNL     1       2.362   3.530  22.059  0.00  0.00    +0.000 OA
BRANCH  18  20
ATOM     20  O   UNL     1       0.606   3.418  20.267  0.00  0.00    +0.000 OA
ATOM     21  H   UNL     1       0.186   4.194  19.847  0.00  0.00    +0.000 HD
ENDBRANCH  18  20
BRANCH  18  22
ATOM     22  O   UNL     1       2.616   2.147  20.266  0.00  0.00    +0.000 OA
BRANCH  22  23
ATOM     23  P   UNL     1       4.118   2.147  19.716  0.00  0.00    +0.000 P 
ATOM     24  O   UNL     1       5.134   1.699  20.715  0.00  0.00    +0.000 OA
BRANCH  23  25
ATOM     25  O   UNL     1       4.052   1.335  18.351  0.00  0.00    +0.000 OA
ATOM     26  H   UNL     1       3.923   1.921  17.581  0.00  0.00    +0.000 HD
ENDBRANCH  23  25
BRANCH  23  27
ATOM     27  O   UNL     1       4.371   3.634  19.208  0.00  0.00    +0.000 OA
ATOM     28  H   UNL     1       5.227   3.724  18.744  0.00  0.00    +0.000 HD
ENDBRANCH  23  27
ENDBRANCH  22  23
ENDBRANCH  18  22
ENDBRANCH  17  18
ENDBRANCH   1  17
TORSDOF 12
ENDMDL
MODEL 5
REMARK VINA RESULT:      -6.5      3.440      5.612
REMARK  Name = 
REMARK  12 active torsions:
REMARK  status: ('A' for Active; 'I' for Inactive)
REMARK    1  A    between atoms: N_5  and  C_6
REMARK    2  A    between atoms: C_6  and  C_7
REMARK    3  A    between atoms: C_7  and  C_8
REMARK    4  A    between atoms: C_8  and  P_9
REMARK    5  A    between atoms: P_9  and  O_11
REMARK    6  A    between atoms: P_9  and  O_12
REMARK    7  A    between atoms: O_12  and  P_13
REMARK    8  A    between atoms: P_13  and  O_15
REMARK    9  A    between atoms: P_13  and  O_16
REMARK   10  A    between atoms: O_16  and  P_17
REMARK   11  A    between atoms: P_17  and  O_19
REMARK   12  A    between atoms: P_17  and  O_20
REMARK                            x       y       z     vdW  Elec       q    Type
REMARK                         _______ _______ _______ _____ _____    ______ ____
ROOT
ATOM      1  P   UNL     1       2.314   6.093  20.303  0.00  0.00    +0.000 P 
ATOM      2  O   UNL     1       1.095   6.799  20.910  0.00  0.00    +0.000 OA
ENDROOT
BRANCH   1   3
ATOM      3  O   UNL     1       1.724   5.113  19.121  0.00  0.00    +0.000 OA
ATOM      4  H   UNL     1       1.428   5.537  18.298  0.00  0.00    +0.000 HD
ENDBRANCH   1   3
BRANCH   1   5
ATOM      5  C   UNL     1       2.453   7.468  19.103  0.00  0.00    +0.000 C 
BRANCH   5   6
ATOM      6  C   UNL     1       3.468   7.126  18.004  0.00  0.00    +0.000 C 
BRANCH   6   7
ATOM      7  C   UNL     1       4.574   6.181  18.472  0.00  0.00    +0.000 C 
BRANCH   7  12
ATOM      8  O   UNL     1       7.393   4.195  14.225  0.00  0.00    +0.000 OA
ATOM      9  C   UNL     1       6.730   4.594  15.174  0.00  0.00    +0.000 A 
ATOM     10  C   UNL     1       5.595   5.510  14.976  0.00  0.00    +0.000 A 
ATOM     11  C   UNL     1       4.936   5.962  16.046  0.00  0.00    +0.000 A 
ATOM     12  N   UNL     1       5.287   5.595  17.330  0.00  0.00    +0.000 N 
ATOM     13  C   UNL     1       6.353   4.733  17.576  0.00  0.00    +0.000 A 
ATOM     14  O   UNL     1       6.745   4.427  18.699  0.00  0.00    +0.000 OA
ATOM     15  N   UNL     1       6.989   4.243  16.465  0.00  0.00    +0.000 N 
ATOM     16  H   UNL     1       7.771   3.628  16.626  0.00  0.00    +0.000 HD
ENDBRANCH   7  12
ENDBRANCH   6   7
ENDBRANCH   5   6
ENDBRANCH   1   5
BRANCH   1  17
ATOM     17  O   UNL     1       2.182   4.795  21.437  0.00  0.00    +0.000 OA
BRANCH  17  18
ATOM     18  P   UNL     1       2.338   3.285  20.607  0.00  0.00    +0.000 P 
ATOM     19  O   UNL     1       2.879   2.605  21.865  0.00  0.00    +0.000 OA
BRANCH  18  20
ATOM     20  O   UNL     1       0.720   3.083  20.672  0.00  0.00    +0.000 OA
ATOM     21  H   UNL     1       0.481   2.864  21.594  0.00  0.00    +0.000 HD
ENDBRANCH  18  20
BRANCH  18  22
ATOM     22  O   UNL     1       2.494   1.776  19.777  0.00  0.00    +0.000 OA
BRANCH  22  23
ATOM     23  P   UNL     1       3.683   1.924  18.718  0.00  0.00    +0.000 P 
ATOM     24  O   UNL     1       3.347   2.779  17.539  0.00  0.00    +0.000 OA
BRANCH  23  25
ATOM     25  O   UNL     1       4.945   2.361  19.580  0.00  0.00    +0.000 OA
ATOM     26  H   UNL     1       5.251   1.646  20.170  0.00  0.00    +0.000 HD
ENDBRANCH  23  25
BRANCH  23  27
ATOM     27  O   UNL     1       4.059   0.434  18.307  0.00  0.00    +0.000 OA
ATOM     28  H   UNL     1       3.458   0.077  17.624  0.00  0.00    +0.000 HD
ENDBRANCH  23  27
ENDBRANCH  22  23
ENDBRANCH  18  22
ENDBRANCH  17  18
ENDBRANCH   1  17
TORSDOF 12
ENDMDL
MODEL 6
REMARK VINA RESULT:      -6.5      2.929      5.076
REMARK  Name = 
REMARK  12 active torsions:
REMARK  status: ('A' for Active; 'I' for Inactive)
REMARK    1  A    between atoms: N_5  and  C_6
REMARK    2  A    between atoms: C_6  and  C_7
REMARK    3  A    between atoms: C_7  and  C_8
REMARK    4  A    between atoms: C_8  and  P_9
REMARK    5  A    between atoms: P_9  and  O_11
REMARK    6  A    between atoms: P_9  and  O_12
REMARK    7  A    between atoms: O_12  and  P_13
REMARK    8  A    between atoms: P_13  and  O_15
REMARK    9  A    between atoms: P_13  and  O_16
REMARK   10  A    between atoms: O_16  and  P_17
REMARK   11  A    between atoms: P_17  and  O_19
REMARK   12  A    between atoms: P_17  and  O_20
REMARK                            x       y       z     vdW  Elec       q    Type
REMARK                         _______ _______ _______ _____ _____    ______ ____
ROOT
ATOM      1  P   UNL     1       4.249   3.917  18.827  0.00  0.00    +0.000 P 
ATOM      2  O   UNL     1       4.021   2.938  19.986  0.00  0.00    +0.000 OA
ENDROOT
BRANCH   1   3
ATOM      3  O   UNL     1       4.551   2.987  17.505  0.00  0.00    +0.000 OA
ATOM      4  H   UNL     1       5.170   2.245  17.614  0.00  0.00    +0.000 HD
ENDBRANCH   1   3
BRANCH   1   5
ATOM      5  C   UNL     1       2.455   3.845  18.476  0.00  0.00    +0.000 C 
BRANCH   5   6
ATOM      6  C   UNL     1       1.764   5.141  18.920  0.00  0.00    +0.000 C 
BRANCH   6   7
ATOM      7  C   UNL     1       2.731   6.181  19.486  0.00  0.00    +0.000 C 
BRANCH   7  12
ATOM      8  O   UNL     1       0.630  11.155  18.609  0.00  0.00    +0.000 OA
ATOM      9  C   UNL     1       1.146  10.066  18.826  0.00  0.00    +0.000 A 
ATOM     10  C   UNL     1       1.888   9.353  17.773  0.00  0.00    +0.000 A 
ATOM     11  C   UNL     1       2.385   8.143  18.039  0.00  0.00    +0.000 A 
ATOM     12  N   UNL     1       2.226   7.543  19.272  0.00  0.00    +0.000 N 
ATOM     13  C   UNL     1       1.533   8.170  20.305  0.00  0.00    +0.000 A 
ATOM     14  O   UNL     1       1.309   7.654  21.396  0.00  0.00    +0.000 OA
ATOM     15  N   UNL     1       1.068   9.429  20.029  0.00  0.00    +0.000 N 
ATOM     16  H   UNL     1       0.552   9.892  20.761  0.00  0.00    +0.000 HD
ENDBRANCH   7  12
ENDBRANCH   6   7
ENDBRANCH   5   6
ENDBRANCH   1   5
BRANCH   1  17
ATOM     17  O   UNL     1       5.945   3.985  19.159  0.00  0.00    +0.000 OA
BRANCH  17  18
ATOM     18  P   UNL     1       6.755   4.790  17.860  0.00  0.00    +0.000 P 
ATOM     19  O   UNL     1       5.978   6.079  18.123  0.00  0.00    +0.000 OA
BRANCH  18  20
ATOM     20  O   UNL     1       8.103   4.908  18.774  0.00  0.00    +0.000 OA
ATOM     21  H   UNL     1       8.013   4.287  19.524  0.00  0.00    +0.000 HD
ENDBRANCH  18  20
BRANCH  18  22
ATOM     22  O   UNL     1       7.566   5.595  16.561  0.00  0.00    +0.000 OA
BRANCH  22  23
ATOM     23  P   UNL     1       6.841   5.172  15.200  0.00  0.00    +0.000 P 
ATOM     24  O   UNL     1       7.686   5.344  13.980  0.00  0.00    +0.000 OA
BRANCH  23  25
ATOM     25  O   UNL     1       6.274   3.713  15.477  0.00  0.00    +0.000 OA
ATOM     26  H   UNL     1       6.928   3.020  15.267  0.00  0.00    +0.000 HD
ENDBRANCH  23  25
BRANCH  23  27
ATOM     27  O   UNL     1       5.511   6.045  15.152  0.00  0.00    +0.000 OA
ATOM     28  H   UNL     1       5.699   6.998  15.054  0.00  0.00    +0.000 HD
ENDBRANCH  23  27
ENDBRANCH  22  23
ENDBRANCH  18  22
ENDBRANCH  17  18
ENDBRANCH   1  17
TORSDOF 12
ENDMDL
MODEL 7
REMARK VINA RESULT:      -6.5      4.143      6.361
REMARK  Name = 
REMARK  12 active torsions:
REMARK  status: ('A' for Active; 'I' for Inactive)
REMARK    1  A    between atoms: N_5  and  C_6
REMARK    2  A    between atoms: C_6  and  C_7
REMARK    3  A    between atoms: C_7  and  C_8
REMARK    4  A    between atoms: C_8  and  P_9
REMARK    5  A    between atoms: P_9  and  O_11
REMARK    6  A    between atoms: P_9  and  O_12
REMARK    7  A    between atoms: O_12  and  P_13
REMARK    8  A    between atoms: P_13  and  O_15
REMARK    9  A    between atoms: P_13  and  O_16
REMARK   10  A    between atoms: O_16  and  P_17
REMARK   11  A    between atoms: P_17  and  O_19
REMARK   12  A    between atoms: P_17  and  O_20
REMARK                            x       y       z     vdW  Elec       q    Type
REMARK                         _______ _______ _______ _____ _____    ______ ____
ROOT
ATOM      1  P   UNL     1       5.562   4.973  18.944  0.00  0.00    +0.000 P 
ATOM      2  O   UNL     1       6.784   5.367  19.784  0.00  0.00    +0.000 OA
ENDROOT
BRANCH   1   3
ATOM      3  O   UNL     1       4.252   5.538  19.762  0.00  0.00    +0.000 OA
ATOM      4  H   UNL     1       3.915   6.415  19.511  0.00  0.00    +0.000 HD
ENDBRANCH   1   3
BRANCH   1   5
ATOM      5  C   UNL     1       5.710   6.570  18.064  0.00  0.00    +0.000 C 
BRANCH   5   6
ATOM      6  C   UNL     1       5.604   6.364  16.547  0.00  0.00    +0.000 C 
BRANCH   6   7
ATOM      7  C   UNL     1       6.906   5.882  15.907  0.00  0.00    +0.000 C 
BRANCH   7  12
ATOM      8  O   UNL     1       5.770   2.821  11.518  0.00  0.00    +0.000 OA
ATOM      9  C   UNL     1       6.056   3.465  12.519  0.00  0.00    +0.000 A 
ATOM     10  C   UNL     1       5.188   3.449  13.707  0.00  0.00    +0.000 A 
ATOM     11  C   UNL     1       5.512   4.210  14.755  0.00  0.00    +0.000 A 
ATOM     12  N   UNL     1       6.638   5.010  14.757  0.00  0.00    +0.000 N 
ATOM     13  C   UNL     1       7.495   5.065  13.660  0.00  0.00    +0.000 A 
ATOM     14  O   UNL     1       8.471   5.807  13.587  0.00  0.00    +0.000 OA
ATOM     15  N   UNL     1       7.172   4.243  12.612  0.00  0.00    +0.000 N 
ATOM     16  H   UNL     1       7.774   4.282  11.805  0.00  0.00    +0.000 HD
ENDBRANCH   7  12
ENDBRANCH   6   7
ENDBRANCH   5   6
ENDBRANCH   1   5
BRANCH   1  17
ATOM     17  O   UNL     1       5.423   3.463  19.777  0.00  0.00    +0.000 OA
BRANCH  17  18
ATOM     18  P   UNL     1       3.982   2.653  19.265  0.00  0.00    +0.000 P 
ATOM     19  O   UNL     1       4.189   3.115  17.822  0.00  0.00    +0.000 OA
BRANCH  18  20
ATOM     20  O   UNL     1       4.752   1.218  19.370  0.00  0.00    +0.000 OA
ATOM     21  H   UNL     1       4.094   0.542  19.626  0.00  0.00    +0.000 HD
ENDBRANCH  18  20
BRANCH  18  22
ATOM     22  O   UNL     1       2.542   1.844  18.753  0.00  0.00    +0.000 OA
BRANCH  22  23
ATOM     23  P   UNL     1       1.368   2.929  18.697  0.00  0.00    +0.000 P 
ATOM     24  O   UNL     1       0.004   2.364  18.923  0.00  0.00    +0.000 OA
BRANCH  23  25
ATOM     25  O   UNL     1       1.835   4.085  19.682  0.00  0.00    +0.000 OA
ATOM     26  H   UNL     1       1.827   4.961  19.250  0.00  0.00    +0.000 HD
ENDBRANCH  23  25
BRANCH  23  27
ATOM     27  O   UNL     1       1.516   3.623  17.273  0.00  0.00    +0.000 OA
ATOM     28  H   UNL     1       1.582   4.595  17.341  0.00  0.00    +0.000 HD
ENDBRANCH  23  27
ENDBRANCH  22  23
ENDBRANCH  18  22
ENDBRANCH  17  18
ENDBRANCH   1  17
TORSDOF 12
ENDMDL
MODEL 8
REMARK VINA RESULT:      -6.4      4.388      7.052
REMARK  Name = 
REMARK  12 active torsions:
REMARK  status: ('A' for Active; 'I' for Inactive)
REMARK    1  A    between atoms: N_5  and  C_6
REMARK    2  A    between atoms: C_6  and  C_7
REMARK    3  A    between atoms: C_7  and  C_8
REMARK    4  A    between atoms: C_8  and  P_9
REMARK    5  A    between atoms: P_9  and  O_11
REMARK    6  A    between atoms: P_9  and  O_12
REMARK    7  A    between atoms: O_12  and  P_13
REMARK    8  A    between atoms: P_13  and  O_15
REMARK    9  A    between atoms: P_13  and  O_16
REMARK   10  A    between atoms: O_16  and  P_17
REMARK   11  A    between atoms: P_17  and  O_19
REMARK   12  A    between atoms: P_17  and  O_20
REMARK                            x       y       z     vdW  Elec       q    Type
REMARK                         _______ _______ _______ _____ _____    ______ ____
ROOT
ATOM      1  P   UNL     1       3.856   5.233  17.565  0.00  0.00    +0.000 P 
ATOM      2  O   UNL     1       4.846   5.455  18.716  0.00  0.00    +0.000 OA
ENDROOT
BRANCH   1   3
ATOM      3  O   UNL     1       2.386   5.016  18.272  0.00  0.00    +0.000 OA
ATOM      4  H   UNL     1       1.811   5.796  18.352  0.00  0.00    +0.000 HD
ENDBRANCH   1   3
BRANCH   1   5
ATOM      5  C   UNL     1       3.575   7.040  17.520  0.00  0.00    +0.000 C 
BRANCH   5   6
ATOM      6  C   UNL     1       2.771   7.495  18.745  0.00  0.00    +0.000 C 
BRANCH   6   7
ATOM      7  C   UNL     1       1.834   8.667  18.456  0.00  0.00    +0.000 C 
BRANCH   7  12
ATOM      8  O   UNL     1      -0.245  10.629  23.120  0.00  0.00    +0.000 OA
ATOM      9  C   UNL     1       0.170  10.172  22.063  0.00  0.00    +0.000 A 
ATOM     10  C   UNL     1       0.773   8.831  22.000  0.00  0.00    +0.000 A 
ATOM     11  C   UNL     1       1.262   8.396  20.836  0.00  0.00    +0.000 A 
ATOM     12  N   UNL     1       1.216   9.166  19.691  0.00  0.00    +0.000 N 
ATOM     13  C   UNL     1       0.658  10.442  19.692  0.00  0.00    +0.000 A 
ATOM     14  O   UNL     1       0.649  11.191  18.718  0.00  0.00    +0.000 OA
ATOM     15  N   UNL     1       0.120  10.854  20.884  0.00  0.00    +0.000 N 
ATOM     16  H   UNL     1      -0.275  11.781  20.905  0.00  0.00    +0.000 HD
ENDBRANCH   7  12
ENDBRANCH   6   7
ENDBRANCH   5   6
ENDBRANCH   1   5
BRANCH   1  17
ATOM     17  O   UNL     1       4.122   3.524  17.608  0.00  0.00    +0.000 OA
BRANCH  17  18
ATOM     18  P   UNL     1       3.588   2.895  19.129  0.00  0.00    +0.000 P 
ATOM     19  O   UNL     1       3.048   1.631  18.460  0.00  0.00    +0.000 OA
BRANCH  18  20
ATOM     20  O   UNL     1       5.132   2.545  19.525  0.00  0.00    +0.000 OA
ATOM     21  H   UNL     1       5.274   2.820  20.452  0.00  0.00    +0.000 HD
ENDBRANCH  18  20
BRANCH  18  22
ATOM     22  O   UNL     1       3.054   2.266  20.649  0.00  0.00    +0.000 OA
BRANCH  22  23
ATOM     23  P   UNL     1       1.832   3.170  21.147  0.00  0.00    +0.000 P 
ATOM     24  O   UNL     1       2.194   4.597  21.402  0.00  0.00    +0.000 OA
BRANCH  23  25
ATOM     25  O   UNL     1       0.673   2.904  20.093  0.00  0.00    +0.000 OA
ATOM     26  H   UNL     1       0.887   2.166  19.491  0.00  0.00    +0.000 HD
ENDBRANCH  23  25
BRANCH  23  27
ATOM     27  O   UNL     1       1.279   2.436  22.446  0.00  0.00    +0.000 OA
ATOM     28  H   UNL     1       1.387   1.467  22.395  0.00  0.00    +0.000 HD
ENDBRANCH  23  27
ENDBRANCH  22  23
ENDBRANCH  18  22
ENDBRANCH  17  18
ENDBRANCH   1  17
TORSDOF 12
ENDMDL
MODEL 9
REMARK VINA RESULT:      -6.4      1.238      1.634
REMARK  Name = 
REMARK  12 active torsions:
REMARK  status: ('A' for Active; 'I' for Inactive)
REMARK    1  A    between atoms: N_5  and  C_6
REMARK    2  A    between atoms: C_6  and  C_7
REMARK    3  A    between atoms: C_7  and  C_8
REMARK    4  A    between atoms: C_8  and  P_9
REMARK    5  A    between atoms: P_9  and  O_11
REMARK    6  A    between atoms: P_9  and  O_12
REMARK    7  A    between atoms: O_12  and  P_13
REMARK    8  A    between atoms: P_13  and  O_15
REMARK    9  A    between atoms: P_13  and  O_16
REMARK   10  A    between atoms: O_16  and  P_17
REMARK   11  A    between atoms: P_17  and  O_19
REMARK   12  A    between atoms: P_17  and  O_20
REMARK                            x       y       z     vdW  Elec       q    Type
REMARK                         _______ _______ _______ _____ _____    ______ ____
ROOT
ATOM      1  P   UNL     1       4.165   6.056  18.258  0.00  0.00    +0.000 P 
ATOM      2  O   UNL     1       4.342   5.315  19.589  0.00  0.00    +0.000 OA
ENDROOT
BRANCH   1   3
ATOM      3  O   UNL     1       4.363   4.924  17.082  0.00  0.00    +0.000 OA
ATOM      4  H   UNL     1       3.559   4.515  16.718  0.00  0.00    +0.000 HD
ENDBRANCH   1   3
BRANCH   1   5
ATOM      5  C   UNL     1       2.377   5.673  18.336  0.00  0.00    +0.000 C 
BRANCH   5   6
ATOM      6  C   UNL     1       2.058   4.413  17.521  0.00  0.00    +0.000 C 
BRANCH   6   7
ATOM      7  C   UNL     1       1.461   3.283  18.360  0.00  0.00    +0.000 C 
BRANCH   7  12
ATOM      8  O   UNL     1       5.366   1.277  21.625  0.00  0.00    +0.000 OA
ATOM      9  C   UNL     1       4.464   1.679  20.900  0.00  0.00    +0.000 A 
ATOM     10  C   UNL     1       4.548   1.545  19.437  0.00  0.00    +0.000 A 
ATOM     11  C   UNL     1       3.566   2.047  18.685  0.00  0.00    +0.000 A 
ATOM     12  N   UNL     1       2.475   2.685  19.239  0.00  0.00    +0.000 N 
ATOM     13  C   UNL     1       2.343   2.841  20.616  0.00  0.00    +0.000 A 
ATOM     14  O   UNL     1       1.426   3.455  21.155  0.00  0.00    +0.000 OA
ATOM     15  N   UNL     1       3.337   2.280  21.375  0.00  0.00    +0.000 N 
ATOM     16  H   UNL     1       3.263   2.396  22.374  0.00  0.00    +0.000 HD
ENDBRANCH   7  12
ENDBRANCH   6   7
ENDBRANCH   5   6
ENDBRANCH   1   5
BRANCH   1  17
ATOM     17  O   UNL     1       5.854   6.420  18.184  0.00  0.00    +0.000 OA
BRANCH  17  18
ATOM     18  P   UNL     1       6.604   5.433  16.977  0.00  0.00    +0.000 P 
ATOM     19  O   UNL     1       7.751   6.431  16.820  0.00  0.00    +0.000 OA
BRANCH  18  20
ATOM     20  O   UNL     1       7.096   4.392  18.134  0.00  0.00    +0.000 OA
ATOM     21  H   UNL     1       7.738   3.776  17.730  0.00  0.00    +0.000 HD
ENDBRANCH  18  20
BRANCH  18  22
ATOM     22  O   UNL     1       7.354   4.447  15.770  0.00  0.00    +0.000 OA
BRANCH  22  23
ATOM     23  P   UNL     1       6.636   4.757  14.374  0.00  0.00    +0.000 P 
ATOM     24  O   UNL     1       7.581   4.997  13.243  0.00  0.00    +0.000 OA
BRANCH  23  25
ATOM     25  O   UNL     1       5.583   3.581  14.189  0.00  0.00    +0.000 OA
ATOM     26  H   UNL     1       4.740   3.900  13.813  0.00  0.00    +0.000 HD
ENDBRANCH  23  25
BRANCH  23  27
ATOM     27  O   UNL     1       5.695   6.007  14.663  0.00  0.00    +0.000 OA
ATOM     28  H   UNL     1       6.148   6.856  14.498  0.00  0.00    +0.000 HD
ENDBRANCH  23  27
ENDBRANCH  22  23
ENDBRANCH  18  22
ENDBRANCH  17  18
ENDBRANCH   1  17
TORSDOF 12
ENDMDL
