MODEL 1
REMARK VINA RESULT:      -8.4      0.000      0.000
REMARK  Name = 
REMARK  4 active torsions:
REMARK  status: ('A' for Active; 'I' for Inactive)
REMARK    1  A    between atoms: N_1  and  C_2
REMARK    2  A    between atoms: C_5  and  C_6
REMARK    3  A    between atoms: C_13  and  C_14
REMARK    4  A    between atoms: C_14  and  C_16
REMARK                            x       y       z     vdW  Elec       q    Type
REMARK                         _______ _______ _______ _____ _____    ______ ____
ROOT
ATOM      1  C   UNL     1       3.371   2.103  18.651  0.00  0.00    +0.000 A 
ATOM      2  S   UNL     1       1.707   1.800  18.898  0.00  0.00    +0.000 S 
ATOM      3  C   UNL     1       1.364   3.448  19.069  0.00  0.00    +0.000 A 
ATOM      4  C   UNL     1       2.474   4.259  18.917  0.00  0.00    +0.000 A 
ATOM      5  C   UNL     1       3.678   3.462  18.669  0.00  0.00    +0.000 A 
ENDROOT
BRANCH   4   6
ATOM      6  C   UNL     1       2.307   5.722  18.975  0.00  0.00    +0.000 A 
ATOM      7  C   UNL     1       2.542   6.514  17.842  0.00  0.00    +0.000 A 
ATOM      8  C   UNL     1       2.429   7.907  17.894  0.00  0.00    +0.000 A 
ATOM      9  C   UNL     1       2.049   8.529  19.079  0.00  0.00    +0.000 A 
ATOM     10  C   UNL     1       1.804   7.754  20.209  0.00  0.00    +0.000 A 
ATOM     11 CL   UNL     1       1.311   8.515  21.674  0.00  0.00    +0.000 Cl
ATOM     12  C   UNL     1       1.956   6.367  20.170  0.00  0.00    +0.000 A 
ENDBRANCH   4   6
BRANCH   1  13
ATOM     13  N   UNL     1       4.164   1.026  18.467  0.00  0.00    +0.000 N 
ATOM     14  H   UNL     1       3.743   0.101  18.414  0.00  0.00    +0.000 HD
ATOM     15  H   UNL     1       5.165   1.019  18.626  0.00  0.00    +0.000 HD
ENDBRANCH   1  13
BRANCH   5  16
ATOM     16  C   UNL     1       5.031   4.027  18.511  0.00  0.00    +0.000 C 
ATOM     17  O   UNL     1       5.729   4.320  19.476  0.00  0.00    +0.000 OA
BRANCH  16  18
ATOM     18  C   UNL     1       5.611   4.285  17.161  0.00  0.00    +0.000 A 
ATOM     19  C   UNL     1       6.957   4.680  17.076  0.00  0.00    +0.000 A 
ATOM     20  C   UNL     1       7.540   4.927  15.830  0.00  0.00    +0.000 A 
ATOM     21  C   UNL     1       6.782   4.777  14.670  0.00  0.00    +0.000 A 
ATOM     22 CL   UNL     1       7.492   5.085  13.135  0.00  0.00    +0.000 Cl
ATOM     23  C   UNL     1       5.445   4.393  14.745  0.00  0.00    +0.000 A 
ATOM     24  C   UNL     1       4.854   4.179  15.990  0.00  0.00    +0.000 A 
ENDBRANCH  16  18
ENDBRANCH   5  16
TORSDOF 4
ENDMDL
MODEL 2
REMARK VINA RESULT:      -8.3      1.038      1.454
REMARK  Name = 
REMARK  4 active torsions:
REMARK  status: ('A' for Active; 'I' for Inactive)
REMARK    1  A    between atoms: N_1  and  C_2
REMARK    2  A    between atoms: C_5  and  C_6
REMARK    3  A    between atoms: C_13  and  C_14
REMARK    4  A    between atoms: C_14  and  C_16
REMARK                            x       y       z     vdW  Elec       q    Type
REMARK                         _______ _______ _______ _____ _____    ______ ____
ROOT
ATOM      1  C   UNL     1       3.970   2.888  19.921  0.00  0.00    +0.000 A 
ATOM      2  S   UNL     1       2.420   2.498  20.526  0.00  0.00    +0.000 S 
ATOM      3  C   UNL     1       1.858   4.076  20.291  0.00  0.00    +0.000 A 
ATOM      4  C   UNL     1       2.802   4.918  19.731  0.00  0.00    +0.000 A 
ATOM      5  C   UNL     1       4.067   4.215  19.508  0.00  0.00    +0.000 A 
ENDROOT
BRANCH   4   6
ATOM      6  C   UNL     1       2.425   6.306  19.410  0.00  0.00    +0.000 A 
ATOM      7  C   UNL     1       2.607   6.815  18.116  0.00  0.00    +0.000 A 
ATOM      8  C   UNL     1       2.294   8.143  17.808  0.00  0.00    +0.000 A 
ATOM      9  C   UNL     1       1.764   8.977  18.788  0.00  0.00    +0.000 A 
ATOM     10  C   UNL     1       1.570   8.481  20.074  0.00  0.00    +0.000 A 
ATOM     11 CL   UNL     1       0.894   9.500  21.287  0.00  0.00    +0.000 Cl
ATOM     12  C   UNL     1       1.919   7.168  20.393  0.00  0.00    +0.000 A 
ENDBRANCH   4   6
BRANCH   1  13
ATOM     13  N   UNL     1       4.884   1.894  19.907  0.00  0.00    +0.000 N 
ATOM     14  H   UNL     1       5.850   2.110  19.672  0.00  0.00    +0.000 HD
ATOM     15  H   UNL     1       4.656   0.907  19.866  0.00  0.00    +0.000 HD
ENDBRANCH   1  13
BRANCH   5  16
ATOM     16  C   UNL     1       5.286   4.847  18.968  0.00  0.00    +0.000 C 
ATOM     17  O   UNL     1       6.016   5.547  19.661  0.00  0.00    +0.000 OA
BRANCH  16  18
ATOM     18  C   UNL     1       5.680   4.676  17.540  0.00  0.00    +0.000 A 
ATOM     19  C   UNL     1       4.689   4.310  16.612  0.00  0.00    +0.000 A 
ATOM     20  C   UNL     1       5.016   4.145  15.263  0.00  0.00    +0.000 A 
ATOM     21  C   UNL     1       6.328   4.348  14.839  0.00  0.00    +0.000 A 
ATOM     22 CL   UNL     1       6.736   4.141  13.182  0.00  0.00    +0.000 Cl
ATOM     23  C   UNL     1       7.318   4.705  15.752  0.00  0.00    +0.000 A 
ATOM     24  C   UNL     1       6.999   4.837  17.104  0.00  0.00    +0.000 A 
ENDBRANCH  16  18
ENDBRANCH   5  16
TORSDOF 4
ENDMDL
MODEL 3
REMARK VINA RESULT:      -8.3      1.095      1.103
REMARK  Name = 
REMARK  4 active torsions:
REMARK  status: ('A' for Active; 'I' for Inactive)
REMARK    1  A    between atoms: N_1  and  C_2
REMARK    2  A    between atoms: C_5  and  C_6
REMARK    3  A    between atoms: C_13  and  C_14
REMARK    4  A    between atoms: C_14  and  C_16
REMARK                            x       y       z     vdW  Elec       q    Type
REMARK                         _______ _______ _______ _____ _____    ______ ____
ROOT
ATOM      1  C   UNL     1       3.998   2.935  20.025  0.00  0.00    +0.000 A 
ATOM      2  S   UNL     1       2.462   2.574  20.681  0.00  0.00    +0.000 S 
ATOM      3  C   UNL     1       1.900   4.146  20.405  0.00  0.00    +0.000 A 
ATOM      4  C   UNL     1       2.833   4.963  19.793  0.00  0.00    +0.000 A 
ATOM      5  C   UNL     1       4.090   4.247  19.565  0.00  0.00    +0.000 A 
ENDROOT
BRANCH   4   6
ATOM      6  C   UNL     1       2.455   6.341  19.434  0.00  0.00    +0.000 A 
ATOM      7  C   UNL     1       2.687   6.832  18.141  0.00  0.00    +0.000 A 
ATOM      8  C   UNL     1       2.371   8.151  17.798  0.00  0.00    +0.000 A 
ATOM      9  C   UNL     1       1.789   8.993  18.741  0.00  0.00    +0.000 A 
ATOM     10  C   UNL     1       1.545   8.515  20.025  0.00  0.00    +0.000 A 
ATOM     11 CL   UNL     1       0.804   9.545  21.190  0.00  0.00    +0.000 Cl
ATOM     12  C   UNL     1       1.896   7.212  20.380  0.00  0.00    +0.000 A 
ENDBRANCH   4   6
BRANCH   1  13
ATOM     13  N   UNL     1       4.908   1.937  20.024  0.00  0.00    +0.000 N 
ATOM     14  H   UNL     1       5.809   2.086  19.575  0.00  0.00    +0.000 HD
ATOM     15  H   UNL     1       4.690   0.965  20.210  0.00  0.00    +0.000 HD
ENDBRANCH   1  13
BRANCH   5  16
ATOM     16  C   UNL     1       5.298   4.854  18.973  0.00  0.00    +0.000 C 
ATOM     17  O   UNL     1       6.070   5.540  19.635  0.00  0.00    +0.000 OA
BRANCH  16  18
ATOM     18  C   UNL     1       5.628   4.675  17.530  0.00  0.00    +0.000 A 
ATOM     19  C   UNL     1       6.935   4.964  17.102  0.00  0.00    +0.000 A 
ATOM     20  C   UNL     1       7.287   4.805  15.759  0.00  0.00    +0.000 A 
ATOM     21  C   UNL     1       6.338   4.354  14.844  0.00  0.00    +0.000 A 
ATOM     22 CL   UNL     1       6.764   4.161  13.190  0.00  0.00    +0.000 Cl
ATOM     23  C   UNL     1       5.038   4.071  15.257  0.00  0.00    +0.000 A 
ATOM     24  C   UNL     1       4.677   4.262  16.591  0.00  0.00    +0.000 A 
ENDBRANCH  16  18
ENDBRANCH   5  16
TORSDOF 4
ENDMDL
MODEL 4
REMARK VINA RESULT:      -7.9      1.025      1.452
REMARK  Name = 
REMARK  4 active torsions:
REMARK  status: ('A' for Active; 'I' for Inactive)
REMARK    1  A    between atoms: N_1  and  C_2
REMARK    2  A    between atoms: C_5  and  C_6
REMARK    3  A    between atoms: C_13  and  C_14
REMARK    4  A    between atoms: C_14  and  C_16
REMARK                            x       y       z     vdW  Elec       q    Type
REMARK                         _______ _______ _______ _____ _____    ______ ____
ROOT
ATOM      1  C   UNL     1       3.333   2.046  18.606  0.00  0.00    +0.000 A 
ATOM      2  S   UNL     1       1.686   1.673  18.874  0.00  0.00    +0.000 S 
ATOM      3  C   UNL     1       1.317   3.277  19.265  0.00  0.00    +0.000 A 
ATOM      4  C   UNL     1       2.404   4.129  19.176  0.00  0.00    +0.000 A 
ATOM      5  C   UNL     1       3.612   3.400  18.784  0.00  0.00    +0.000 A 
ENDROOT
BRANCH   4   6
ATOM      6  C   UNL     1       2.210   5.568  19.425  0.00  0.00    +0.000 A 
ATOM      7  C   UNL     1       1.799   6.027  20.685  0.00  0.00    +0.000 A 
ATOM      8  C   UNL     1       1.571   7.385  20.924  0.00  0.00    +0.000 A 
ATOM      9  C   UNL     1       1.779   8.313  19.908  0.00  0.00    +0.000 A 
ATOM     10  C   UNL     1       2.196   7.872  18.656  0.00  0.00    +0.000 A 
ATOM     11 CL   UNL     1       2.478   9.018  17.400  0.00  0.00    +0.000 Cl
ATOM     12  C   UNL     1       2.386   6.513  18.404  0.00  0.00    +0.000 A 
ENDBRANCH   4   6
BRANCH   1  13
ATOM     13  N   UNL     1       4.139   1.021  18.258  0.00  0.00    +0.000 N 
ATOM     14  H   UNL     1       4.574   0.460  18.987  0.00  0.00    +0.000 HD
ATOM     15  H   UNL     1       4.554   0.906  17.340  0.00  0.00    +0.000 HD
ENDBRANCH   1  13
BRANCH   5  16
ATOM     16  C   UNL     1       4.947   4.013  18.649  0.00  0.00    +0.000 C 
ATOM     17  O   UNL     1       5.611   4.345  19.625  0.00  0.00    +0.000 OA
BRANCH  16  18
ATOM     18  C   UNL     1       5.547   4.277  17.309  0.00  0.00    +0.000 A 
ATOM     19  C   UNL     1       6.911   4.607  17.241  0.00  0.00    +0.000 A 
ATOM     20  C   UNL     1       7.513   4.856  16.005  0.00  0.00    +0.000 A 
ATOM     21  C   UNL     1       6.757   4.773  14.837  0.00  0.00    +0.000 A 
ATOM     22 CL   UNL     1       7.490   5.084  13.314  0.00  0.00    +0.000 Cl
ATOM     23  C   UNL     1       5.402   4.453  14.895  0.00  0.00    +0.000 A 
ATOM     24  C   UNL     1       4.793   4.238  16.132  0.00  0.00    +0.000 A 
ENDBRANCH  16  18
ENDBRANCH   5  16
TORSDOF 4
ENDMDL
MODEL 5
REMARK VINA RESULT:      -7.9      1.029      1.784
REMARK  Name = 
REMARK  4 active torsions:
REMARK  status: ('A' for Active; 'I' for Inactive)
REMARK    1  A    between atoms: N_1  and  C_2
REMARK    2  A    between atoms: C_5  and  C_6
REMARK    3  A    between atoms: C_13  and  C_14
REMARK    4  A    between atoms: C_14  and  C_16
REMARK                            x       y       z     vdW  Elec       q    Type
REMARK                         _______ _______ _______ _____ _____    ______ ____
ROOT
ATOM      1  C   UNL     1       3.267   2.006  18.554  0.00  0.00    +0.000 A 
ATOM      2  S   UNL     1       1.605   1.660  18.755  0.00  0.00    +0.000 S 
ATOM      3  C   UNL     1       1.253   3.263  19.163  0.00  0.00    +0.000 A 
ATOM      4  C   UNL     1       2.358   4.095  19.130  0.00  0.00    +0.000 A 
ATOM      5  C   UNL     1       3.566   3.350  18.768  0.00  0.00    +0.000 A 
ENDROOT
BRANCH   4   6
ATOM      6  C   UNL     1       2.182   5.532  19.400  0.00  0.00    +0.000 A 
ATOM      7  C   UNL     1       1.761   5.977  20.662  0.00  0.00    +0.000 A 
ATOM      8  C   UNL     1       1.550   7.335  20.919  0.00  0.00    +0.000 A 
ATOM      9  C   UNL     1       1.786   8.276  19.922  0.00  0.00    +0.000 A 
ATOM     10  C   UNL     1       2.212   7.849  18.668  0.00  0.00    +0.000 A 
ATOM     11 CL   UNL     1       2.528   9.010  17.434  0.00  0.00    +0.000 Cl
ATOM     12  C   UNL     1       2.385   6.491  18.397  0.00  0.00    +0.000 A 
ENDBRANCH   4   6
BRANCH   1  13
ATOM     13  N   UNL     1       4.066   0.971  18.215  0.00  0.00    +0.000 N 
ATOM     14  H   UNL     1       3.905   0.485  17.336  0.00  0.00    +0.000 HD
ATOM     15  H   UNL     1       4.658   0.469  18.866  0.00  0.00    +0.000 HD
ENDBRANCH   1  13
BRANCH   5  16
ATOM     16  C   UNL     1       4.916   3.940  18.693  0.00  0.00    +0.000 C 
ATOM     17  O   UNL     1       5.554   4.231  19.699  0.00  0.00    +0.000 OA
BRANCH  16  18
ATOM     18  C   UNL     1       5.563   4.229  17.381  0.00  0.00    +0.000 A 
ATOM     19  C   UNL     1       4.785   4.130  16.215  0.00  0.00    +0.000 A 
ATOM     20  C   UNL     1       5.353   4.397  14.966  0.00  0.00    +0.000 A 
ATOM     21  C   UNL     1       6.694   4.766  14.880  0.00  0.00    +0.000 A 
ATOM     22 CL   UNL     1       7.399   5.090  13.346  0.00  0.00    +0.000 Cl
ATOM     23  C   UNL     1       7.475   4.860  16.029  0.00  0.00    +0.000 A 
ATOM     24  C   UNL     1       6.918   4.560  17.273  0.00  0.00    +0.000 A 
ENDBRANCH  16  18
ENDBRANCH   5  16
TORSDOF 4
ENDMDL
MODEL 6
REMARK VINA RESULT:      -7.4      1.681      5.874
REMARK  Name = 
REMARK  4 active torsions:
REMARK  status: ('A' for Active; 'I' for Inactive)
REMARK    1  A    between atoms: N_1  and  C_2
REMARK    2  A    between atoms: C_5  and  C_6
REMARK    3  A    between atoms: C_13  and  C_14
REMARK    4  A    between atoms: C_14  and  C_16
REMARK                            x       y       z     vdW  Elec       q    Type
REMARK                         _______ _______ _______ _____ _____    ______ ____
ROOT
ATOM      1  C   UNL     1       1.637   3.809  19.391  0.00  0.00    +0.000 A 
ATOM      2  S   UNL     1       1.333   2.347  18.558  0.00  0.00    +0.000 S 
ATOM      3  C   UNL     1       2.702   2.541  17.583  0.00  0.00    +0.000 A 
ATOM      4  C   UNL     1       3.429   3.680  17.877  0.00  0.00    +0.000 A 
ATOM      5  C   UNL     1       2.798   4.444  18.955  0.00  0.00    +0.000 A 
ENDROOT
BRANCH   4   6
ATOM      6  C   UNL     1       4.684   3.939  17.148  0.00  0.00    +0.000 A 
ATOM      7  C   UNL     1       5.839   4.343  17.834  0.00  0.00    +0.000 A 
ATOM      8  C   UNL     1       7.024   4.633  17.151  0.00  0.00    +0.000 A 
ATOM      9  C   UNL     1       7.080   4.494  15.767  0.00  0.00    +0.000 A 
ATOM     10  C   UNL     1       5.944   4.085  15.076  0.00  0.00    +0.000 A 
ATOM     11 CL   UNL     1       6.012   3.888  13.366  0.00  0.00    +0.000 Cl
ATOM     12  C   UNL     1       4.749   3.834  15.751  0.00  0.00    +0.000 A 
ENDBRANCH   4   6
BRANCH   1  13
ATOM     13  N   UNL     1       0.749   4.159  20.347  0.00  0.00    +0.000 N 
ATOM     14  H   UNL     1       0.908   3.861  21.306  0.00  0.00    +0.000 HD
ATOM     15  H   UNL     1      -0.194   4.480  20.161  0.00  0.00    +0.000 HD
ENDBRANCH   1  13
BRANCH   5  16
ATOM     16  C   UNL     1       3.302   5.732  19.468  0.00  0.00    +0.000 C 
ATOM     17  O   UNL     1       4.341   5.812  20.113  0.00  0.00    +0.000 OA
BRANCH  16  18
ATOM     18  C   UNL     1       2.556   7.003  19.238  0.00  0.00    +0.000 A 
ATOM     19  C   UNL     1       1.876   7.585  20.322  0.00  0.00    +0.000 A 
ATOM     20  C   UNL     1       1.169   8.778  20.150  0.00  0.00    +0.000 A 
ATOM     21  C   UNL     1       1.143   9.394  18.899  0.00  0.00    +0.000 A 
ATOM     22 CL   UNL     1       0.272  10.858  18.681  0.00  0.00    +0.000 Cl
ATOM     23  C   UNL     1       1.809   8.821  17.818  0.00  0.00    +0.000 A 
ATOM     24  C   UNL     1       2.486   7.612  17.980  0.00  0.00    +0.000 A 
ENDBRANCH  16  18
ENDBRANCH   5  16
TORSDOF 4
ENDMDL
MODEL 7
REMARK VINA RESULT:      -7.3      1.676      5.891
REMARK  Name = 
REMARK  4 active torsions:
REMARK  status: ('A' for Active; 'I' for Inactive)
REMARK    1  A    between atoms: N_1  and  C_2
REMARK    2  A    between atoms: C_5  and  C_6
REMARK    3  A    between atoms: C_13  and  C_14
REMARK    4  A    between atoms: C_14  and  C_16
REMARK                            x       y       z     vdW  Elec       q    Type
REMARK                         _______ _______ _______ _____ _____    ______ ____
ROOT
ATOM      1  C   UNL     1       1.650   3.799  19.396  0.00  0.00    +0.000 A 
ATOM      2  S   UNL     1       1.339   2.343  18.557  0.00  0.00    +0.000 S 
ATOM      3  C   UNL     1       2.704   2.538  17.577  0.00  0.00    +0.000 A 
ATOM      4  C   UNL     1       3.436   3.674  17.873  0.00  0.00    +0.000 A 
ATOM      5  C   UNL     1       2.811   4.434  18.958  0.00  0.00    +0.000 A 
ENDROOT
BRANCH   4   6
ATOM      6  C   UNL     1       4.687   3.933  17.140  0.00  0.00    +0.000 A 
ATOM      7  C   UNL     1       5.846   4.333  17.822  0.00  0.00    +0.000 A 
ATOM      8  C   UNL     1       7.029   4.623  17.136  0.00  0.00    +0.000 A 
ATOM      9  C   UNL     1       7.079   4.488  15.751  0.00  0.00    +0.000 A 
ATOM     10  C   UNL     1       5.939   4.083  15.063  0.00  0.00    +0.000 A 
ATOM     11 CL   UNL     1       6.000   3.892  13.352  0.00  0.00    +0.000 Cl
ATOM     12  C   UNL     1       4.746   3.832  15.743  0.00  0.00    +0.000 A 
ENDBRANCH   4   6
BRANCH   1  13
ATOM     13  N   UNL     1       0.768   4.147  20.358  0.00  0.00    +0.000 N 
ATOM     14  H   UNL     1       1.098   4.650  21.178  0.00  0.00    +0.000 HD
ATOM     15  H   UNL     1      -0.153   3.737  20.463  0.00  0.00    +0.000 HD
ENDBRANCH   1  13
BRANCH   5  16
ATOM     16  C   UNL     1       3.321   5.718  19.476  0.00  0.00    +0.000 C 
ATOM     17  O   UNL     1       4.387   5.798  20.076  0.00  0.00    +0.000 OA
BRANCH  16  18
ATOM     18  C   UNL     1       2.549   6.983  19.307  0.00  0.00    +0.000 A 
ATOM     19  C   UNL     1       2.541   7.598  18.043  0.00  0.00    +0.000 A 
ATOM     20  C   UNL     1       1.826   8.782  17.842  0.00  0.00    +0.000 A 
ATOM     21  C   UNL     1       1.116   9.350  18.899  0.00  0.00    +0.000 A 
ATOM     22 CL   UNL     1       0.239  10.808  18.658  0.00  0.00    +0.000 Cl
ATOM     23  C   UNL     1       1.124   8.751  20.157  0.00  0.00    +0.000 A 
ATOM     24  C   UNL     1       1.865   7.588  20.367  0.00  0.00    +0.000 A 
ENDBRANCH  16  18
ENDBRANCH   5  16
TORSDOF 4
ENDMDL
MODEL 8
REMARK VINA RESULT:      -7.3      2.017      2.380
REMARK  Name = 
REMARK  4 active torsions:
REMARK  status: ('A' for Active; 'I' for Inactive)
REMARK    1  A    between atoms: N_1  and  C_2
REMARK    2  A    between atoms: C_5  and  C_6
REMARK    3  A    between atoms: C_13  and  C_14
REMARK    4  A    between atoms: C_14  and  C_16
REMARK                            x       y       z     vdW  Elec       q    Type
REMARK                         _______ _______ _______ _____ _____    ______ ____
ROOT
ATOM      1  C   UNL     1       3.197   2.307  18.638  0.00  0.00    +0.000 A 
ATOM      2  S   UNL     1       2.065   2.048  19.892  0.00  0.00    +0.000 S 
ATOM      3  C   UNL     1       1.752   3.704  20.042  0.00  0.00    +0.000 A 
ATOM      4  C   UNL     1       2.460   4.481  19.143  0.00  0.00    +0.000 A 
ATOM      5  C   UNL     1       3.327   3.653  18.302  0.00  0.00    +0.000 A 
ENDROOT
BRANCH   4   6
ATOM      6  C   UNL     1       2.233   5.937  19.118  0.00  0.00    +0.000 A 
ATOM      7  C   UNL     1       2.318   6.653  17.916  0.00  0.00    +0.000 A 
ATOM      8  C   UNL     1       2.147   8.041  17.884  0.00  0.00    +0.000 A 
ATOM      9  C   UNL     1       1.858   8.732  19.057  0.00  0.00    +0.000 A 
ATOM     10  C   UNL     1       1.763   8.031  20.255  0.00  0.00    +0.000 A 
ATOM     11 CL   UNL     1       1.383   8.877  21.708  0.00  0.00    +0.000 Cl
ATOM     12  C   UNL     1       1.972   6.652  20.295  0.00  0.00    +0.000 A 
ENDBRANCH   4   6
BRANCH   1  13
ATOM     13  N   UNL     1       3.805   1.213  18.133  0.00  0.00    +0.000 N 
ATOM     14  H   UNL     1       4.460   0.695  18.714  0.00  0.00    +0.000 HD
ATOM     15  H   UNL     1       3.863   0.996  17.144  0.00  0.00    +0.000 HD
ENDBRANCH   1  13
BRANCH   5  16
ATOM     16  C   UNL     1       4.245   4.185  17.277  0.00  0.00    +0.000 C 
ATOM     17  O   UNL     1       4.153   3.869  16.095  0.00  0.00    +0.000 OA
BRANCH  16  18
ATOM     18  C   UNL     1       5.347   5.125  17.635  0.00  0.00    +0.000 A 
ATOM     19  C   UNL     1       5.533   6.270  16.842  0.00  0.00    +0.000 A 
ATOM     20  C   UNL     1       6.550   7.179  17.146  0.00  0.00    +0.000 A 
ATOM     21  C   UNL     1       7.379   6.947  18.243  0.00  0.00    +0.000 A 
ATOM     22 CL   UNL     1       8.635   8.058  18.619  0.00  0.00    +0.000 Cl
ATOM     23  C   UNL     1       7.207   5.811  19.030  0.00  0.00    +0.000 A 
ATOM     24  C   UNL     1       6.213   4.887  18.707  0.00  0.00    +0.000 A 
ENDBRANCH  16  18
ENDBRANCH   5  16
TORSDOF 4
ENDMDL
MODEL 9
REMARK VINA RESULT:      -7.3      3.102      5.005
REMARK  Name = 
REMARK  4 active torsions:
REMARK  status: ('A' for Active; 'I' for Inactive)
REMARK    1  A    between atoms: N_1  and  C_2
REMARK    2  A    between atoms: C_5  and  C_6
REMARK    3  A    between atoms: C_13  and  C_14
REMARK    4  A    between atoms: C_14  and  C_16
REMARK                            x       y       z     vdW  Elec       q    Type
REMARK                         _______ _______ _______ _____ _____    ______ ____
ROOT
ATOM      1  C   UNL     1       5.605   4.275  16.329  0.00  0.00    +0.000 A 
ATOM      2  S   UNL     1       6.752   5.542  16.351  0.00  0.00    +0.000 S 
ATOM      3  C   UNL     1       5.696   6.573  17.179  0.00  0.00    +0.000 A 
ATOM      4  C   UNL     1       4.480   5.987  17.481  0.00  0.00    +0.000 A 
ATOM      5  C   UNL     1       4.418   4.615  16.975  0.00  0.00    +0.000 A 
ENDROOT
BRANCH   4   6
ATOM      6  C   UNL     1       3.489   6.751  18.259  0.00  0.00    +0.000 A 
ATOM      7  C   UNL     1       3.115   6.335  19.545  0.00  0.00    +0.000 A 
ATOM      8  C   UNL     1       2.145   7.025  20.278  0.00  0.00    +0.000 A 
ATOM      9  C   UNL     1       1.553   8.166  19.744  0.00  0.00    +0.000 A 
ATOM     10  C   UNL     1       1.922   8.595  18.473  0.00  0.00    +0.000 A 
ATOM     11 CL   UNL     1       1.210  10.019  17.814  0.00  0.00    +0.000 Cl
ATOM     12  C   UNL     1       2.860   7.884  17.724  0.00  0.00    +0.000 A 
ENDBRANCH   4   6
BRANCH   1  13
ATOM     13  N   UNL     1       5.975   3.131  15.714  0.00  0.00    +0.000 N 
ATOM     14  H   UNL     1       6.281   3.163  14.745  0.00  0.00    +0.000 HD
ATOM     15  H   UNL     1       5.743   2.202  16.048  0.00  0.00    +0.000 HD
ENDBRANCH   1  13
BRANCH   5  16
ATOM     16  C   UNL     1       3.238   3.737  17.093  0.00  0.00    +0.000 C 
ATOM     17  O   UNL     1       2.672   3.274  16.109  0.00  0.00    +0.000 OA
BRANCH  16  18
ATOM     18  C   UNL     1       2.664   3.384  18.424  0.00  0.00    +0.000 A 
ATOM     19  C   UNL     1       3.537   2.935  19.430  0.00  0.00    +0.000 A 
ATOM     20  C   UNL     1       3.040   2.599  20.693  0.00  0.00    +0.000 A 
ATOM     21  C   UNL     1       1.676   2.715  20.953  0.00  0.00    +0.000 A 
ATOM     22 CL   UNL     1       1.060   2.298  22.502  0.00  0.00    +0.000 Cl
ATOM     23  C   UNL     1       0.803   3.152  19.960  0.00  0.00    +0.000 A 
ATOM     24  C   UNL     1       1.293   3.456  18.689  0.00  0.00    +0.000 A 
ENDBRANCH  16  18
ENDBRANCH   5  16
TORSDOF 4
ENDMDL
