MODEL 1
REMARK VINA RESULT:      -5.7      0.000      0.000
REMARK  Name = 
REMARK  8 active torsions:
REMARK  status: ('A' for Active; 'I' for Inactive)
REMARK    1  A    between atoms: C_2  and  SE_3
REMARK    2  A    between atoms: SE_3  and  C_4
REMARK    3  A    between atoms: C_4  and  C_5
REMARK    4  A    between atoms: C_5  and  C_6
REMARK    5  A    between atoms: C_6  and  C_7
REMARK    6  A    between atoms: C_7  and  C_8
REMARK    7  A    between atoms: C_8  and  C_9
REMARK    8  A    between atoms: N_11  and  C_12
REMARK                            x       y       z     vdW  Elec       q    Type
REMARK                         _______ _______ _______ _____ _____    ______ ____
ROOT
ATOM      1  C   UNL     1       3.104   5.627  18.174  0.00  0.00    +0.000 C 
ATOM      2  O   UNL     1       3.023   6.563  18.950  0.00  0.00    +0.000 OA
ATOM      3  N   UNL     1       4.299   5.254  17.621  0.00  0.00    +0.000 N 
ATOM      4  H   UNL     1       4.270   4.512  16.905  0.00  0.00    +0.000 HD
ENDROOT
BRANCH   3   5
ATOM      5  C   UNL     1       5.583   5.841  17.896  0.00  0.00    +0.000 A 
ATOM      6  C   UNL     1       6.117   6.938  17.175  0.00  0.00    +0.000 A 
ATOM      7  C   UNL     1       7.373   7.458  17.494  0.00  0.00    +0.000 A 
ATOM      8  C   UNL     1       8.123   6.902  18.528  0.00  0.00    +0.000 A 
ATOM      9  C   UNL     1       7.612   5.830  19.260  0.00  0.00    +0.000 A 
ATOM     10  C   UNL     1       6.351   5.308  18.953  0.00  0.00    +0.000 A 
ENDBRANCH   3   5
BRANCH   1  11
ATOM     11  C   UNL     1       1.828   4.912  17.799  0.00  0.00    +0.000 C 
BRANCH  11  12
ATOM     12  C   UNL     1       2.120   3.533  17.199  0.00  0.00    +0.000 C 
BRANCH  12  13
ATOM     13  C   UNL     1       1.818   2.413  18.203  0.00  0.00    +0.000 C 
BRANCH  13  14
ATOM     14  C   UNL     1       0.798   2.891  19.242  0.00  0.00    +0.000 C 
BRANCH  14  15
ATOM     15  C   UNL     1       1.171   2.458  20.660  0.00  0.00    +0.000 C 
BRANCH  15  16
ATOM     16 SE   UNL     1       2.502   3.708  21.357  0.00  0.00    +0.000 Se
BRANCH  16  18
ATOM     17  N   UNL     1       4.820   2.055  20.264  0.00  0.00    +0.000 NA
ATOM     18  C   UNL     1       3.943   2.682  20.684  0.00  0.00    +0.000 C 
ENDBRANCH  16  18
ENDBRANCH  15  16
ENDBRANCH  14  15
ENDBRANCH  13  14
ENDBRANCH  12  13
ENDBRANCH  11  12
ENDBRANCH   1  11
TORSDOF 8
ENDMDL
MODEL 2
REMARK VINA RESULT:      -5.6      3.673      4.737
REMARK  Name = 
REMARK  8 active torsions:
REMARK  status: ('A' for Active; 'I' for Inactive)
REMARK    1  A    between atoms: C_2  and  SE_3
REMARK    2  A    between atoms: SE_3  and  C_4
REMARK    3  A    between atoms: C_4  and  C_5
REMARK    4  A    between atoms: C_5  and  C_6
REMARK    5  A    between atoms: C_6  and  C_7
REMARK    6  A    between atoms: C_7  and  C_8
REMARK    7  A    between atoms: C_8  and  C_9
REMARK    8  A    between atoms: N_11  and  C_12
REMARK                            x       y       z     vdW  Elec       q    Type
REMARK                         _______ _______ _______ _____ _____    ______ ____
ROOT
ATOM      1  C   UNL     1       7.269   5.311  16.776  0.00  0.00    +0.000 C 
ATOM      2  O   UNL     1       8.036   4.363  16.787  0.00  0.00    +0.000 OA
ATOM      3  N   UNL     1       6.605   5.684  15.639  0.00  0.00    +0.000 N 
ATOM      4  H   UNL     1       6.046   6.549  15.689  0.00  0.00    +0.000 HD
ENDROOT
BRANCH   3   5
ATOM      5  C   UNL     1       6.660   5.019  14.365  0.00  0.00    +0.000 A 
ATOM      6  C   UNL     1       7.622   5.312  13.367  0.00  0.00    +0.000 A 
ATOM      7  C   UNL     1       7.618   4.628  12.149  0.00  0.00    +0.000 A 
ATOM      8  C   UNL     1       6.663   3.646  11.896  0.00  0.00    +0.000 A 
ATOM      9  C   UNL     1       5.714   3.332  12.870  0.00  0.00    +0.000 A 
ATOM     10  C   UNL     1       5.716   4.005  14.096  0.00  0.00    +0.000 A 
ENDBRANCH   3   5
BRANCH   1  11
ATOM     11  C   UNL     1       7.109   6.100  18.053  0.00  0.00    +0.000 C 
BRANCH  11  12
ATOM     12  C   UNL     1       6.272   5.330  19.080  0.00  0.00    +0.000 C 
BRANCH  12  13
ATOM     13  C   UNL     1       5.068   4.647  18.418  0.00  0.00    +0.000 C 
BRANCH  13  14
ATOM     14  C   UNL     1       4.491   3.571  19.345  0.00  0.00    +0.000 C 
BRANCH  14  15
ATOM     15  C   UNL     1       3.111   3.095  18.890  0.00  0.00    +0.000 C 
BRANCH  15  16
ATOM     16 SE   UNL     1       1.761   4.255  19.697  0.00  0.00    +0.000 Se
BRANCH  16  18
ATOM     17  N   UNL     1       1.543   2.511  22.190  0.00  0.00    +0.000 NA
ATOM     18  C   UNL     1       1.628   3.168  21.242  0.00  0.00    +0.000 C 
ENDBRANCH  16  18
ENDBRANCH  15  16
ENDBRANCH  14  15
ENDBRANCH  13  14
ENDBRANCH  12  13
ENDBRANCH  11  12
ENDBRANCH   1  11
TORSDOF 8
ENDMDL
MODEL 3
REMARK VINA RESULT:      -5.6      4.085      6.502
REMARK  Name = 
REMARK  8 active torsions:
REMARK  status: ('A' for Active; 'I' for Inactive)
REMARK    1  A    between atoms: C_2  and  SE_3
REMARK    2  A    between atoms: SE_3  and  C_4
REMARK    3  A    between atoms: C_4  and  C_5
REMARK    4  A    between atoms: C_5  and  C_6
REMARK    5  A    between atoms: C_6  and  C_7
REMARK    6  A    between atoms: C_7  and  C_8
REMARK    7  A    between atoms: C_8  and  C_9
REMARK    8  A    between atoms: N_11  and  C_12
REMARK                            x       y       z     vdW  Elec       q    Type
REMARK                         _______ _______ _______ _____ _____    ______ ____
ROOT
ATOM      1  C   UNL     1       5.655   4.552  18.334  0.00  0.00    +0.000 C 
ATOM      2  O   UNL     1       5.594   5.510  19.085  0.00  0.00    +0.000 OA
ATOM      3  N   UNL     1       4.745   3.531  18.396  0.00  0.00    +0.000 N 
ATOM      4  H   UNL     1       4.918   2.715  17.790  0.00  0.00    +0.000 HD
ENDROOT
BRANCH   3   5
ATOM      5  C   UNL     1       3.604   3.461  19.271  0.00  0.00    +0.000 A 
ATOM      6  C   UNL     1       2.379   4.126  19.018  0.00  0.00    +0.000 A 
ATOM      7  C   UNL     1       1.310   4.016  19.911  0.00  0.00    +0.000 A 
ATOM      8  C   UNL     1       1.436   3.251  21.069  0.00  0.00    +0.000 A 
ATOM      9  C   UNL     1       2.630   2.577  21.331  0.00  0.00    +0.000 A 
ATOM     10  C   UNL     1       3.702   2.674  20.437  0.00  0.00    +0.000 A 
ENDBRANCH   3   5
BRANCH   1  11
ATOM     11  C   UNL     1       6.803   4.498  17.355  0.00  0.00    +0.000 C 
BRANCH  11  12
ATOM     12  C   UNL     1       6.716   5.637  16.335  0.00  0.00    +0.000 C 
BRANCH  12  13
ATOM     13  C   UNL     1       5.714   5.311  15.219  0.00  0.00    +0.000 C 
BRANCH  13  14
ATOM     14  C   UNL     1       5.950   3.891  14.690  0.00  0.00    +0.000 C 
BRANCH  14  15
ATOM     15  C   UNL     1       6.441   3.889  13.242  0.00  0.00    +0.000 C 
BRANCH  15  16
ATOM     16 SE   UNL     1       4.948   3.396  12.084  0.00  0.00    +0.000 Se
BRANCH  16  18
ATOM     17  N   UNL     1       6.390   0.925  11.028  0.00  0.00    +0.000 NA
ATOM     18  C   UNL     1       5.845   1.862  11.434  0.00  0.00    +0.000 C 
ENDBRANCH  16  18
ENDBRANCH  15  16
ENDBRANCH  14  15
ENDBRANCH  13  14
ENDBRANCH  12  13
ENDBRANCH  11  12
ENDBRANCH   1  11
TORSDOF 8
ENDMDL
MODEL 4
REMARK VINA RESULT:      -5.6      4.043      6.600
REMARK  Name = 
REMARK  8 active torsions:
REMARK  status: ('A' for Active; 'I' for Inactive)
REMARK    1  A    between atoms: C_2  and  SE_3
REMARK    2  A    between atoms: SE_3  and  C_4
REMARK    3  A    between atoms: C_4  and  C_5
REMARK    4  A    between atoms: C_5  and  C_6
REMARK    5  A    between atoms: C_6  and  C_7
REMARK    6  A    between atoms: C_7  and  C_8
REMARK    7  A    between atoms: C_8  and  C_9
REMARK    8  A    between atoms: N_11  and  C_12
REMARK                            x       y       z     vdW  Elec       q    Type
REMARK                         _______ _______ _______ _____ _____    ______ ____
ROOT
ATOM      1  C   UNL     1       5.673   4.752  18.357  0.00  0.00    +0.000 C 
ATOM      2  O   UNL     1       5.104   5.802  18.597  0.00  0.00    +0.000 OA
ATOM      3  N   UNL     1       5.050   3.544  18.519  0.00  0.00    +0.000 N 
ATOM      4  H   UNL     1       5.627   2.700  18.383  0.00  0.00    +0.000 HD
ENDROOT
BRANCH   3   5
ATOM      5  C   UNL     1       3.684   3.339  18.920  0.00  0.00    +0.000 A 
ATOM      6  C   UNL     1       3.299   2.948  20.226  0.00  0.00    +0.000 A 
ATOM      7  C   UNL     1       1.952   2.765  20.549  0.00  0.00    +0.000 A 
ATOM      8  C   UNL     1       0.965   2.962  19.586  0.00  0.00    +0.000 A 
ATOM      9  C   UNL     1       1.320   3.359  18.296  0.00  0.00    +0.000 A 
ATOM     10  C   UNL     1       2.666   3.554  17.967  0.00  0.00    +0.000 A 
ENDBRANCH   3   5
BRANCH   1  11
ATOM     11  C   UNL     1       7.117   4.819  17.919  0.00  0.00    +0.000 C 
BRANCH  11  12
ATOM     12  C   UNL     1       7.271   4.404  16.452  0.00  0.00    +0.000 C 
BRANCH  12  13
ATOM     13  C   UNL     1       6.328   5.205  15.544  0.00  0.00    +0.000 C 
BRANCH  13  14
ATOM     14  C   UNL     1       5.484   4.257  14.684  0.00  0.00    +0.000 C 
BRANCH  14  15
ATOM     15  C   UNL     1       6.220   3.815  13.420  0.00  0.00    +0.000 C 
BRANCH  15  16
ATOM     16 SE   UNL     1       4.894   3.366  12.057  0.00  0.00    +0.000 Se
BRANCH  16  18
ATOM     17  N   UNL     1       6.534   0.998  11.054  0.00  0.00    +0.000 NA
ATOM     18  C   UNL     1       5.911   1.897  11.430  0.00  0.00    +0.000 C 
ENDBRANCH  16  18
ENDBRANCH  15  16
ENDBRANCH  14  15
ENDBRANCH  13  14
ENDBRANCH  12  13
ENDBRANCH  11  12
ENDBRANCH   1  11
TORSDOF 8
ENDMDL
MODEL 5
REMARK VINA RESULT:      -5.6      3.062      4.717
REMARK  Name = 
REMARK  8 active torsions:
REMARK  status: ('A' for Active; 'I' for Inactive)
REMARK    1  A    between atoms: C_2  and  SE_3
REMARK    2  A    between atoms: SE_3  and  C_4
REMARK    3  A    between atoms: C_4  and  C_5
REMARK    4  A    between atoms: C_5  and  C_6
REMARK    5  A    between atoms: C_6  and  C_7
REMARK    6  A    between atoms: C_7  and  C_8
REMARK    7  A    between atoms: C_8  and  C_9
REMARK    8  A    between atoms: N_11  and  C_12
REMARK                            x       y       z     vdW  Elec       q    Type
REMARK                         _______ _______ _______ _____ _____    ______ ____
ROOT
ATOM      1  C   UNL     1       1.671   4.617  20.775  0.00  0.00    +0.000 C 
ATOM      2  O   UNL     1       0.589   4.542  20.219  0.00  0.00    +0.000 OA
ATOM      3  N   UNL     1       2.440   5.746  20.701  0.00  0.00    +0.000 N 
ATOM      4  H   UNL     1       3.380   5.698  21.120  0.00  0.00    +0.000 HD
ENDROOT
BRANCH   3   5
ATOM      5  C   UNL     1       2.085   6.974  20.041  0.00  0.00    +0.000 A 
ATOM      6  C   UNL     1       2.400   7.258  18.688  0.00  0.00    +0.000 A 
ATOM      7  C   UNL     1       2.027   8.473  18.109  0.00  0.00    +0.000 A 
ATOM      8  C   UNL     1       1.340   9.428  18.856  0.00  0.00    +0.000 A 
ATOM      9  C   UNL     1       1.009   9.164  20.186  0.00  0.00    +0.000 A 
ATOM     10  C   UNL     1       1.371   7.946  20.771  0.00  0.00    +0.000 A 
ENDBRANCH   3   5
BRANCH   1  11
ATOM     11  C   UNL     1       2.167   3.397  21.514  0.00  0.00    +0.000 C 
BRANCH  11  12
ATOM     12  C   UNL     1       3.263   2.676  20.722  0.00  0.00    +0.000 C 
BRANCH  12  13
ATOM     13  C   UNL     1       2.812   2.386  19.284  0.00  0.00    +0.000 C 
BRANCH  13  14
ATOM     14  C   UNL     1       3.896   2.818  18.289  0.00  0.00    +0.000 C 
BRANCH  14  15
ATOM     15  C   UNL     1       4.891   3.798  18.909  0.00  0.00    +0.000 C 
BRANCH  15  16
ATOM     16 SE   UNL     1       5.199   5.251  17.640  0.00  0.00    +0.000 Se
BRANCH  16  18
ATOM     17  N   UNL     1       8.022   4.290  17.002  0.00  0.00    +0.000 NA
ATOM     18  C   UNL     1       6.949   4.649  17.243  0.00  0.00    +0.000 C 
ENDBRANCH  16  18
ENDBRANCH  15  16
ENDBRANCH  14  15
ENDBRANCH  13  14
ENDBRANCH  12  13
ENDBRANCH  11  12
ENDBRANCH   1  11
TORSDOF 8
ENDMDL
MODEL 6
REMARK VINA RESULT:      -5.6      3.825      6.503
REMARK  Name = 
REMARK  8 active torsions:
REMARK  status: ('A' for Active; 'I' for Inactive)
REMARK    1  A    between atoms: C_2  and  SE_3
REMARK    2  A    between atoms: SE_3  and  C_4
REMARK    3  A    between atoms: C_4  and  C_5
REMARK    4  A    between atoms: C_5  and  C_6
REMARK    5  A    between atoms: C_6  and  C_7
REMARK    6  A    between atoms: C_7  and  C_8
REMARK    7  A    between atoms: C_8  and  C_9
REMARK    8  A    between atoms: N_11  and  C_12
REMARK                            x       y       z     vdW  Elec       q    Type
REMARK                         _______ _______ _______ _____ _____    ______ ____
ROOT
ATOM      1  C   UNL     1       5.981   4.564  18.736  0.00  0.00    +0.000 C 
ATOM      2  O   UNL     1       5.816   5.410  19.598  0.00  0.00    +0.000 OA
ATOM      3  N   UNL     1       5.045   3.596  18.491  0.00  0.00    +0.000 N 
ATOM      4  H   UNL     1       5.298   2.864  17.811  0.00  0.00    +0.000 HD
ENDROOT
BRANCH   3   5
ATOM      5  C   UNL     1       3.766   3.467  19.138  0.00  0.00    +0.000 A 
ATOM      6  C   UNL     1       2.561   3.993  18.609  0.00  0.00    +0.000 A 
ATOM      7  C   UNL     1       1.352   3.834  19.290  0.00  0.00    +0.000 A 
ATOM      8  C   UNL     1       1.315   3.154  20.506  0.00  0.00    +0.000 A 
ATOM      9  C   UNL     1       2.486   2.617  21.040  0.00  0.00    +0.000 A 
ATOM     10  C   UNL     1       3.700   2.764  20.359  0.00  0.00    +0.000 A 
ENDBRANCH   3   5
BRANCH   1  11
ATOM     11  C   UNL     1       7.283   4.584  17.971  0.00  0.00    +0.000 C 
BRANCH  11  12
ATOM     12  C   UNL     1       7.291   5.698  16.920  0.00  0.00    +0.000 C 
BRANCH  12  13
ATOM     13  C   UNL     1       6.158   5.512  15.901  0.00  0.00    +0.000 C 
BRANCH  13  14
ATOM     14  C   UNL     1       6.516   4.402  14.905  0.00  0.00    +0.000 C 
BRANCH  14  15
ATOM     15  C   UNL     1       5.423   4.193  13.857  0.00  0.00    +0.000 C 
BRANCH  15  16
ATOM     16 SE   UNL     1       6.208   3.277  12.320  0.00  0.00    +0.000 Se
BRANCH  16  18
ATOM     17  N   UNL     1       3.532   3.122  10.863  0.00  0.00    +0.000 NA
ATOM     18  C   UNL     1       4.545   3.179  11.421  0.00  0.00    +0.000 C 
ENDBRANCH  16  18
ENDBRANCH  15  16
ENDBRANCH  14  15
ENDBRANCH  13  14
ENDBRANCH  12  13
ENDBRANCH  11  12
ENDBRANCH   1  11
TORSDOF 8
ENDMDL
MODEL 7
REMARK VINA RESULT:      -5.6      1.768      2.413
REMARK  Name = 
REMARK  8 active torsions:
REMARK  status: ('A' for Active; 'I' for Inactive)
REMARK    1  A    between atoms: C_2  and  SE_3
REMARK    2  A    between atoms: SE_3  and  C_4
REMARK    3  A    between atoms: C_4  and  C_5
REMARK    4  A    between atoms: C_5  and  C_6
REMARK    5  A    between atoms: C_6  and  C_7
REMARK    6  A    between atoms: C_7  and  C_8
REMARK    7  A    between atoms: C_8  and  C_9
REMARK    8  A    between atoms: N_11  and  C_12
REMARK                            x       y       z     vdW  Elec       q    Type
REMARK                         _______ _______ _______ _____ _____    ______ ____
ROOT
ATOM      1  C   UNL     1       2.951   6.189  19.195  0.00  0.00    +0.000 C 
ATOM      2  O   UNL     1       2.705   7.024  18.342  0.00  0.00    +0.000 OA
ATOM      3  N   UNL     1       4.038   5.362  19.098  0.00  0.00    +0.000 N 
ATOM      4  H   UNL     1       4.126   4.623  19.811  0.00  0.00    +0.000 HD
ENDROOT
BRANCH   3   5
ATOM      5  C   UNL     1       5.036   5.387  18.061  0.00  0.00    +0.000 A 
ATOM      6  C   UNL     1       6.278   6.059  18.182  0.00  0.00    +0.000 A 
ATOM      7  C   UNL     1       7.202   6.045  17.135  0.00  0.00    +0.000 A 
ATOM      8  C   UNL     1       6.913   5.369  15.951  0.00  0.00    +0.000 A 
ATOM      9  C   UNL     1       5.701   4.691  15.814  0.00  0.00    +0.000 A 
ATOM     10  C   UNL     1       4.774   4.693  16.862  0.00  0.00    +0.000 A 
ENDBRANCH   3   5
BRANCH   1  11
ATOM     11  C   UNL     1       1.986   6.056  20.348  0.00  0.00    +0.000 C 
BRANCH  11  12
ATOM     12  C   UNL     1       2.054   4.658  20.970  0.00  0.00    +0.000 C 
BRANCH  12  13
ATOM     13  C   UNL     1       0.894   3.777  20.485  0.00  0.00    +0.000 C 
BRANCH  13  14
ATOM     14  C   UNL     1       1.433   2.481  19.867  0.00  0.00    +0.000 C 
BRANCH  14  15
ATOM     15  C   UNL     1       1.910   2.683  18.428  0.00  0.00    +0.000 C 
BRANCH  15  16
ATOM     16 SE   UNL     1       3.456   1.529  18.122  0.00  0.00    +0.000 Se
BRANCH  16  18
ATOM     17  N   UNL     1       4.769   2.355  20.748  0.00  0.00    +0.000 NA
ATOM     18  C   UNL     1       4.268   2.038  19.754  0.00  0.00    +0.000 C 
ENDBRANCH  16  18
ENDBRANCH  15  16
ENDBRANCH  14  15
ENDBRANCH  13  14
ENDBRANCH  12  13
ENDBRANCH  11  12
ENDBRANCH   1  11
TORSDOF 8
ENDMDL
MODEL 8
REMARK VINA RESULT:      -5.6      3.838      7.384
REMARK  Name = 
REMARK  8 active torsions:
REMARK  status: ('A' for Active; 'I' for Inactive)
REMARK    1  A    between atoms: C_2  and  SE_3
REMARK    2  A    between atoms: SE_3  and  C_4
REMARK    3  A    between atoms: C_4  and  C_5
REMARK    4  A    between atoms: C_5  and  C_6
REMARK    5  A    between atoms: C_6  and  C_7
REMARK    6  A    between atoms: C_7  and  C_8
REMARK    7  A    between atoms: C_8  and  C_9
REMARK    8  A    between atoms: N_11  and  C_12
REMARK                            x       y       z     vdW  Elec       q    Type
REMARK                         _______ _______ _______ _____ _____    ______ ____
ROOT
ATOM      1  C   UNL     1       6.060   4.867  18.595  0.00  0.00    +0.000 C 
ATOM      2  O   UNL     1       5.642   5.287  19.660  0.00  0.00    +0.000 OA
ATOM      3  N   UNL     1       5.323   4.013  17.821  0.00  0.00    +0.000 N 
ATOM      4  H   UNL     1       5.783   3.630  16.981  0.00  0.00    +0.000 HD
ENDROOT
BRANCH   3   5
ATOM      5  C   UNL     1       3.989   3.549  18.099  0.00  0.00    +0.000 A 
ATOM      6  C   UNL     1       3.704   2.374  18.838  0.00  0.00    +0.000 A 
ATOM      7  C   UNL     1       2.385   1.980  19.070  0.00  0.00    +0.000 A 
ATOM      8  C   UNL     1       1.326   2.738  18.574  0.00  0.00    +0.000 A 
ATOM      9  C   UNL     1       1.583   3.906  17.854  0.00  0.00    +0.000 A 
ATOM     10  C   UNL     1       2.902   4.313  17.625  0.00  0.00    +0.000 A 
ENDBRANCH   3   5
BRANCH   1  11
ATOM     11  C   UNL     1       7.450   5.279  18.174  0.00  0.00    +0.000 C 
BRANCH  11  12
ATOM     12  C   UNL     1       7.406   6.234  16.977  0.00  0.00    +0.000 C 
BRANCH  12  13
ATOM     13  C   UNL     1       7.078   7.667  17.418  0.00  0.00    +0.000 C 
BRANCH  13  14
ATOM     14  C   UNL     1       8.220   8.236  18.268  0.00  0.00    +0.000 C 
BRANCH  14  15
ATOM     15  C   UNL     1       8.498   9.706  17.953  0.00  0.00    +0.000 C 
BRANCH  15  16
ATOM     16 SE   UNL     1       9.431  10.499  19.475  0.00  0.00    +0.000 Se
BRANCH  16  18
ATOM     17  N   UNL     1       9.107  13.327  18.380  0.00  0.00    +0.000 NA
ATOM     18  C   UNL     1       9.234  12.253  18.792  0.00  0.00    +0.000 C 
ENDBRANCH  16  18
ENDBRANCH  15  16
ENDBRANCH  14  15
ENDBRANCH  13  14
ENDBRANCH  12  13
ENDBRANCH  11  12
ENDBRANCH   1  11
TORSDOF 8
ENDMDL
MODEL 9
REMARK VINA RESULT:      -5.5      3.581      4.525
REMARK  Name = 
REMARK  8 active torsions:
REMARK  status: ('A' for Active; 'I' for Inactive)
REMARK    1  A    between atoms: C_2  and  SE_3
REMARK    2  A    between atoms: SE_3  and  C_4
REMARK    3  A    between atoms: C_4  and  C_5
REMARK    4  A    between atoms: C_5  and  C_6
REMARK    5  A    between atoms: C_6  and  C_7
REMARK    6  A    between atoms: C_7  and  C_8
REMARK    7  A    between atoms: C_8  and  C_9
REMARK    8  A    between atoms: N_11  and  C_12
REMARK                            x       y       z     vdW  Elec       q    Type
REMARK                         _______ _______ _______ _____ _____    ______ ____
ROOT
ATOM      1  C   UNL     1       6.823   5.008  16.977  0.00  0.00    +0.000 C 
ATOM      2  O   UNL     1       7.877   4.397  16.930  0.00  0.00    +0.000 OA
ATOM      3  N   UNL     1       6.080   5.246  15.854  0.00  0.00    +0.000 N 
ATOM      4  H   UNL     1       5.249   5.847  15.963  0.00  0.00    +0.000 HD
ENDROOT
BRANCH   3   5
ATOM      5  C   UNL     1       6.380   4.789  14.523  0.00  0.00    +0.000 A 
ATOM      6  C   UNL     1       5.653   3.769  13.860  0.00  0.00    +0.000 A 
ATOM      7  C   UNL     1       5.999   3.372  12.566  0.00  0.00    +0.000 A 
ATOM      8  C   UNL     1       7.070   3.973  11.908  0.00  0.00    +0.000 A 
ATOM      9  C   UNL     1       7.791   4.988  12.537  0.00  0.00    +0.000 A 
ATOM     10  C   UNL     1       7.446   5.399  13.829  0.00  0.00    +0.000 A 
ENDBRANCH   3   5
BRANCH   1  11
ATOM     11  C   UNL     1       6.381   5.543  18.319  0.00  0.00    +0.000 C 
BRANCH  11  12
ATOM     12  C   UNL     1       5.707   4.451  19.156  0.00  0.00    +0.000 C 
BRANCH  12  13
ATOM     13  C   UNL     1       4.247   4.244  18.729  0.00  0.00    +0.000 C 
BRANCH  13  14
ATOM     14  C   UNL     1       3.900   2.751  18.727  0.00  0.00    +0.000 C 
BRANCH  14  15
ATOM     15  C   UNL     1       2.410   2.504  18.495  0.00  0.00    +0.000 C 
BRANCH  15  16
ATOM     16 SE   UNL     1       1.401   3.908  19.406  0.00  0.00    +0.000 Se
BRANCH  16  18
ATOM     17  N   UNL     1       1.608   2.502  22.104  0.00  0.00    +0.000 NA
ATOM     18  C   UNL     1       1.535   3.037  21.081  0.00  0.00    +0.000 C 
ENDBRANCH  16  18
ENDBRANCH  15  16
ENDBRANCH  14  15
ENDBRANCH  13  14
ENDBRANCH  12  13
ENDBRANCH  11  12
ENDBRANCH   1  11
TORSDOF 8
ENDMDL
