MODEL 1
REMARK VINA RESULT:     -10.0      0.000      0.000
REMARK  Name = 
REMARK  2 active torsions:
REMARK  status: ('A' for Active; 'I' for Inactive)
REMARK    1  A    between atoms: C_7  and  C_8
REMARK    2  A    between atoms: C_18  and  C_19
REMARK                            x       y       z     vdW  Elec       q    Type
REMARK                         _______ _______ _______ _____ _____    ______ ____
ROOT
ATOM      1  C   UNL     1       2.143   7.897  18.657  0.00  0.00    +0.000 A 
ATOM      2  C   UNL     1       1.864   8.878  17.691  0.00  0.00    +0.000 A 
ATOM      3  C   UNL     1       1.048   9.988  17.985  0.00  0.00    +0.000 A 
ATOM      4  C   UNL     1       0.556  10.192  19.284  0.00  0.00    +0.000 A 
ATOM      5  C   UNL     1       1.030   9.345  20.297  0.00  0.00    +0.000 A 
ATOM      6  C   UNL     1       1.718   8.161  19.969  0.00  0.00    +0.000 A 
ATOM      7  C   UNL     1       0.893   9.771  21.746  0.00  0.00    +0.000 C 
ATOM      8  N   UNL     1       0.555  11.207  21.948  0.00  0.00    +0.000 NA
ATOM      9  C   UNL     1       1.462  12.180  21.288  0.00  0.00    +0.000 C 
ATOM     10  C   UNL     1       0.881  12.508  19.882  0.00  0.00    +0.000 C 
ATOM     11  C   UNL     1      -0.228  11.451  19.715  0.00  0.00    +0.000 C 
ATOM     12  C   UNL     1      -0.689  11.414  21.213  0.00  0.00    +0.000 C 
ENDROOT
BRANCH   1  19
ATOM     13  O   UNL     1       3.723   0.959  18.435  0.00  0.00    +0.000 OA
ATOM     14  C   UNL     1       3.659   2.173  18.326  0.00  0.00    +0.000 A 
ATOM     15  N   UNL     1       4.522   2.943  17.577  0.00  0.00    +0.000 N 
ATOM     16  C   UNL     1       4.131   4.249  17.697  0.00  0.00    +0.000 A 
ATOM     17  C   UNL     1       4.639   5.397  17.140  0.00  0.00    +0.000 A 
ATOM     18  C   UNL     1       3.979   6.603  17.467  0.00  0.00    +0.000 A 
ATOM     19  C   UNL     1       2.847   6.635  18.324  0.00  0.00    +0.000 A 
ATOM     20  C   UNL     1       2.382   5.415  18.862  0.00  0.00    +0.000 A 
ATOM     21  C   UNL     1       3.040   4.246  18.532  0.00  0.00    +0.000 A 
ATOM     22  O   UNL     1       2.697   2.974  18.964  0.00  0.00    +0.000 OA
ATOM     23  H   UNL     1       5.274   2.558  17.031  0.00  0.00    +0.000 HD
ENDBRANCH   1  19
BRANCH  11  24
ATOM     24  C   UNL     1      -1.556  11.705  18.995  0.00  0.00    +0.000 A 
ATOM     25  C   UNL     1      -2.646  12.319  19.625  0.00  0.00    +0.000 A 
ATOM     26  C   UNL     1      -3.947  12.135  19.136  0.00  0.00    +0.000 A 
ATOM     27  C   UNL     1      -4.185  11.345  18.006  0.00  0.00    +0.000 A 
ATOM     28 CL   UNL     1      -5.827  11.052  17.554  0.00  0.00    +0.000 Cl
ATOM     29  C   UNL     1      -3.108  10.791  17.318  0.00  0.00    +0.000 A 
ATOM     30 CL   UNL     1      -3.313   9.755  15.949  0.00  0.00    +0.000 Cl
ATOM     31  C   UNL     1      -1.806  10.998  17.790  0.00  0.00    +0.000 A 
ENDBRANCH  11  24
TORSDOF 2
ENDMDL
MODEL 2
REMARK VINA RESULT:      -9.9      1.746      2.378
REMARK  Name = 
REMARK  2 active torsions:
REMARK  status: ('A' for Active; 'I' for Inactive)
REMARK    1  A    between atoms: C_7  and  C_8
REMARK    2  A    between atoms: C_18  and  C_19
REMARK                            x       y       z     vdW  Elec       q    Type
REMARK                         _______ _______ _______ _____ _____    ______ ____
ROOT
ATOM      1  C   UNL     1       2.135   7.965  18.522  0.00  0.00    +0.000 A 
ATOM      2  C   UNL     1       1.557   8.812  17.562  0.00  0.00    +0.000 A 
ATOM      3  C   UNL     1       0.602   9.786  17.920  0.00  0.00    +0.000 A 
ATOM      4  C   UNL     1       0.263   9.996  19.266  0.00  0.00    +0.000 A 
ATOM      5  C   UNL     1       1.015   9.317  20.237  0.00  0.00    +0.000 A 
ATOM      6  C   UNL     1       1.852   8.247  19.868  0.00  0.00    +0.000 A 
ATOM      7  C   UNL     1       1.002   9.817  21.669  0.00  0.00    +0.000 C 
ATOM      8  N   UNL     1       0.444  11.185  21.851  0.00  0.00    +0.000 NA
ATOM      9  C   UNL     1       1.064  12.248  21.019  0.00  0.00    +0.000 C 
ATOM     10  C   UNL     1       0.247  12.370  19.700  0.00  0.00    +0.000 C 
ATOM     11  C   UNL     1      -0.667  11.131  19.747  0.00  0.00    +0.000 C 
ATOM     12  C   UNL     1      -0.905  11.124  21.297  0.00  0.00    +0.000 C 
ENDROOT
BRANCH   1  19
ATOM     13  O   UNL     1       7.810   4.312  16.258  0.00  0.00    +0.000 OA
ATOM     14  C   UNL     1       6.733   4.708  16.673  0.00  0.00    +0.000 A 
ATOM     15  N   UNL     1       5.690   3.894  17.058  0.00  0.00    +0.000 N 
ATOM     16  C   UNL     1       4.660   4.695  17.465  0.00  0.00    +0.000 A 
ATOM     17  C   UNL     1       3.415   4.384  17.956  0.00  0.00    +0.000 A 
ATOM     18  C   UNL     1       2.581   5.473  18.299  0.00  0.00    +0.000 A 
ATOM     19  C   UNL     1       3.001   6.821  18.149  0.00  0.00    +0.000 A 
ATOM     20  C   UNL     1       4.294   7.064  17.635  0.00  0.00    +0.000 A 
ATOM     21  C   UNL     1       5.095   5.988  17.306  0.00  0.00    +0.000 A 
ATOM     22  O   UNL     1       6.386   6.062  16.807  0.00  0.00    +0.000 OA
ATOM     23  H   UNL     1       5.742   2.888  17.051  0.00  0.00    +0.000 HD
ENDBRANCH   1  19
BRANCH  11  24
ATOM     24  C   UNL     1      -2.104  11.103  19.219  0.00  0.00    +0.000 A 
ATOM     25  C   UNL     1      -2.430  10.588  17.958  0.00  0.00    +0.000 A 
ATOM     26  C   UNL     1      -3.617  10.973  17.317  0.00  0.00    +0.000 A 
ATOM     27  C   UNL     1      -4.505  11.868  17.925  0.00  0.00    +0.000 A 
ATOM     28 CL   UNL     1      -5.871  12.401  17.011  0.00  0.00    +0.000 Cl
ATOM     29  C   UNL     1      -4.238  12.328  19.213  0.00  0.00    +0.000 A 
ATOM     30 CL   UNL     1      -5.248  13.481  20.014  0.00  0.00    +0.000 Cl
ATOM     31  C   UNL     1      -3.067  11.923  19.863  0.00  0.00    +0.000 A 
ENDBRANCH  11  24
TORSDOF 2
ENDMDL
MODEL 3
REMARK VINA RESULT:      -9.9      7.174      9.873
REMARK  Name = 
REMARK  2 active torsions:
REMARK  status: ('A' for Active; 'I' for Inactive)
REMARK    1  A    between atoms: C_7  and  C_8
REMARK    2  A    between atoms: C_18  and  C_19
REMARK                            x       y       z     vdW  Elec       q    Type
REMARK                         _______ _______ _______ _____ _____    ______ ____
ROOT
ATOM      1  C   UNL     1       8.295   8.566  18.446  0.00  0.00    +0.000 A 
ATOM      2  C   UNL     1       8.522   7.380  19.163  0.00  0.00    +0.000 A 
ATOM      3  C   UNL     1       7.699   6.249  18.991  0.00  0.00    +0.000 A 
ATOM      4  C   UNL     1       6.674   6.246  18.031  0.00  0.00    +0.000 A 
ATOM      5  C   UNL     1       6.604   7.340  17.156  0.00  0.00    +0.000 A 
ATOM      6  C   UNL     1       7.326   8.518  17.430  0.00  0.00    +0.000 A 
ATOM      7  C   UNL     1       5.834   7.203  15.857  0.00  0.00    +0.000 C 
ATOM      8  N   UNL     1       5.489   5.806  15.476  0.00  0.00    +0.000 NA
ATOM      9  C   UNL     1       6.630   4.857  15.413  0.00  0.00    +0.000 C 
ATOM     10  C   UNL     1       6.767   4.171  16.803  0.00  0.00    +0.000 C 
ATOM     11  C   UNL     1       5.823   5.004  17.691  0.00  0.00    +0.000 C 
ATOM     12  C   UNL     1       4.727   5.280  16.604  0.00  0.00    +0.000 C 
ENDROOT
BRANCH   1  19
ATOM     13  O   UNL     1      11.723  14.721  17.418  0.00  0.00    +0.000 OA
ATOM     14  C   UNL     1      11.181  13.712  17.840  0.00  0.00    +0.000 A 
ATOM     15  N   UNL     1      11.053  13.386  19.173  0.00  0.00    +0.000 N 
ATOM     16  C   UNL     1      10.390  12.192  19.251  0.00  0.00    +0.000 A 
ATOM     17  C   UNL     1       9.997  11.448  20.338  0.00  0.00    +0.000 A 
ATOM     18  C   UNL     1       9.308  10.245  20.063  0.00  0.00    +0.000 A 
ATOM     19  C   UNL     1       9.030   9.821  18.737  0.00  0.00    +0.000 A 
ATOM     20  C   UNL     1       9.468  10.636  17.670  0.00  0.00    +0.000 A 
ATOM     21  C   UNL     1      10.139  11.808  17.957  0.00  0.00    +0.000 A 
ATOM     22  O   UNL     1      10.615  12.718  17.025  0.00  0.00    +0.000 OA
ATOM     23  H   UNL     1      11.381  13.976  19.920  0.00  0.00    +0.000 HD
ENDBRANCH   1  19
BRANCH  11  24
ATOM     24  C   UNL     1       4.981   4.423  18.831  0.00  0.00    +0.000 A 
ATOM     25  C   UNL     1       4.860   3.045  19.048  0.00  0.00    +0.000 A 
ATOM     26  C   UNL     1       3.770   2.530  19.764  0.00  0.00    +0.000 A 
ATOM     27  C   UNL     1       2.786   3.379  20.284  0.00  0.00    +0.000 A 
ATOM     28 CL   UNL     1       1.403   2.656  21.027  0.00  0.00    +0.000 Cl
ATOM     29  C   UNL     1       2.929   4.758  20.148  0.00  0.00    +0.000 A 
ATOM     30 CL   UNL     1       1.733   5.875  20.706  0.00  0.00    +0.000 Cl
ATOM     31  C   UNL     1       4.032   5.273  19.457  0.00  0.00    +0.000 A 
ENDBRANCH  11  24
TORSDOF 2
ENDMDL
MODEL 4
REMARK VINA RESULT:      -9.9      4.846      9.026
REMARK  Name = 
REMARK  2 active torsions:
REMARK  status: ('A' for Active; 'I' for Inactive)
REMARK    1  A    between atoms: C_7  and  C_8
REMARK    2  A    between atoms: C_18  and  C_19
REMARK                            x       y       z     vdW  Elec       q    Type
REMARK                         _______ _______ _______ _____ _____    ______ ____
ROOT
ATOM      1  C   UNL     1       1.574   8.597  19.345  0.00  0.00    +0.000 A 
ATOM      2  C   UNL     1       1.836   8.314  17.995  0.00  0.00    +0.000 A 
ATOM      3  C   UNL     1       2.442   7.103  17.602  0.00  0.00    +0.000 A 
ATOM      4  C   UNL     1       2.725   6.104  18.547  0.00  0.00    +0.000 A 
ATOM      5  C   UNL     1       2.246   6.292  19.852  0.00  0.00    +0.000 A 
ATOM      6  C   UNL     1       1.781   7.555  20.264  0.00  0.00    +0.000 A 
ATOM      7  C   UNL     1       2.130   5.097  20.779  0.00  0.00    +0.000 C 
ATOM      8  N   UNL     1       2.232   3.771  20.109  0.00  0.00    +0.000 NA
ATOM      9  C   UNL     1       1.292   3.546  18.982  0.00  0.00    +0.000 C 
ATOM     10  C   UNL     1       2.001   3.977  17.665  0.00  0.00    +0.000 C 
ATOM     11  C   UNL     1       3.260   4.703  18.176  0.00  0.00    +0.000 C 
ATOM     12  C   UNL     1       3.520   3.788  19.423  0.00  0.00    +0.000 C 
ENDROOT
BRANCH   1  19
ATOM     13  O   UNL     1      -1.126  13.690  23.523  0.00  0.00    +0.000 OA
ATOM     14  C   UNL     1      -0.643  13.005  22.636  0.00  0.00    +0.000 A 
ATOM     15  N   UNL     1      -0.254  13.475  21.401  0.00  0.00    +0.000 N 
ATOM     16  C   UNL     1       0.239  12.419  20.686  0.00  0.00    +0.000 A 
ATOM     17  C   UNL     1       0.769  12.356  19.419  0.00  0.00    +0.000 A 
ATOM     18  C   UNL     1       1.204  11.086  18.979  0.00  0.00    +0.000 A 
ATOM     19  C   UNL     1       1.105   9.930  19.798  0.00  0.00    +0.000 A 
ATOM     20  C   UNL     1       0.546  10.070  21.087  0.00  0.00    +0.000 A 
ATOM     21  C   UNL     1       0.127  11.319  21.501  0.00  0.00    +0.000 A 
ATOM     22  O   UNL     1      -0.425  11.621  22.737  0.00  0.00    +0.000 OA
ATOM     23  H   UNL     1      -0.315  14.444  21.135  0.00  0.00    +0.000 HD
ENDBRANCH   1  19
BRANCH  11  24
ATOM     24  C   UNL     1       4.622   4.658  17.477  0.00  0.00    +0.000 A 
ATOM     25  C   UNL     1       5.684   5.492  17.848  0.00  0.00    +0.000 A 
ATOM     26  C   UNL     1       6.723   5.765  16.947  0.00  0.00    +0.000 A 
ATOM     27  C   UNL     1       6.728   5.204  15.664  0.00  0.00    +0.000 A 
ATOM     28 CL   UNL     1       7.966   5.703  14.567  0.00  0.00    +0.000 Cl
ATOM     29  C   UNL     1       5.723   4.309  15.304  0.00  0.00    +0.000 A 
ATOM     30 CL   UNL     1       5.619   3.617  13.722  0.00  0.00    +0.000 Cl
ATOM     31  C   UNL     1       4.701   4.015  16.214  0.00  0.00    +0.000 A 
ENDBRANCH  11  24
TORSDOF 2
ENDMDL
MODEL 5
REMARK VINA RESULT:      -9.8      1.156      1.626
REMARK  Name = 
REMARK  2 active torsions:
REMARK  status: ('A' for Active; 'I' for Inactive)
REMARK    1  A    between atoms: C_7  and  C_8
REMARK    2  A    between atoms: C_18  and  C_19
REMARK                            x       y       z     vdW  Elec       q    Type
REMARK                         _______ _______ _______ _____ _____    ______ ____
ROOT
ATOM      1  C   UNL     1       2.138   7.919  18.934  0.00  0.00    +0.000 A 
ATOM      2  C   UNL     1       1.628   8.605  17.820  0.00  0.00    +0.000 A 
ATOM      3  C   UNL     1       0.683   9.641  17.964  0.00  0.00    +0.000 A 
ATOM      4  C   UNL     1       0.285  10.076  19.238  0.00  0.00    +0.000 A 
ATOM      5  C   UNL     1       0.971   9.554  20.345  0.00  0.00    +0.000 A 
ATOM      6  C   UNL     1       1.798   8.423  20.200  0.00  0.00    +0.000 A 
ATOM      7  C   UNL     1       0.902  10.283  21.672  0.00  0.00    +0.000 C 
ATOM      8  N   UNL     1       0.370  11.671  21.599  0.00  0.00    +0.000 NA
ATOM      9  C   UNL     1       1.056  12.572  20.638  0.00  0.00    +0.000 C 
ATOM     10  C   UNL     1       0.307  12.489  19.276  0.00  0.00    +0.000 C 
ATOM     11  C   UNL     1      -0.639  11.290  19.478  0.00  0.00    +0.000 C 
ATOM     12  C   UNL     1      -0.952  11.543  20.994  0.00  0.00    +0.000 C 
ENDROOT
BRANCH   1  19
ATOM     13  O   UNL     1       4.893   1.477  20.199  0.00  0.00    +0.000 OA
ATOM     14  C   UNL     1       4.591   2.588  19.793  0.00  0.00    +0.000 A 
ATOM     15  N   UNL     1       5.158   3.209  18.701  0.00  0.00    +0.000 N 
ATOM     16  C   UNL     1       4.563   4.431  18.557  0.00  0.00    +0.000 A 
ATOM     17  C   UNL     1       4.750   5.422  17.623  0.00  0.00    +0.000 A 
ATOM     18  C   UNL     1       3.948   6.577  17.757  0.00  0.00    +0.000 A 
ATOM     19  C   UNL     1       2.993   6.714  18.799  0.00  0.00    +0.000 A 
ATOM     20  C   UNL     1       2.857   5.657  19.724  0.00  0.00    +0.000 A 
ATOM     21  C   UNL     1       3.650   4.535  19.578  0.00  0.00    +0.000 A 
ATOM     22  O   UNL     1       3.624   3.412  20.391  0.00  0.00    +0.000 OA
ATOM     23  H   UNL     1       5.864   2.778  18.126  0.00  0.00    +0.000 HD
ENDBRANCH   1  19
BRANCH  11  24
ATOM     24  C   UNL     1      -2.049  11.199  18.888  0.00  0.00    +0.000 A 
ATOM     25  C   UNL     1      -2.280  10.940  17.531  0.00  0.00    +0.000 A 
ATOM     26  C   UNL     1      -3.495  11.305  16.934  0.00  0.00    +0.000 A 
ATOM     27  C   UNL     1      -4.505  11.924  17.678  0.00  0.00    +0.000 A 
ATOM     28 CL   UNL     1      -5.912  12.471  16.836  0.00  0.00    +0.000 Cl
ATOM     29  C   UNL     1      -4.327  12.119  19.046  0.00  0.00    +0.000 A 
ATOM     30 CL   UNL     1      -5.496  12.929  20.029  0.00  0.00    +0.000 Cl
ATOM     31  C   UNL     1      -3.125  11.729  19.648  0.00  0.00    +0.000 A 
ENDBRANCH  11  24
TORSDOF 2
ENDMDL
MODEL 6
REMARK VINA RESULT:      -9.8      4.787      9.261
REMARK  Name = 
REMARK  2 active torsions:
REMARK  status: ('A' for Active; 'I' for Inactive)
REMARK    1  A    between atoms: C_7  and  C_8
REMARK    2  A    between atoms: C_18  and  C_19
REMARK                            x       y       z     vdW  Elec       q    Type
REMARK                         _______ _______ _______ _____ _____    ______ ____
ROOT
ATOM      1  C   UNL     1       1.849   7.394  19.667  0.00  0.00    +0.000 A 
ATOM      2  C   UNL     1       2.042   7.333  18.278  0.00  0.00    +0.000 A 
ATOM      3  C   UNL     1       2.703   6.243  17.675  0.00  0.00    +0.000 A 
ATOM      4  C   UNL     1       3.115   5.142  18.442  0.00  0.00    +0.000 A 
ATOM      5  C   UNL     1       2.710   5.098  19.784  0.00  0.00    +0.000 A 
ATOM      6  C   UNL     1       2.187   6.248  20.406  0.00  0.00    +0.000 A 
ATOM      7  C   UNL     1       2.737   3.776  20.525  0.00  0.00    +0.000 C 
ATOM      8  N   UNL     1       2.887   2.574  19.660  0.00  0.00    +0.000 NA
ATOM      9  C   UNL     1       1.894   2.444  18.563  0.00  0.00    +0.000 C 
ATOM     10  C   UNL     1       2.484   3.116  17.290  0.00  0.00    +0.000 C 
ATOM     11  C   UNL     1       3.720   3.856  17.837  0.00  0.00    +0.000 C 
ATOM     12  C   UNL     1       4.124   2.792  18.915  0.00  0.00    +0.000 C 
ENDROOT
BRANCH   1  19
ATOM     13  O   UNL     1      -0.731  13.965  20.589  0.00  0.00    +0.000 OA
ATOM     14  C   UNL     1      -0.309  12.824  20.684  0.00  0.00    +0.000 A 
ATOM     15  N   UNL     1      -0.208  12.118  21.863  0.00  0.00    +0.000 N 
ATOM     16  C   UNL     1       0.301  10.882  21.570  0.00  0.00    +0.000 A 
ATOM     17  C   UNL     1       0.574   9.805  22.377  0.00  0.00    +0.000 A 
ATOM     18  C   UNL     1       1.092   8.654  21.741  0.00  0.00    +0.000 A 
ATOM     19  C   UNL     1       1.319   8.605  20.341  0.00  0.00    +0.000 A 
ATOM     20  C   UNL     1       1.018   9.752  19.574  0.00  0.00    +0.000 A 
ATOM     21  C   UNL     1       0.512  10.867  20.213  0.00  0.00    +0.000 A 
ATOM     22  O   UNL     1       0.154  12.059  19.600  0.00  0.00    +0.000 OA
ATOM     23  H   UNL     1      -0.501  12.484  22.753  0.00  0.00    +0.000 HD
ENDBRANCH   1  19
BRANCH  11  24
ATOM     24  C   UNL     1       5.034   4.020  17.066  0.00  0.00    +0.000 A 
ATOM     25  C   UNL     1       6.045   4.895  17.483  0.00  0.00    +0.000 A 
ATOM     26  C   UNL     1       6.998   5.368  16.570  0.00  0.00    +0.000 A 
ATOM     27  C   UNL     1       6.968   4.971  15.229  0.00  0.00    +0.000 A 
ATOM     28 CL   UNL     1       8.088   5.710  14.140  0.00  0.00    +0.000 Cl
ATOM     29  C   UNL     1       6.020   4.040  14.811  0.00  0.00    +0.000 A 
ATOM     30 CL   UNL     1       5.872   3.540  13.162  0.00  0.00    +0.000 Cl
ATOM     31  C   UNL     1       5.086   3.546  15.729  0.00  0.00    +0.000 A 
ENDBRANCH  11  24
TORSDOF 2
ENDMDL
MODEL 7
REMARK VINA RESULT:      -9.8      1.516      1.847
REMARK  Name = 
REMARK  2 active torsions:
REMARK  status: ('A' for Active; 'I' for Inactive)
REMARK    1  A    between atoms: C_7  and  C_8
REMARK    2  A    between atoms: C_18  and  C_19
REMARK                            x       y       z     vdW  Elec       q    Type
REMARK                         _______ _______ _______ _____ _____    ______ ____
ROOT
ATOM      1  C   UNL     1       2.303   7.999  18.503  0.00  0.00    +0.000 A 
ATOM      2  C   UNL     1       2.036   9.077  17.643  0.00  0.00    +0.000 A 
ATOM      3  C   UNL     1       1.158  10.115  18.016  0.00  0.00    +0.000 A 
ATOM      4  C   UNL     1       0.588  10.145  19.298  0.00  0.00    +0.000 A 
ATOM      5  C   UNL     1       1.042   9.202  20.232  0.00  0.00    +0.000 A 
ATOM      6  C   UNL     1       1.797   8.090  19.810  0.00  0.00    +0.000 A 
ATOM      7  C   UNL     1       0.808   9.448  21.709  0.00  0.00    +0.000 C 
ATOM      8  N   UNL     1       0.399  10.836  22.057  0.00  0.00    +0.000 NA
ATOM      9  C   UNL     1       1.298  11.913  21.569  0.00  0.00    +0.000 C 
ATOM     10  C   UNL     1       0.780  12.384  20.179  0.00  0.00    +0.000 C 
ATOM     11  C   UNL     1      -0.271  11.315  19.825  0.00  0.00    +0.000 C 
ATOM     12  C   UNL     1      -0.811  11.084  21.279  0.00  0.00    +0.000 C 
ENDROOT
BRANCH   1  19
ATOM     13  O   UNL     1       7.724   4.017  16.169  0.00  0.00    +0.000 OA
ATOM     14  C   UNL     1       6.668   4.479  16.571  0.00  0.00    +0.000 A 
ATOM     15  N   UNL     1       5.536   3.740  16.837  0.00  0.00    +0.000 N 
ATOM     16  C   UNL     1       4.564   4.601  17.269  0.00  0.00    +0.000 A 
ATOM     17  C   UNL     1       3.272   4.372  17.677  0.00  0.00    +0.000 A 
ATOM     18  C   UNL     1       2.527   5.503  18.079  0.00  0.00    +0.000 A 
ATOM     19  C   UNL     1       3.078   6.812  18.067  0.00  0.00    +0.000 A 
ATOM     20  C   UNL     1       4.412   6.971  17.633  0.00  0.00    +0.000 A 
ATOM     21  C   UNL     1       5.125   5.855  17.244  0.00  0.00    +0.000 A 
ATOM     22  O   UNL     1       6.442   5.845  16.809  0.00  0.00    +0.000 OA
ATOM     23  H   UNL     1       5.495   2.739  16.743  0.00  0.00    +0.000 HD
ENDBRANCH   1  19
BRANCH  11  24
ATOM     24  C   UNL     1      -1.568  11.605  19.063  0.00  0.00    +0.000 A 
ATOM     25  C   UNL     1      -2.647  12.281  19.646  0.00  0.00    +0.000 A 
ATOM     26  C   UNL     1      -3.941  12.138  19.127  0.00  0.00    +0.000 A 
ATOM     27  C   UNL     1      -4.182  11.328  18.011  0.00  0.00    +0.000 A 
ATOM     28 CL   UNL     1      -5.823  11.091  17.521  0.00  0.00    +0.000 Cl
ATOM     29  C   UNL     1      -3.112  10.711  17.367  0.00  0.00    +0.000 A 
ATOM     30 CL   UNL     1      -3.325   9.647  16.021  0.00  0.00    +0.000 Cl
ATOM     31  C   UNL     1      -1.816  10.877  17.870  0.00  0.00    +0.000 A 
ENDBRANCH  11  24
TORSDOF 2
ENDMDL
MODEL 8
REMARK VINA RESULT:      -9.6      4.938      9.131
REMARK  Name = 
REMARK  2 active torsions:
REMARK  status: ('A' for Active; 'I' for Inactive)
REMARK    1  A    between atoms: C_7  and  C_8
REMARK    2  A    between atoms: C_18  and  C_19
REMARK                            x       y       z     vdW  Elec       q    Type
REMARK                         _______ _______ _______ _____ _____    ______ ____
ROOT
ATOM      1  C   UNL     1       1.620   8.648  19.237  0.00  0.00    +0.000 A 
ATOM      2  C   UNL     1       1.857   8.323  17.891  0.00  0.00    +0.000 A 
ATOM      3  C   UNL     1       2.456   7.100  17.525  0.00  0.00    +0.000 A 
ATOM      4  C   UNL     1       2.758   6.131  18.494  0.00  0.00    +0.000 A 
ATOM      5  C   UNL     1       2.304   6.359  19.802  0.00  0.00    +0.000 A 
ATOM      6  C   UNL     1       1.846   7.635  20.183  0.00  0.00    +0.000 A 
ATOM      7  C   UNL     1       2.206   5.194  20.768  0.00  0.00    +0.000 C 
ATOM      8  N   UNL     1       2.297   3.848  20.138  0.00  0.00    +0.000 NA
ATOM      9  C   UNL     1       1.336   3.588  19.036  0.00  0.00    +0.000 C 
ATOM     10  C   UNL     1       2.019   3.977  17.694  0.00  0.00    +0.000 C 
ATOM     11  C   UNL     1       3.287   4.719  18.158  0.00  0.00    +0.000 C 
ATOM     12  C   UNL     1       3.572   3.844  19.427  0.00  0.00    +0.000 C 
ENDROOT
BRANCH   1  19
ATOM     13  O   UNL     1      -0.158  15.533  18.900  0.00  0.00    +0.000 OA
ATOM     14  C   UNL     1       0.084  14.376  19.203  0.00  0.00    +0.000 A 
ATOM     15  N   UNL     1      -0.102  13.835  20.457  0.00  0.00    +0.000 N 
ATOM     16  C   UNL     1       0.275  12.521  20.408  0.00  0.00    +0.000 A 
ATOM     17  C   UNL     1       0.265  11.543  21.373  0.00  0.00    +0.000 A 
ATOM     18  C   UNL     1       0.718  10.263  20.980  0.00  0.00    +0.000 A 
ATOM     19  C   UNL     1       1.159   9.993  19.657  0.00  0.00    +0.000 A 
ATOM     20  C   UNL     1       1.143  11.049  18.719  0.00  0.00    +0.000 A 
ATOM     21  C   UNL     1       0.697  12.292  19.121  0.00  0.00    +0.000 A 
ATOM     22  O   UNL     1       0.607  13.419  18.318  0.00  0.00    +0.000 OA
ATOM     23  H   UNL     1      -0.482  14.353  21.232  0.00  0.00    +0.000 HD
ENDBRANCH   1  19
BRANCH  11  24
ATOM     24  C   UNL     1       4.636   4.653  17.434  0.00  0.00    +0.000 A 
ATOM     25  C   UNL     1       5.721   5.462  17.794  0.00  0.00    +0.000 A 
ATOM     26  C   UNL     1       6.749   5.721  16.877  0.00  0.00    +0.000 A 
ATOM     27  C   UNL     1       6.721   5.171  15.590  0.00  0.00    +0.000 A 
ATOM     28 CL   UNL     1       7.950   5.655  14.475  0.00  0.00    +0.000 Cl
ATOM     29  C   UNL     1       5.692   4.300  15.240  0.00  0.00    +0.000 A 
ATOM     30 CL   UNL     1       5.546   3.623  13.655  0.00  0.00    +0.000 Cl
ATOM     31  C   UNL     1       4.680   4.019  16.165  0.00  0.00    +0.000 A 
ENDBRANCH  11  24
TORSDOF 2
ENDMDL
MODEL 9
REMARK VINA RESULT:      -9.3      1.160      1.340
REMARK  Name = 
REMARK  2 active torsions:
REMARK  status: ('A' for Active; 'I' for Inactive)
REMARK    1  A    between atoms: C_7  and  C_8
REMARK    2  A    between atoms: C_18  and  C_19
REMARK                            x       y       z     vdW  Elec       q    Type
REMARK                         _______ _______ _______ _____ _____    ______ ____
ROOT
ATOM      1  C   UNL     1       1.511   8.815  19.270  0.00  0.00    +0.000 A 
ATOM      2  C   UNL     1       1.167   9.775  18.304  0.00  0.00    +0.000 A 
ATOM      3  C   UNL     1       0.242  10.801  18.585  0.00  0.00    +0.000 A 
ATOM      4  C   UNL     1      -0.301  10.944  19.872  0.00  0.00    +0.000 A 
ATOM      5  C   UNL     1       0.224  10.135  20.891  0.00  0.00    +0.000 A 
ATOM      6  C   UNL     1       1.029   9.024  20.572  0.00  0.00    +0.000 A 
ATOM      7  C   UNL     1       0.010  10.531  22.338  0.00  0.00    +0.000 C 
ATOM      8  N   UNL     1      -0.467  11.926  22.543  0.00  0.00    +0.000 NA
ATOM      9  C   UNL     1       0.361  12.987  21.915  0.00  0.00    +0.000 C 
ATOM     10  C   UNL     1      -0.212  13.274  20.497  0.00  0.00    +0.000 C 
ATOM     11  C   UNL     1      -1.211  12.119  20.292  0.00  0.00    +0.000 C 
ATOM     12  C   UNL     1      -1.705  12.024  21.776  0.00  0.00    +0.000 C 
ENDROOT
BRANCH   1  19
ATOM     13  O   UNL     1       4.367   2.309  19.715  0.00  0.00    +0.000 OA
ATOM     14  C   UNL     1       4.025   3.446  19.432  0.00  0.00    +0.000 A 
ATOM     15  N   UNL     1       4.466   4.151  18.333  0.00  0.00    +0.000 N 
ATOM     16  C   UNL     1       3.863   5.378  18.352  0.00  0.00    +0.000 A 
ATOM     17  C   UNL     1       3.946   6.438  17.481  0.00  0.00    +0.000 A 
ATOM     18  C   UNL     1       3.169   7.575  17.794  0.00  0.00    +0.000 A 
ATOM     19  C   UNL     1       2.340   7.628  18.946  0.00  0.00    +0.000 A 
ATOM     20  C   UNL     1       2.307   6.502  19.798  0.00  0.00    +0.000 A 
ATOM     21  C   UNL     1       3.072   5.399  19.476  0.00  0.00    +0.000 A 
ATOM     22  O   UNL     1       3.136   4.217  20.198  0.00  0.00    +0.000 OA
ATOM     23  H   UNL     1       5.099   3.769  17.650  0.00  0.00    +0.000 HD
ENDBRANCH   1  19
BRANCH  11  24
ATOM     24  C   UNL     1      -2.538  12.255  19.538  0.00  0.00    +0.000 A 
ATOM     25  C   UNL     1      -3.725  12.642  20.172  0.00  0.00    +0.000 A 
ATOM     26  C   UNL     1      -4.969  12.326  19.608  0.00  0.00    +0.000 A 
ATOM     27  C   UNL     1      -5.053  11.629  18.398  0.00  0.00    +0.000 A 
ATOM     28 CL   UNL     1      -6.620  11.154  17.844  0.00  0.00    +0.000 Cl
ATOM     29  C   UNL     1      -3.885  11.305  17.711  0.00  0.00    +0.000 A 
ATOM     30 CL   UNL     1      -3.894  10.393  16.242  0.00  0.00    +0.000 Cl
ATOM     31  C   UNL     1      -2.644  11.645  18.261  0.00  0.00    +0.000 A 
ENDBRANCH  11  24
TORSDOF 2
ENDMDL
