MODEL 1
REMARK VINA RESULT:      -8.3      0.000      0.000
REMARK  Name = 
REMARK  1 active torsions:
REMARK  status: ('A' for Active; 'I' for Inactive)
REMARK    1  A    between atoms: C_11  and  C_12
REMARK                            x       y       z     vdW  Elec       q    Type
REMARK                         _______ _______ _______ _____ _____    ______ ____
ROOT
ATOM      1  O   UNL     1       7.252   5.942  17.732  0.00  0.00    +0.000 OA
ATOM      2  C   UNL     1       6.793   5.501  16.683  0.00  0.00    +0.000 A 
ATOM      3  O   UNL     1       7.480   5.621  15.481  0.00  0.00    +0.000 OA
ATOM      4  C   UNL     1       7.048   4.956  14.321  0.00  0.00    +0.000 A 
ATOM      5  C   UNL     1       7.833   5.083  13.178  0.00  0.00    +0.000 A 
ATOM      6  C   UNL     1       7.451   4.417  12.015  0.00  0.00    +0.000 A 
ATOM      7  C   UNL     1       6.296   3.631  12.008  0.00  0.00    +0.000 A 
ATOM      8  C   UNL     1       5.513   3.518  13.162  0.00  0.00    +0.000 A 
ATOM      9  C   UNL     1       5.888   4.189  14.329  0.00  0.00    +0.000 A 
ATOM     10  C   UNL     1       5.084   4.140  15.540  0.00  0.00    +0.000 A 
ATOM     11  C   UNL     1       5.487   4.774  16.652  0.00  0.00    +0.000 A 
ENDROOT
BRANCH  11  12
ATOM     12  C   UNL     1       4.667   4.784  17.862  0.00  0.00    +0.000 A 
ATOM     13  C   UNL     1       4.641   3.735  18.707  0.00  0.00    +0.000 A 
ATOM     14  C   UNL     1       3.764   3.874  19.901  0.00  0.00    +0.000 A 
ATOM     15  N   UNL     1       3.027   4.898  20.201  0.00  0.00    +0.000 NA
ATOM     16  C   UNL     1       3.079   5.945  19.323  0.00  0.00    +0.000 A 
ATOM     17  N   UNL     1       2.442   7.097  19.334  0.00  0.00    +0.000 NA
ATOM     18  N   UNL     1       2.826   7.769  18.205  0.00  0.00    +0.000 NA
ATOM     19  N   UNL     1       3.676   7.055  17.483  0.00  0.00    +0.000 NA
ATOM     20  N   UNL     1       3.880   5.907  18.172  0.00  0.00    +0.000 N 
ENDBRANCH  11  12
TORSDOF 1
ENDMDL
MODEL 2
REMARK VINA RESULT:      -8.1      1.228      2.138
REMARK  Name = 
REMARK  1 active torsions:
REMARK  status: ('A' for Active; 'I' for Inactive)
REMARK    1  A    between atoms: C_11  and  C_12
REMARK                            x       y       z     vdW  Elec       q    Type
REMARK                         _______ _______ _______ _____ _____    ______ ____
ROOT
ATOM      1  O   UNL     1       6.873   6.351  17.761  0.00  0.00    +0.000 OA
ATOM      2  C   UNL     1       6.461   5.843  16.723  0.00  0.00    +0.000 A 
ATOM      3  O   UNL     1       7.249   5.784  15.579  0.00  0.00    +0.000 OA
ATOM      4  C   UNL     1       6.853   5.041  14.455  0.00  0.00    +0.000 A 
ATOM      5  C   UNL     1       7.733   4.986  13.378  0.00  0.00    +0.000 A 
ATOM      6  C   UNL     1       7.387   4.236  12.255  0.00  0.00    +0.000 A 
ATOM      7  C   UNL     1       6.171   3.549  12.223  0.00  0.00    +0.000 A 
ATOM      8  C   UNL     1       5.293   3.618  13.309  0.00  0.00    +0.000 A 
ATOM      9  C   UNL     1       5.632   4.373  14.435  0.00  0.00    +0.000 A 
ATOM     10  C   UNL     1       4.735   4.513  15.570  0.00  0.00    +0.000 A 
ATOM     11  C   UNL     1       5.103   5.224  16.648  0.00  0.00    +0.000 A 
ENDROOT
BRANCH  11  12
ATOM     12  C   UNL     1       4.194   5.424  17.775  0.00  0.00    +0.000 A 
ATOM     13  C   UNL     1       3.520   6.579  17.942  0.00  0.00    +0.000 A 
ATOM     14  C   UNL     1       2.628   6.653  19.131  0.00  0.00    +0.000 A 
ATOM     15  N   UNL     1       2.442   5.722  20.014  0.00  0.00    +0.000 NA
ATOM     16  C   UNL     1       3.140   4.563  19.812  0.00  0.00    +0.000 A 
ATOM     17  N   UNL     1       3.183   3.461  20.530  0.00  0.00    +0.000 NA
ATOM     18  N   UNL     1       4.066   2.621  19.905  0.00  0.00    +0.000 NA
ATOM     19  N   UNL     1       4.583   3.181  18.823  0.00  0.00    +0.000 NA
ATOM     20  N   UNL     1       4.002   4.400  18.717  0.00  0.00    +0.000 N 
ENDBRANCH  11  12
TORSDOF 1
ENDMDL
MODEL 3
REMARK VINA RESULT:      -7.9      1.293      1.922
REMARK  Name = 
REMARK  1 active torsions:
REMARK  status: ('A' for Active; 'I' for Inactive)
REMARK    1  A    between atoms: C_11  and  C_12
REMARK                            x       y       z     vdW  Elec       q    Type
REMARK                         _______ _______ _______ _____ _____    ______ ____
ROOT
ATOM      1  O   UNL     1       6.492   5.082  19.713  0.00  0.00    +0.000 OA
ATOM      2  C   UNL     1       6.141   4.887  18.554  0.00  0.00    +0.000 A 
ATOM      3  O   UNL     1       6.957   5.222  17.480  0.00  0.00    +0.000 OA
ATOM      4  C   UNL     1       6.640   4.829  16.169  0.00  0.00    +0.000 A 
ATOM      5  C   UNL     1       7.547   5.154  15.164  0.00  0.00    +0.000 A 
ATOM      6  C   UNL     1       7.280   4.758  13.855  0.00  0.00    +0.000 A 
ATOM      7  C   UNL     1       6.115   4.041  13.566  0.00  0.00    +0.000 A 
ATOM      8  C   UNL     1       5.210   3.728  14.585  0.00  0.00    +0.000 A 
ATOM      9  C   UNL     1       5.469   4.128  15.898  0.00  0.00    +0.000 A 
ATOM     10  C   UNL     1       4.538   3.866  16.983  0.00  0.00    +0.000 A 
ATOM     11  C   UNL     1       4.830   4.240  18.239  0.00  0.00    +0.000 A 
ENDROOT
BRANCH  11  12
ATOM     12  C   UNL     1       3.884   4.037  19.334  0.00  0.00    +0.000 A 
ATOM     13  C   UNL     1       3.765   2.847  19.954  0.00  0.00    +0.000 A 
ATOM     14  C   UNL     1       2.764   2.774  21.052  0.00  0.00    +0.000 A 
ATOM     15  N   UNL     1       2.001   3.738  21.463  0.00  0.00    +0.000 NA
ATOM     16  C   UNL     1       2.149   4.932  20.814  0.00  0.00    +0.000 A 
ATOM     17  N   UNL     1       1.516   6.075  20.979  0.00  0.00    +0.000 NA
ATOM     18  N   UNL     1       2.021   6.942  20.047  0.00  0.00    +0.000 NA
ATOM     19  N   UNL     1       2.943   6.360  19.296  0.00  0.00    +0.000 NA
ATOM     20  N   UNL     1       3.070   5.097  19.769  0.00  0.00    +0.000 N 
ENDBRANCH  11  12
TORSDOF 1
ENDMDL
MODEL 4
REMARK VINA RESULT:      -7.8      3.342      6.491
REMARK  Name = 
REMARK  1 active torsions:
REMARK  status: ('A' for Active; 'I' for Inactive)
REMARK    1  A    between atoms: C_11  and  C_12
REMARK                            x       y       z     vdW  Elec       q    Type
REMARK                         _______ _______ _______ _____ _____    ______ ____
ROOT
ATOM      1  O   UNL     1       3.628   5.131  20.019  0.00  0.00    +0.000 OA
ATOM      2  C   UNL     1       3.120   6.114  19.489  0.00  0.00    +0.000 A 
ATOM      3  O   UNL     1       2.202   6.912  20.162  0.00  0.00    +0.000 OA
ATOM      4  C   UNL     1       1.766   8.136  19.629  0.00  0.00    +0.000 A 
ATOM      5  C   UNL     1       0.894   8.899  20.401  0.00  0.00    +0.000 A 
ATOM      6  C   UNL     1       0.460  10.131  19.917  0.00  0.00    +0.000 A 
ATOM      7  C   UNL     1       0.904  10.588  18.673  0.00  0.00    +0.000 A 
ATOM      8  C   UNL     1       1.774   9.808  17.905  0.00  0.00    +0.000 A 
ATOM      9  C   UNL     1       2.208   8.569  18.383  0.00  0.00    +0.000 A 
ATOM     10  C   UNL     1       3.076   7.702  17.603  0.00  0.00    +0.000 A 
ATOM     11  C   UNL     1       3.496   6.528  18.103  0.00  0.00    +0.000 A 
ENDROOT
BRANCH  11  12
ATOM     12  C   UNL     1       4.323   5.617  17.314  0.00  0.00    +0.000 A 
ATOM     13  C   UNL     1       3.875   4.402  16.941  0.00  0.00    +0.000 A 
ATOM     14  C   UNL     1       4.817   3.572  16.141  0.00  0.00    +0.000 A 
ATOM     15  N   UNL     1       6.015   3.903  15.775  0.00  0.00    +0.000 NA
ATOM     16  C   UNL     1       6.435   5.144  16.168  0.00  0.00    +0.000 A 
ATOM     17  N   UNL     1       7.587   5.752  15.977  0.00  0.00    +0.000 NA
ATOM     18  N   UNL     1       7.501   6.963  16.609  0.00  0.00    +0.000 NA
ATOM     19  N   UNL     1       6.327   7.117  17.200  0.00  0.00    +0.000 NA
ATOM     20  N   UNL     1       5.617   5.998  16.922  0.00  0.00    +0.000 N 
ENDBRANCH  11  12
TORSDOF 1
ENDMDL
MODEL 5
REMARK VINA RESULT:      -7.7      2.099      3.046
REMARK  Name = 
REMARK  1 active torsions:
REMARK  status: ('A' for Active; 'I' for Inactive)
REMARK    1  A    between atoms: C_11  and  C_12
REMARK                            x       y       z     vdW  Elec       q    Type
REMARK                         _______ _______ _______ _____ _____    ______ ____
ROOT
ATOM      1  O   UNL     1       6.285   5.286  19.629  0.00  0.00    +0.000 OA
ATOM      2  C   UNL     1       5.977   5.080  18.460  0.00  0.00    +0.000 A 
ATOM      3  O   UNL     1       6.864   5.328  17.419  0.00  0.00    +0.000 OA
ATOM      4  C   UNL     1       6.583   4.918  16.105  0.00  0.00    +0.000 A 
ATOM      5  C   UNL     1       7.557   5.152  15.137  0.00  0.00    +0.000 A 
ATOM      6  C   UNL     1       7.326   4.736  13.827  0.00  0.00    +0.000 A 
ATOM      7  C   UNL     1       6.131   4.090  13.501  0.00  0.00    +0.000 A 
ATOM      8  C   UNL     1       5.159   3.868  14.481  0.00  0.00    +0.000 A 
ATOM      9  C   UNL     1       5.382   4.289  15.795  0.00  0.00    +0.000 A 
ATOM     10  C   UNL     1       4.385   4.121  16.839  0.00  0.00    +0.000 A 
ATOM     11  C   UNL     1       4.642   4.512  18.098  0.00  0.00    +0.000 A 
ENDROOT
BRANCH  11  12
ATOM     12  C   UNL     1       3.633   4.406  19.150  0.00  0.00    +0.000 A 
ATOM     13  C   UNL     1       2.621   5.290  19.250  0.00  0.00    +0.000 A 
ATOM     14  C   UNL     1       1.663   5.068  20.367  0.00  0.00    +0.000 A 
ATOM     15  N   UNL     1       1.710   4.115  21.244  0.00  0.00    +0.000 NA
ATOM     16  C   UNL     1       2.749   3.235  21.111  0.00  0.00    +0.000 A 
ATOM     17  N   UNL     1       3.079   2.193  21.845  0.00  0.00    +0.000 NA
ATOM     18  N   UNL     1       4.225   1.678  21.300  0.00  0.00    +0.000 NA
ATOM     19  N   UNL     1       4.622   2.385  20.253  0.00  0.00    +0.000 NA
ATOM     20  N   UNL     1       3.699   3.362  20.088  0.00  0.00    +0.000 N 
ENDBRANCH  11  12
TORSDOF 1
ENDMDL
MODEL 6
REMARK VINA RESULT:      -7.5      3.245      6.419
REMARK  Name = 
REMARK  1 active torsions:
REMARK  status: ('A' for Active; 'I' for Inactive)
REMARK    1  A    between atoms: C_11  and  C_12
REMARK                            x       y       z     vdW  Elec       q    Type
REMARK                         _______ _______ _______ _____ _____    ______ ____
ROOT
ATOM      1  O   UNL     1       3.843   4.760  19.903  0.00  0.00    +0.000 OA
ATOM      2  C   UNL     1       3.374   5.770  19.389  0.00  0.00    +0.000 A 
ATOM      3  O   UNL     1       2.368   6.502  20.009  0.00  0.00    +0.000 OA
ATOM      4  C   UNL     1       1.964   7.754  19.517  0.00  0.00    +0.000 A 
ATOM      5  C   UNL     1       0.993   8.445  20.238  0.00  0.00    +0.000 A 
ATOM      6  C   UNL     1       0.586   9.702  19.796  0.00  0.00    +0.000 A 
ATOM      7  C   UNL     1       1.153  10.255  18.645  0.00  0.00    +0.000 A 
ATOM      8  C   UNL     1       2.122   9.547  17.927  0.00  0.00    +0.000 A 
ATOM      9  C   UNL     1       2.530   8.283  18.362  0.00  0.00    +0.000 A 
ATOM     10  C   UNL     1       3.500   7.489  17.626  0.00  0.00    +0.000 A 
ATOM     11  C   UNL     1       3.890   6.290  18.086  0.00  0.00    +0.000 A 
ENDROOT
BRANCH  11  12
ATOM     12  C   UNL     1       4.821   5.451  17.332  0.00  0.00    +0.000 A 
ATOM     13  C   UNL     1       4.458   4.852  16.181  0.00  0.00    +0.000 A 
ATOM     14  C   UNL     1       5.500   4.025  15.514  0.00  0.00    +0.000 A 
ATOM     15  N   UNL     1       6.710   3.826  15.933  0.00  0.00    +0.000 NA
ATOM     16  C   UNL     1       7.045   4.451  17.103  0.00  0.00    +0.000 A 
ATOM     17  N   UNL     1       8.169   4.429  17.788  0.00  0.00    +0.000 NA
ATOM     18  N   UNL     1       7.964   5.195  18.904  0.00  0.00    +0.000 NA
ATOM     19  N   UNL     1       6.733   5.681  18.936  0.00  0.00    +0.000 NA
ATOM     20  N   UNL     1       6.130   5.253  17.801  0.00  0.00    +0.000 N 
ENDBRANCH  11  12
TORSDOF 1
ENDMDL
MODEL 7
REMARK VINA RESULT:      -7.3      4.137      6.917
REMARK  Name = 
REMARK  1 active torsions:
REMARK  status: ('A' for Active; 'I' for Inactive)
REMARK    1  A    between atoms: C_11  and  C_12
REMARK                            x       y       z     vdW  Elec       q    Type
REMARK                         _______ _______ _______ _____ _____    ______ ____
ROOT
ATOM      1  O   UNL     1       1.881   5.597  21.157  0.00  0.00    +0.000 OA
ATOM      2  C   UNL     1       1.740   6.583  20.442  0.00  0.00    +0.000 A 
ATOM      3  O   UNL     1       1.087   7.723  20.896  0.00  0.00    +0.000 OA
ATOM      4  C   UNL     1       1.090   8.914  20.151  0.00  0.00    +0.000 A 
ATOM      5  C   UNL     1       0.463  10.024  20.712  0.00  0.00    +0.000 A 
ATOM      6  C   UNL     1       0.468  11.231  20.015  0.00  0.00    +0.000 A 
ATOM      7  C   UNL     1       1.100  11.316  18.772  0.00  0.00    +0.000 A 
ATOM      8  C   UNL     1       1.719  10.191  18.217  0.00  0.00    +0.000 A 
ATOM      9  C   UNL     1       1.712   8.977  18.909  0.00  0.00    +0.000 A 
ATOM     10  C   UNL     1       2.302   7.769  18.355  0.00  0.00    +0.000 A 
ATOM     11  C   UNL     1       2.302   6.625  19.057  0.00  0.00    +0.000 A 
ENDROOT
BRANCH  11  12
ATOM     12  C   UNL     1       2.838   5.387  18.496  0.00  0.00    +0.000 A 
ATOM     13  C   UNL     1       2.068   4.544  17.781  0.00  0.00    +0.000 A 
ATOM     14  C   UNL     1       2.738   3.318  17.267  0.00  0.00    +0.000 A 
ATOM     15  N   UNL     1       3.978   2.987  17.443  0.00  0.00    +0.000 NA
ATOM     16  C   UNL     1       4.731   3.867  18.171  0.00  0.00    +0.000 A 
ATOM     17  N   UNL     1       5.994   3.805  18.536  0.00  0.00    +0.000 NA
ATOM     18  N   UNL     1       6.241   4.925  19.285  0.00  0.00    +0.000 NA
ATOM     19  N   UNL     1       5.156   5.674  19.406  0.00  0.00    +0.000 NA
ATOM     20  N   UNL     1       4.188   5.049  18.693  0.00  0.00    +0.000 N 
ENDBRANCH  11  12
TORSDOF 1
ENDMDL
MODEL 8
REMARK VINA RESULT:      -7.3      3.136      6.394
REMARK  Name = 
REMARK  1 active torsions:
REMARK  status: ('A' for Active; 'I' for Inactive)
REMARK    1  A    between atoms: C_11  and  C_12
REMARK                            x       y       z     vdW  Elec       q    Type
REMARK                         _______ _______ _______ _____ _____    ______ ____
ROOT
ATOM      1  O   UNL     1       3.018   6.861  17.588  0.00  0.00    +0.000 OA
ATOM      2  C   UNL     1       3.151   5.941  18.387  0.00  0.00    +0.000 A 
ATOM      3  O   UNL     1       2.117   5.558  19.235  0.00  0.00    +0.000 OA
ATOM      4  C   UNL     1       2.202   4.392  20.013  0.00  0.00    +0.000 A 
ATOM      5  C   UNL     1       1.094   4.053  20.785  0.00  0.00    +0.000 A 
ATOM      6  C   UNL     1       1.130   2.888  21.549  0.00  0.00    +0.000 A 
ATOM      7  C   UNL     1       2.267   2.076  21.531  0.00  0.00    +0.000 A 
ATOM      8  C   UNL     1       3.375   2.433  20.757  0.00  0.00    +0.000 A 
ATOM      9  C   UNL     1       3.347   3.602  19.993  0.00  0.00    +0.000 A 
ATOM     10  C   UNL     1       4.490   4.039  19.207  0.00  0.00    +0.000 A 
ATOM     11  C   UNL     1       4.420   5.155  18.463  0.00  0.00    +0.000 A 
ENDROOT
BRANCH  11  12
ATOM     12  C   UNL     1       5.575   5.642  17.711  0.00  0.00    +0.000 A 
ATOM     13  C   UNL     1       6.430   6.542  18.235  0.00  0.00    +0.000 A 
ATOM     14  C   UNL     1       7.564   6.955  17.364  0.00  0.00    +0.000 A 
ATOM     15  N   UNL     1       7.803   6.537  16.161  0.00  0.00    +0.000 NA
ATOM     16  C   UNL     1       6.916   5.623  15.662  0.00  0.00    +0.000 A 
ATOM     17  N   UNL     1       6.873   5.036  14.484  0.00  0.00    +0.000 NA
ATOM     18  N   UNL     1       5.761   4.236  14.485  0.00  0.00    +0.000 NA
ATOM     19  N   UNL     1       5.105   4.324  15.632  0.00  0.00    +0.000 NA
ATOM     20  N   UNL     1       5.820   5.172  16.410  0.00  0.00    +0.000 N 
ENDBRANCH  11  12
TORSDOF 1
ENDMDL
MODEL 9
REMARK VINA RESULT:      -7.3      3.175      6.772
REMARK  Name = 
REMARK  1 active torsions:
REMARK  status: ('A' for Active; 'I' for Inactive)
REMARK    1  A    between atoms: C_11  and  C_12
REMARK                            x       y       z     vdW  Elec       q    Type
REMARK                         _______ _______ _______ _____ _____    ______ ____
ROOT
ATOM      1  O   UNL     1       3.577   3.987  20.245  0.00  0.00    +0.000 OA
ATOM      2  C   UNL     1       3.076   5.066  19.946  0.00  0.00    +0.000 A 
ATOM      3  O   UNL     1       2.038   5.617  20.688  0.00  0.00    +0.000 OA
ATOM      4  C   UNL     1       1.593   6.930  20.463  0.00  0.00    +0.000 A 
ATOM      5  C   UNL     1       0.590   7.421  21.295  0.00  0.00    +0.000 A 
ATOM      6  C   UNL     1       0.142   8.728  21.120  0.00  0.00    +0.000 A 
ATOM      7  C   UNL     1       0.701   9.530  20.121  0.00  0.00    +0.000 A 
ATOM      8  C   UNL     1       1.702   9.022  19.288  0.00  0.00    +0.000 A 
ATOM      9  C   UNL     1       2.152   7.710  19.455  0.00  0.00    +0.000 A 
ATOM     10  C   UNL     1       3.158   7.121  18.586  0.00  0.00    +0.000 A 
ATOM     11  C   UNL     1       3.587   5.866  18.791  0.00  0.00    +0.000 A 
ENDROOT
BRANCH  11  12
ATOM     12  C   UNL     1       4.556   5.236  17.895  0.00  0.00    +0.000 A 
ATOM     13  C   UNL     1       4.194   4.754  16.690  0.00  0.00    +0.000 A 
ATOM     14  C   UNL     1       5.277   4.137  15.877  0.00  0.00    +0.000 A 
ATOM     15  N   UNL     1       6.522   4.019  16.216  0.00  0.00    +0.000 NA
ATOM     16  C   UNL     1       6.854   4.521  17.444  0.00  0.00    +0.000 A 
ATOM     17  N   UNL     1       8.011   4.532  18.074  0.00  0.00    +0.000 NA
ATOM     18  N   UNL     1       7.790   5.122  19.290  0.00  0.00    +0.000 NA
ATOM     19  N   UNL     1       6.519   5.464  19.436  0.00  0.00    +0.000 NA
ATOM     20  N   UNL     1       5.902   5.123  18.279  0.00  0.00    +0.000 N 
ENDBRANCH  11  12
TORSDOF 1
ENDMDL
