MODEL 1
REMARK VINA RESULT:      -5.3      0.000      0.000
REMARK  Name = 
REMARK  10 active torsions:
REMARK  status: ('A' for Active; 'I' for Inactive)
REMARK    1  A    between atoms: C_1  and  C_2
REMARK    2  A    between atoms: C_2  and  C_3
REMARK    3  A    between atoms: C_3  and  N_4
REMARK    4  A    between atoms: N_4  and  C_5
REMARK    5  A    between atoms: N_4  and  C_6
REMARK    6  A    between atoms: C_6  and  C_7
REMARK    7  A    between atoms: C_7  and  C_8
REMARK    8  A    between atoms: C_8  and  C_9
REMARK    9  A    between atoms: C_9  and  C_10
REMARK   10  A    between atoms: C_10  and  C_11
REMARK                            x       y       z     vdW  Elec       q    Type
REMARK                         _______ _______ _______ _____ _____    ______ ____
ROOT
ATOM      1  C   UNL     1       3.567   7.446  17.609  0.00  0.00    +0.000 C 
ENDROOT
BRANCH   1   2
ATOM      2  C   UNL     1       4.556   6.573  16.833  0.00  0.00    +0.000 C 
BRANCH   2   3
ATOM      3  C   UNL     1       5.874   6.341  17.587  0.00  0.00    +0.000 C 
BRANCH   3   4
ATOM      4  N   UNL     1       6.172   4.929  17.908  0.00  0.00    +0.000 NA
ATOM      5  C   UNL     1       7.478   4.577  17.339  0.00  0.00    +0.000 C 
BRANCH   4   6
ATOM      6  C   UNL     1       5.104   4.033  17.425  0.00  0.00    +0.000 C 
BRANCH   6   8
ATOM      7  C   UNL     1       3.605   2.069  17.885  0.00  0.00    +0.000 C 
ATOM      8  C   UNL     1       4.495   3.135  18.510  0.00  0.00    +0.000 C 
ENDBRANCH   6   8
ENDBRANCH   4   6
ENDBRANCH   3   4
ENDBRANCH   2   3
ENDBRANCH   1   2
BRANCH   1   9
ATOM      9  C   UNL     1       2.402   6.610  18.135  0.00  0.00    +0.000 C 
BRANCH   9  10
ATOM     10  C   UNL     1       2.438   6.502  19.661  0.00  0.00    +0.000 C 
BRANCH  10  11
ATOM     11  C   UNL     1       2.012   5.130  20.122  0.00  0.00    +0.000 A 
ATOM     12  C   UNL     1       2.509   4.599  21.321  0.00  0.00    +0.000 A 
ATOM     13  C   UNL     1       2.133   3.319  21.733  0.00  0.00    +0.000 A 
ATOM     14  C   UNL     1       1.269   2.559  20.947  0.00  0.00    +0.000 A 
ATOM     15  C   UNL     1       0.780   3.074  19.750  0.00  0.00    +0.000 A 
ATOM     16  C   UNL     1       1.151   4.355  19.336  0.00  0.00    +0.000 A 
ENDBRANCH  10  11
ENDBRANCH   9  10
ENDBRANCH   1   9
TORSDOF 8
ENDMDL
MODEL 2
REMARK VINA RESULT:      -5.3      4.166      5.102
REMARK  Name = 
REMARK  10 active torsions:
REMARK  status: ('A' for Active; 'I' for Inactive)
REMARK    1  A    between atoms: C_1  and  C_2
REMARK    2  A    between atoms: C_2  and  C_3
REMARK    3  A    between atoms: C_3  and  N_4
REMARK    4  A    between atoms: N_4  and  C_5
REMARK    5  A    between atoms: N_4  and  C_6
REMARK    6  A    between atoms: C_6  and  C_7
REMARK    7  A    between atoms: C_7  and  C_8
REMARK    8  A    between atoms: C_8  and  C_9
REMARK    9  A    between atoms: C_9  and  C_10
REMARK   10  A    between atoms: C_10  and  C_11
REMARK                            x       y       z     vdW  Elec       q    Type
REMARK                         _______ _______ _______ _____ _____    ______ ____
ROOT
ATOM      1  C   UNL     1       5.942   5.396  14.680  0.00  0.00    +0.000 C 
ENDROOT
BRANCH   1   2
ATOM      2  C   UNL     1       6.006   3.882  14.463  0.00  0.00    +0.000 C 
BRANCH   2   3
ATOM      3  C   UNL     1       6.353   3.496  13.017  0.00  0.00    +0.000 C 
BRANCH   3   4
ATOM      4  N   UNL     1       5.269   2.822  12.271  0.00  0.00    +0.000 NA
ATOM      5  C   UNL     1       5.858   1.807  11.391  0.00  0.00    +0.000 C 
BRANCH   4   6
ATOM      6  C   UNL     1       4.453   3.793  11.518  0.00  0.00    +0.000 C 
BRANCH   6   8
ATOM      7  C   UNL     1       2.916   4.162   9.564  0.00  0.00    +0.000 C 
ATOM      8  C   UNL     1       3.403   3.156  10.598  0.00  0.00    +0.000 C 
ENDBRANCH   6   8
ENDBRANCH   4   6
ENDBRANCH   3   4
ENDBRANCH   2   3
ENDBRANCH   1   2
BRANCH   1   9
ATOM      9  C   UNL     1       5.205   5.728  15.977  0.00  0.00    +0.000 C 
BRANCH   9  10
ATOM     10  C   UNL     1       5.366   4.612  17.011  0.00  0.00    +0.000 C 
BRANCH  10  11
ATOM     11  C   UNL     1       4.025   4.096  17.471  0.00  0.00    +0.000 A 
ATOM     12  C   UNL     1       3.814   2.720  17.639  0.00  0.00    +0.000 A 
ATOM     13  C   UNL     1       2.565   2.242  18.041  0.00  0.00    +0.000 A 
ATOM     14  C   UNL     1       1.518   3.133  18.267  0.00  0.00    +0.000 A 
ATOM     15  C   UNL     1       1.715   4.500  18.093  0.00  0.00    +0.000 A 
ATOM     16  C   UNL     1       2.964   4.982  17.694  0.00  0.00    +0.000 A 
ENDBRANCH  10  11
ENDBRANCH   9  10
ENDBRANCH   1   9
TORSDOF 8
ENDMDL
MODEL 3
REMARK VINA RESULT:      -5.3      1.689      2.374
REMARK  Name = 
REMARK  10 active torsions:
REMARK  status: ('A' for Active; 'I' for Inactive)
REMARK    1  A    between atoms: C_1  and  C_2
REMARK    2  A    between atoms: C_2  and  C_3
REMARK    3  A    between atoms: C_3  and  N_4
REMARK    4  A    between atoms: N_4  and  C_5
REMARK    5  A    between atoms: N_4  and  C_6
REMARK    6  A    between atoms: C_6  and  C_7
REMARK    7  A    between atoms: C_7  and  C_8
REMARK    8  A    between atoms: C_8  and  C_9
REMARK    9  A    between atoms: C_9  and  C_10
REMARK   10  A    between atoms: C_10  and  C_11
REMARK                            x       y       z     vdW  Elec       q    Type
REMARK                         _______ _______ _______ _____ _____    ______ ____
ROOT
ATOM      1  C   UNL     1       4.653   6.100  18.964  0.00  0.00    +0.000 C 
ENDROOT
BRANCH   1   2
ATOM      2  C   UNL     1       5.304   4.716  18.901  0.00  0.00    +0.000 C 
BRANCH   2   3
ATOM      3  C   UNL     1       5.470   4.194  17.466  0.00  0.00    +0.000 C 
BRANCH   3   4
ATOM      4  N   UNL     1       6.858   4.194  16.956  0.00  0.00    +0.000 NA
ATOM      5  C   UNL     1       7.718   4.894  17.918  0.00  0.00    +0.000 C 
BRANCH   4   6
ATOM      6  C   UNL     1       6.935   4.796  15.612  0.00  0.00    +0.000 C 
BRANCH   6   8
ATOM      7  C   UNL     1       5.976   3.848  13.491  0.00  0.00    +0.000 C 
ATOM      8  C   UNL     1       5.666   4.619  14.767  0.00  0.00    +0.000 C 
ENDBRANCH   6   8
ENDBRANCH   4   6
ENDBRANCH   3   4
ENDBRANCH   2   3
ENDBRANCH   1   2
BRANCH   1   9
ATOM      9  C   UNL     1       3.687   6.299  17.796  0.00  0.00    +0.000 C 
BRANCH   9  10
ATOM     10  C   UNL     1       2.233   6.311  18.271  0.00  0.00    +0.000 C 
BRANCH  10  11
ATOM     11  C   UNL     1       1.817   4.957  18.791  0.00  0.00    +0.000 A 
ATOM     12  C   UNL     1       1.489   4.787  20.143  0.00  0.00    +0.000 A 
ATOM     13  C   UNL     1       1.128   3.528  20.628  0.00  0.00    +0.000 A 
ATOM     14  C   UNL     1       1.103   2.432  19.768  0.00  0.00    +0.000 A 
ATOM     15  C   UNL     1       1.438   2.589  18.426  0.00  0.00    +0.000 A 
ATOM     16  C   UNL     1       1.796   3.847  17.937  0.00  0.00    +0.000 A 
ENDBRANCH  10  11
ENDBRANCH   9  10
ENDBRANCH   1   9
TORSDOF 8
ENDMDL
MODEL 4
REMARK VINA RESULT:      -5.2      2.008      3.266
REMARK  Name = 
REMARK  10 active torsions:
REMARK  status: ('A' for Active; 'I' for Inactive)
REMARK    1  A    between atoms: C_1  and  C_2
REMARK    2  A    between atoms: C_2  and  C_3
REMARK    3  A    between atoms: C_3  and  N_4
REMARK    4  A    between atoms: N_4  and  C_5
REMARK    5  A    between atoms: N_4  and  C_6
REMARK    6  A    between atoms: C_6  and  C_7
REMARK    7  A    between atoms: C_7  and  C_8
REMARK    8  A    between atoms: C_8  and  C_9
REMARK    9  A    between atoms: C_9  and  C_10
REMARK   10  A    between atoms: C_10  and  C_11
REMARK                            x       y       z     vdW  Elec       q    Type
REMARK                         _______ _______ _______ _____ _____    ______ ____
ROOT
ATOM      1  C   UNL     1       6.523   5.240  19.399  0.00  0.00    +0.000 C 
ENDROOT
BRANCH   1   2
ATOM      2  C   UNL     1       7.241   5.100  18.054  0.00  0.00    +0.000 C 
BRANCH   2   3
ATOM      3  C   UNL     1       7.167   6.373  17.198  0.00  0.00    +0.000 C 
BRANCH   3   4
ATOM      4  N   UNL     1       6.605   6.186  15.844  0.00  0.00    +0.000 NA
ATOM      5  C   UNL     1       5.189   6.569  15.860  0.00  0.00    +0.000 C 
BRANCH   4   6
ATOM      6  C   UNL     1       6.794   4.802  15.372  0.00  0.00    +0.000 C 
BRANCH   6   8
ATOM      7  C   UNL     1       6.013   3.692  13.256  0.00  0.00    +0.000 C 
ATOM      8  C   UNL     1       7.009   4.675  13.857  0.00  0.00    +0.000 C 
ENDBRANCH   6   8
ENDBRANCH   4   6
ENDBRANCH   3   4
ENDBRANCH   2   3
ENDBRANCH   1   2
BRANCH   1   9
ATOM      9  C   UNL     1       5.008   5.276  19.205  0.00  0.00    +0.000 C 
BRANCH   9  10
ATOM     10  C   UNL     1       4.501   3.994  18.541  0.00  0.00    +0.000 C 
BRANCH  10  11
ATOM     11  C   UNL     1       3.134   3.615  19.056  0.00  0.00    +0.000 A 
ATOM     12  C   UNL     1       2.314   2.748  18.320  0.00  0.00    +0.000 A 
ATOM     13  C   UNL     1       1.040   2.419  18.786  0.00  0.00    +0.000 A 
ATOM     14  C   UNL     1       0.574   2.961  19.983  0.00  0.00    +0.000 A 
ATOM     15  C   UNL     1       1.377   3.831  20.714  0.00  0.00    +0.000 A 
ATOM     16  C   UNL     1       2.653   4.161  20.253  0.00  0.00    +0.000 A 
ENDBRANCH  10  11
ENDBRANCH   9  10
ENDBRANCH   1   9
TORSDOF 8
ENDMDL
MODEL 5
REMARK VINA RESULT:      -5.2      2.361      3.109
REMARK  Name = 
REMARK  10 active torsions:
REMARK  status: ('A' for Active; 'I' for Inactive)
REMARK    1  A    between atoms: C_1  and  C_2
REMARK    2  A    between atoms: C_2  and  C_3
REMARK    3  A    between atoms: C_3  and  N_4
REMARK    4  A    between atoms: N_4  and  C_5
REMARK    5  A    between atoms: N_4  and  C_6
REMARK    6  A    between atoms: C_6  and  C_7
REMARK    7  A    between atoms: C_7  and  C_8
REMARK    8  A    between atoms: C_8  and  C_9
REMARK    9  A    between atoms: C_9  and  C_10
REMARK   10  A    between atoms: C_10  and  C_11
REMARK                            x       y       z     vdW  Elec       q    Type
REMARK                         _______ _______ _______ _____ _____    ______ ____
ROOT
ATOM      1  C   UNL     1       5.764   4.566  18.604  0.00  0.00    +0.000 C 
ENDROOT
BRANCH   1   2
ATOM      2  C   UNL     1       5.412   4.300  17.138  0.00  0.00    +0.000 C 
BRANCH   2   3
ATOM      3  C   UNL     1       6.638   4.311  16.213  0.00  0.00    +0.000 C 
BRANCH   3   4
ATOM      4  N   UNL     1       6.676   5.419  15.235  0.00  0.00    +0.000 NA
ATOM      5  C   UNL     1       5.424   6.178  15.328  0.00  0.00    +0.000 C 
BRANCH   4   6
ATOM      6  C   UNL     1       6.914   4.919  13.868  0.00  0.00    +0.000 C 
BRANCH   6   8
ATOM      7  C   UNL     1       6.335   3.291  12.042  0.00  0.00    +0.000 C 
ATOM      8  C   UNL     1       6.009   3.749  13.457  0.00  0.00    +0.000 C 
ENDBRANCH   6   8
ENDBRANCH   4   6
ENDBRANCH   3   4
ENDBRANCH   2   3
ENDBRANCH   1   2
BRANCH   1   9
ATOM      9  C   UNL     1       4.833   5.619  19.204  0.00  0.00    +0.000 C 
BRANCH   9  10
ATOM     10  C   UNL     1       3.520   5.712  18.424  0.00  0.00    +0.000 C 
BRANCH  10  11
ATOM     11  C   UNL     1       2.506   4.722  18.942  0.00  0.00    +0.000 A 
ATOM     12  C   UNL     1       2.214   4.657  20.311  0.00  0.00    +0.000 A 
ATOM     13  C   UNL     1       1.293   3.724  20.792  0.00  0.00    +0.000 A 
ATOM     14  C   UNL     1       0.668   2.844  19.910  0.00  0.00    +0.000 A 
ATOM     15  C   UNL     1       0.960   2.894  18.550  0.00  0.00    +0.000 A 
ATOM     16  C   UNL     1       1.878   3.828  18.065  0.00  0.00    +0.000 A 
ENDBRANCH  10  11
ENDBRANCH   9  10
ENDBRANCH   1   9
TORSDOF 8
ENDMDL
MODEL 6
REMARK VINA RESULT:      -5.2      1.859      5.709
REMARK  Name = 
REMARK  10 active torsions:
REMARK  status: ('A' for Active; 'I' for Inactive)
REMARK    1  A    between atoms: C_1  and  C_2
REMARK    2  A    between atoms: C_2  and  C_3
REMARK    3  A    between atoms: C_3  and  N_4
REMARK    4  A    between atoms: N_4  and  C_5
REMARK    5  A    between atoms: N_4  and  C_6
REMARK    6  A    between atoms: C_6  and  C_7
REMARK    7  A    between atoms: C_7  and  C_8
REMARK    8  A    between atoms: C_8  and  C_9
REMARK    9  A    between atoms: C_9  and  C_10
REMARK   10  A    between atoms: C_10  and  C_11
REMARK                            x       y       z     vdW  Elec       q    Type
REMARK                         _______ _______ _______ _____ _____    ______ ____
ROOT
ATOM      1  C   UNL     1       4.213   3.954  16.664  0.00  0.00    +0.000 C 
ENDROOT
BRANCH   1   2
ATOM      2  C   UNL     1       3.761   5.130  17.534  0.00  0.00    +0.000 C 
BRANCH   2   3
ATOM      3  C   UNL     1       3.152   4.688  18.873  0.00  0.00    +0.000 C 
BRANCH   3   4
ATOM      4  N   UNL     1       1.993   5.485  19.328  0.00  0.00    +0.000 NA
ATOM      5  C   UNL     1       2.445   6.845  19.640  0.00  0.00    +0.000 C 
BRANCH   4   6
ATOM      6  C   UNL     1       1.326   4.851  20.481  0.00  0.00    +0.000 C 
BRANCH   6   8
ATOM      7  C   UNL     1       1.649   2.644  21.640  0.00  0.00    +0.000 C 
ATOM      8  C   UNL     1       1.177   3.328  20.364  0.00  0.00    +0.000 C 
ENDBRANCH   6   8
ENDBRANCH   4   6
ENDBRANCH   3   4
ENDBRANCH   2   3
ENDBRANCH   1   2
BRANCH   1   9
ATOM      9  C   UNL     1       5.099   4.437  15.516  0.00  0.00    +0.000 C 
BRANCH   9  10
ATOM     10  C   UNL     1       6.581   4.212  15.823  0.00  0.00    +0.000 C 
BRANCH  10  11
ATOM     11  C   UNL     1       7.084   5.203  16.843  0.00  0.00    +0.000 A 
ATOM     12  C   UNL     1       7.070   6.577  16.565  0.00  0.00    +0.000 A 
ATOM     13  C   UNL     1       7.559   7.490  17.501  0.00  0.00    +0.000 A 
ATOM     14  C   UNL     1       8.076   7.037  18.713  0.00  0.00    +0.000 A 
ATOM     15  C   UNL     1       8.104   5.673  18.994  0.00  0.00    +0.000 A 
ATOM     16  C   UNL     1       7.612   4.757  18.062  0.00  0.00    +0.000 A 
ENDBRANCH  10  11
ENDBRANCH   9  10
ENDBRANCH   1   9
TORSDOF 8
ENDMDL
MODEL 7
REMARK VINA RESULT:      -5.2      1.897      3.057
REMARK  Name = 
REMARK  10 active torsions:
REMARK  status: ('A' for Active; 'I' for Inactive)
REMARK    1  A    between atoms: C_1  and  C_2
REMARK    2  A    between atoms: C_2  and  C_3
REMARK    3  A    between atoms: C_3  and  N_4
REMARK    4  A    between atoms: N_4  and  C_5
REMARK    5  A    between atoms: N_4  and  C_6
REMARK    6  A    between atoms: C_6  and  C_7
REMARK    7  A    between atoms: C_7  and  C_8
REMARK    8  A    between atoms: C_8  and  C_9
REMARK    9  A    between atoms: C_9  and  C_10
REMARK   10  A    between atoms: C_10  and  C_11
REMARK                            x       y       z     vdW  Elec       q    Type
REMARK                         _______ _______ _______ _____ _____    ______ ____
ROOT
ATOM      1  C   UNL     1       5.028   3.646  18.014  0.00  0.00    +0.000 C 
ENDROOT
BRANCH   1   2
ATOM      2  C   UNL     1       6.182   4.650  18.077  0.00  0.00    +0.000 C 
BRANCH   2   3
ATOM      3  C   UNL     1       7.212   4.453  16.954  0.00  0.00    +0.000 C 
BRANCH   3   4
ATOM      4  N   UNL     1       7.335   5.584  16.011  0.00  0.00    +0.000 NA
ATOM      5  C   UNL     1       6.336   6.602  16.357  0.00  0.00    +0.000 C 
BRANCH   4   6
ATOM      6  C   UNL     1       7.197   5.134  14.613  0.00  0.00    +0.000 C 
BRANCH   6   8
ATOM      7  C   UNL     1       5.961   3.689  12.969  0.00  0.00    +0.000 C 
ATOM      8  C   UNL     1       6.320   3.887  14.436  0.00  0.00    +0.000 C 
ENDBRANCH   6   8
ENDBRANCH   4   6
ENDBRANCH   3   4
ENDBRANCH   2   3
ENDBRANCH   1   2
BRANCH   1   9
ATOM      9  C   UNL     1       3.919   4.151  17.091  0.00  0.00    +0.000 C 
BRANCH   9  10
ATOM     10  C   UNL     1       2.909   5.010  17.853  0.00  0.00    +0.000 C 
BRANCH  10  11
ATOM     11  C   UNL     1       2.325   4.259  19.024  0.00  0.00    +0.000 A 
ATOM     12  C   UNL     1       1.393   3.232  18.814  0.00  0.00    +0.000 A 
ATOM     13  C   UNL     1       0.835   2.555  19.900  0.00  0.00    +0.000 A 
ATOM     14  C   UNL     1       1.195   2.905  21.200  0.00  0.00    +0.000 A 
ATOM     15  C   UNL     1       2.111   3.930  21.418  0.00  0.00    +0.000 A 
ATOM     16  C   UNL     1       2.674   4.608  20.335  0.00  0.00    +0.000 A 
ENDBRANCH  10  11
ENDBRANCH   9  10
ENDBRANCH   1   9
TORSDOF 8
ENDMDL
MODEL 8
REMARK VINA RESULT:      -5.1      1.568      2.970
REMARK  Name = 
REMARK  10 active torsions:
REMARK  status: ('A' for Active; 'I' for Inactive)
REMARK    1  A    between atoms: C_1  and  C_2
REMARK    2  A    between atoms: C_2  and  C_3
REMARK    3  A    between atoms: C_3  and  N_4
REMARK    4  A    between atoms: N_4  and  C_5
REMARK    5  A    between atoms: N_4  and  C_6
REMARK    6  A    between atoms: C_6  and  C_7
REMARK    7  A    between atoms: C_7  and  C_8
REMARK    8  A    between atoms: C_8  and  C_9
REMARK    9  A    between atoms: C_9  and  C_10
REMARK   10  A    between atoms: C_10  and  C_11
REMARK                            x       y       z     vdW  Elec       q    Type
REMARK                         _______ _______ _______ _____ _____    ______ ____
ROOT
ATOM      1  C   UNL     1       4.834   5.477  19.359  0.00  0.00    +0.000 C 
ENDROOT
BRANCH   1   2
ATOM      2  C   UNL     1       5.424   4.285  18.602  0.00  0.00    +0.000 C 
BRANCH   2   3
ATOM      3  C   UNL     1       6.715   4.633  17.845  0.00  0.00    +0.000 C 
BRANCH   3   4
ATOM      4  N   UNL     1       6.521   5.392  16.591  0.00  0.00    +0.000 NA
ATOM      5  C   UNL     1       6.810   4.512  15.453  0.00  0.00    +0.000 C 
BRANCH   4   6
ATOM      6  C   UNL     1       7.354   6.609  16.568  0.00  0.00    +0.000 C 
BRANCH   6   8
ATOM      7  C   UNL     1       8.070   8.648  17.850  0.00  0.00    +0.000 C 
ATOM      8  C   UNL     1       7.674   7.182  17.955  0.00  0.00    +0.000 C 
ENDBRANCH   6   8
ENDBRANCH   4   6
ENDBRANCH   3   4
ENDBRANCH   2   3
ENDBRANCH   1   2
BRANCH   1   9
ATOM      9  C   UNL     1       3.849   6.246  18.479  0.00  0.00    +0.000 C 
BRANCH   9  10
ATOM     10  C   UNL     1       2.465   6.322  19.126  0.00  0.00    +0.000 C 
BRANCH  10  11
ATOM     11  C   UNL     1       1.886   4.945  19.341  0.00  0.00    +0.000 A 
ATOM     12  C   UNL     1       1.663   4.465  20.639  0.00  0.00    +0.000 A 
ATOM     13  C   UNL     1       1.150   3.181  20.837  0.00  0.00    +0.000 A 
ATOM     14  C   UNL     1       0.869   2.367  19.741  0.00  0.00    +0.000 A 
ATOM     15  C   UNL     1       1.098   2.832  18.449  0.00  0.00    +0.000 A 
ATOM     16  C   UNL     1       1.607   4.116  18.247  0.00  0.00    +0.000 A 
ENDBRANCH  10  11
ENDBRANCH   9  10
ENDBRANCH   1   9
TORSDOF 8
ENDMDL
MODEL 9
REMARK VINA RESULT:      -5.0      1.615      2.756
REMARK  Name = 
REMARK  10 active torsions:
REMARK  status: ('A' for Active; 'I' for Inactive)
REMARK    1  A    between atoms: C_1  and  C_2
REMARK    2  A    between atoms: C_2  and  C_3
REMARK    3  A    between atoms: C_3  and  N_4
REMARK    4  A    between atoms: N_4  and  C_5
REMARK    5  A    between atoms: N_4  and  C_6
REMARK    6  A    between atoms: C_6  and  C_7
REMARK    7  A    between atoms: C_7  and  C_8
REMARK    8  A    between atoms: C_8  and  C_9
REMARK    9  A    between atoms: C_9  and  C_10
REMARK   10  A    between atoms: C_10  and  C_11
REMARK                            x       y       z     vdW  Elec       q    Type
REMARK                         _______ _______ _______ _____ _____    ______ ____
ROOT
ATOM      1  C   UNL     1       3.318   5.704  17.599  0.00  0.00    +0.000 C 
ENDROOT
BRANCH   1   2
ATOM      2  C   UNL     1       4.574   6.553  17.390  0.00  0.00    +0.000 C 
BRANCH   2   3
ATOM      3  C   UNL     1       5.134   6.459  15.963  0.00  0.00    +0.000 C 
BRANCH   3   4
ATOM      4  N   UNL     1       6.518   5.951  15.865  0.00  0.00    +0.000 NA
ATOM      5  C   UNL     1       6.589   4.972  14.774  0.00  0.00    +0.000 C 
BRANCH   4   6
ATOM      6  C   UNL     1       6.970   5.375  17.147  0.00  0.00    +0.000 C 
BRANCH   6   8
ATOM      7  C   UNL     1       7.835   5.791  19.469  0.00  0.00    +0.000 C 
ATOM      8  C   UNL     1       7.677   6.375  18.072  0.00  0.00    +0.000 C 
ENDBRANCH   6   8
ENDBRANCH   4   6
ENDBRANCH   3   4
ENDBRANCH   2   3
ENDBRANCH   1   2
BRANCH   1   9
ATOM      9  C   UNL     1       3.566   4.255  17.179  0.00  0.00    +0.000 C 
BRANCH   9  10
ATOM     10  C   UNL     1       2.372   3.363  17.523  0.00  0.00    +0.000 C 
BRANCH  10  11
ATOM     11  C   UNL     1       2.285   3.115  19.009  0.00  0.00    +0.000 A 
ATOM     12  C   UNL     1       3.415   2.700  19.726  0.00  0.00    +0.000 A 
ATOM     13  C   UNL     1       3.326   2.446  21.096  0.00  0.00    +0.000 A 
ATOM     14  C   UNL     1       2.107   2.596  21.755  0.00  0.00    +0.000 A 
ATOM     15  C   UNL     1       0.977   2.997  21.048  0.00  0.00    +0.000 A 
ATOM     16  C   UNL     1       1.063   3.255  19.678  0.00  0.00    +0.000 A 
ENDBRANCH  10  11
ENDBRANCH   9  10
ENDBRANCH   1   9
TORSDOF 8
ENDMDL
