MODEL 1
REMARK VINA RESULT:      -6.9      0.000      0.000
REMARK  Name = 
REMARK  2 active torsions:
REMARK  status: ('A' for Active; 'I' for Inactive)
REMARK    1  A    between atoms: C_2  and  C_16
REMARK    2  A    between atoms: N_3  and  C_4
REMARK                            x       y       z     vdW  Elec       q    Type
REMARK                         _______ _______ _______ _____ _____    ______ ____
ROOT
ATOM      1  C   UNL     1       2.785   7.800  18.322  0.00  0.00    +0.000 A 
ATOM      2  C   UNL     1       2.021   8.847  17.832  0.00  0.00    +0.000 A 
ATOM      3  C   UNL     1       1.043   9.435  18.635  0.00  0.00    +0.000 A 
ATOM      4  C   UNL     1       0.818   8.986  19.933  0.00  0.00    +0.000 A 
ATOM      5  N   UNL     1      -0.139   9.578  20.731  0.00  0.00    +0.000 N 
ATOM      6  C   UNL     1      -0.476  11.006  20.632  0.00  0.00    +0.000 C 
ATOM      7  C   UNL     1      -0.049  11.760  21.902  0.00  0.00    +0.000 C 
ATOM      8  O   UNL     1      -0.578  11.149  23.086  0.00  0.00    +0.000 OA
ATOM      9  C   UNL     1      -0.095   9.798  23.196  0.00  0.00    +0.000 C 
ATOM     10  C   UNL     1      -0.532   8.945  21.997  0.00  0.00    +0.000 C 
ATOM     11  N   UNL     1       1.512   7.921  20.396  0.00  0.00    +0.000 NA
ATOM     12  C   UNL     1       2.459   7.355  19.594  0.00  0.00    +0.000 A 
ENDROOT
BRANCH   1  15
ATOM     13  O   UNL     1       3.126   5.003  17.707  0.00  0.00    +0.000 OA
ATOM     14  C   UNL     1       3.955   5.834  17.347  0.00  0.00    +0.000 C 
ATOM     15  N   UNL     1       3.834   7.198  17.589  0.00  0.00    +0.000 N 
ATOM     16  H   UNL     1       4.481   7.805  17.097  0.00  0.00    +0.000 HD
BRANCH  14  17
ATOM     17  C   UNL     1       5.118   5.411  16.574  0.00  0.00    +0.000 A 
ATOM     18  C   UNL     1       5.252   5.548  15.203  0.00  0.00    +0.000 A 
ATOM     19  C   UNL     1       6.468   5.005  14.709  0.00  0.00    +0.000 A 
ATOM     20  C   UNL     1       7.230   4.468  15.723  0.00  0.00    +0.000 A 
ATOM     21  S   UNL     1       6.483   4.642  17.255  0.00  0.00    +0.000 S 
ENDBRANCH  14  17
ENDBRANCH   1  15
TORSDOF 2
ENDMDL
MODEL 2
REMARK VINA RESULT:      -6.5      3.263      8.207
REMARK  Name = 
REMARK  2 active torsions:
REMARK  status: ('A' for Active; 'I' for Inactive)
REMARK    1  A    between atoms: C_2  and  C_16
REMARK    2  A    between atoms: N_3  and  C_4
REMARK                            x       y       z     vdW  Elec       q    Type
REMARK                         _______ _______ _______ _____ _____    ______ ____
ROOT
ATOM      1  C   UNL     1       1.455   7.987  20.114  0.00  0.00    +0.000 A 
ATOM      2  C   UNL     1       2.196   8.025  18.944  0.00  0.00    +0.000 A 
ATOM      3  C   UNL     1       2.892   6.893  18.519  0.00  0.00    +0.000 A 
ATOM      4  C   UNL     1       2.855   5.713  19.257  0.00  0.00    +0.000 A 
ATOM      5  N   UNL     1       3.531   4.589  18.829  0.00  0.00    +0.000 N 
ATOM      6  C   UNL     1       3.728   4.281  17.404  0.00  0.00    +0.000 C 
ATOM      7  C   UNL     1       2.940   3.025  17.000  0.00  0.00    +0.000 C 
ATOM      8  O   UNL     1       3.241   1.911  17.853  0.00  0.00    +0.000 OA
ATOM      9  C   UNL     1       2.892   2.229  19.212  0.00  0.00    +0.000 C 
ATOM     10  C   UNL     1       3.685   3.438  19.728  0.00  0.00    +0.000 C 
ATOM     11  N   UNL     1       2.190   5.687  20.435  0.00  0.00    +0.000 NA
ATOM     12  C   UNL     1       1.522   6.805  20.837  0.00  0.00    +0.000 A 
ENDROOT
BRANCH   1  15
ATOM     13  O   UNL     1       1.721   9.421  22.603  0.00  0.00    +0.000 OA
ATOM     14  C   UNL     1       0.838   9.710  21.799  0.00  0.00    +0.000 C 
ATOM     15  N   UNL     1       0.675   9.075  20.573  0.00  0.00    +0.000 N 
ATOM     16  H   UNL     1       0.032   9.508  19.920  0.00  0.00    +0.000 HD
BRANCH  14  17
ATOM     17  C   UNL     1      -0.075  10.810  22.089  0.00  0.00    +0.000 A 
ATOM     18  C   UNL     1      -1.069  10.784  23.052  0.00  0.00    +0.000 A 
ATOM     19  C   UNL     1      -1.842  11.975  23.083  0.00  0.00    +0.000 A 
ATOM     20  C   UNL     1      -1.411  12.880  22.138  0.00  0.00    +0.000 A 
ATOM     21  S   UNL     1      -0.075  12.294  21.242  0.00  0.00    +0.000 S 
ENDBRANCH  14  17
ENDBRANCH   1  15
TORSDOF 2
ENDMDL
MODEL 3
REMARK VINA RESULT:      -6.5      5.936      7.649
REMARK  Name = 
REMARK  2 active torsions:
REMARK  status: ('A' for Active; 'I' for Inactive)
REMARK    1  A    between atoms: C_2  and  C_16
REMARK    2  A    between atoms: N_3  and  C_4
REMARK                            x       y       z     vdW  Elec       q    Type
REMARK                         _______ _______ _______ _____ _____    ______ ____
ROOT
ATOM      1  C   UNL     1       7.848   7.010  18.535  0.00  0.00    +0.000 A 
ATOM      2  C   UNL     1       7.363   6.783  17.257  0.00  0.00    +0.000 A 
ATOM      3  C   UNL     1       6.468   5.739  17.023  0.00  0.00    +0.000 A 
ATOM      4  C   UNL     1       6.048   4.911  18.061  0.00  0.00    +0.000 A 
ATOM      5  N   UNL     1       5.152   3.888  17.831  0.00  0.00    +0.000 N 
ATOM      6  C   UNL     1       4.102   3.973  16.805  0.00  0.00    +0.000 C 
ATOM      7  C   UNL     1       2.707   4.023  17.450  0.00  0.00    +0.000 C 
ATOM      8  O   UNL     1       2.502   2.933  18.359  0.00  0.00    +0.000 OA
ATOM      9  C   UNL     1       3.476   2.991  19.417  0.00  0.00    +0.000 C 
ATOM     10  C   UNL     1       4.907   2.880  18.871  0.00  0.00    +0.000 C 
ATOM     11  N   UNL     1       6.568   5.082  19.298  0.00  0.00    +0.000 NA
ATOM     12  C   UNL     1       7.447   6.104  19.506  0.00  0.00    +0.000 A 
ENDROOT
BRANCH   1  15
ATOM     13  O   UNL     1       7.567   9.778  17.776  0.00  0.00    +0.000 OA
ATOM     14  C   UNL     1       8.529   9.400  18.439  0.00  0.00    +0.000 C 
ATOM     15  N   UNL     1       8.707   8.086  18.858  0.00  0.00    +0.000 N 
ATOM     16  H   UNL     1       9.437   7.924  19.542  0.00  0.00    +0.000 HD
BRANCH  14  17
ATOM     17  C   UNL     1       9.534  10.364  18.875  0.00  0.00    +0.000 A 
ATOM     18  C   UNL     1       9.791  10.700  20.193  0.00  0.00    +0.000 A 
ATOM     19  C   UNL     1      10.788  11.703  20.324  0.00  0.00    +0.000 A 
ATOM     20  C   UNL     1      11.266  12.103  19.095  0.00  0.00    +0.000 A 
ATOM     21  S   UNL     1      10.524  11.255  17.805  0.00  0.00    +0.000 S 
ENDBRANCH  14  17
ENDBRANCH   1  15
TORSDOF 2
ENDMDL
MODEL 4
REMARK VINA RESULT:      -6.4      3.029      8.207
REMARK  Name = 
REMARK  2 active torsions:
REMARK  status: ('A' for Active; 'I' for Inactive)
REMARK    1  A    between atoms: C_2  and  C_16
REMARK    2  A    between atoms: N_3  and  C_4
REMARK                            x       y       z     vdW  Elec       q    Type
REMARK                         _______ _______ _______ _____ _____    ______ ____
ROOT
ATOM      1  C   UNL     1       2.048   7.949  19.195  0.00  0.00    +0.000 A 
ATOM      2  C   UNL     1       2.305   6.733  19.809  0.00  0.00    +0.000 A 
ATOM      3  C   UNL     1       3.233   5.852  19.255  0.00  0.00    +0.000 A 
ATOM      4  C   UNL     1       3.914   6.173  18.084  0.00  0.00    +0.000 A 
ATOM      5  N   UNL     1       4.843   5.307  17.545  0.00  0.00    +0.000 N 
ATOM      6  C   UNL     1       5.670   4.419  18.376  0.00  0.00    +0.000 C 
ATOM      7  C   UNL     1       7.150   4.830  18.314  0.00  0.00    +0.000 C 
ATOM      8  O   UNL     1       7.621   4.919  16.962  0.00  0.00    +0.000 OA
ATOM      9  C   UNL     1       6.861   5.907  16.244  0.00  0.00    +0.000 C 
ATOM     10  C   UNL     1       5.370   5.545  16.195  0.00  0.00    +0.000 C 
ATOM     11  N   UNL     1       3.622   7.327  17.442  0.00  0.00    +0.000 NA
ATOM     12  C   UNL     1       2.706   8.173  17.995  0.00  0.00    +0.000 A 
ENDROOT
BRANCH   1  15
ATOM     13  O   UNL     1       1.597   8.571  21.975  0.00  0.00    +0.000 OA
ATOM     14  C   UNL     1       0.977   9.153  21.089  0.00  0.00    +0.000 C 
ATOM     15  N   UNL     1       1.169   8.918  19.732  0.00  0.00    +0.000 N 
ATOM     16  H   UNL     1       0.736   9.575  19.093  0.00  0.00    +0.000 HD
BRANCH  14  17
ATOM     17  C   UNL     1       0.018  10.195  21.439  0.00  0.00    +0.000 A 
ATOM     18  C   UNL     1      -0.398  11.208  20.592  0.00  0.00    +0.000 A 
ATOM     19  C   UNL     1      -1.301  12.112  21.213  0.00  0.00    +0.000 A 
ATOM     20  C   UNL     1      -1.550  11.759  22.520  0.00  0.00    +0.000 A 
ATOM     21  S   UNL     1      -0.712  10.337  22.978  0.00  0.00    +0.000 S 
ENDBRANCH  14  17
ENDBRANCH   1  15
TORSDOF 2
ENDMDL
MODEL 5
REMARK VINA RESULT:      -6.4      2.959      8.271
REMARK  Name = 
REMARK  2 active torsions:
REMARK  status: ('A' for Active; 'I' for Inactive)
REMARK    1  A    between atoms: C_2  and  C_16
REMARK    2  A    between atoms: N_3  and  C_4
REMARK                            x       y       z     vdW  Elec       q    Type
REMARK                         _______ _______ _______ _____ _____    ______ ____
ROOT
ATOM      1  C   UNL     1       1.835   7.998  19.507  0.00  0.00    +0.000 A 
ATOM      2  C   UNL     1       2.080   6.767  20.093  0.00  0.00    +0.000 A 
ATOM      3  C   UNL     1       2.965   5.870  19.494  0.00  0.00    +0.000 A 
ATOM      4  C   UNL     1       3.615   6.193  18.306  0.00  0.00    +0.000 A 
ATOM      5  N   UNL     1       4.501   5.312  17.721  0.00  0.00    +0.000 N 
ATOM      6  C   UNL     1       5.332   4.390  18.510  0.00  0.00    +0.000 C 
ATOM      7  C   UNL     1       6.819   4.763  18.403  0.00  0.00    +0.000 C 
ATOM      8  O   UNL     1       7.246   4.861  17.038  0.00  0.00    +0.000 OA
ATOM      9  C   UNL     1       6.489   5.880  16.361  0.00  0.00    +0.000 C 
ATOM     10  C   UNL     1       4.988   5.558  16.358  0.00  0.00    +0.000 C 
ATOM     11  N   UNL     1       3.331   7.365  17.691  0.00  0.00    +0.000 NA
ATOM     12  C   UNL     1       2.458   8.225  18.288  0.00  0.00    +0.000 A 
ENDROOT
BRANCH   1  15
ATOM     13  O   UNL     1       1.829   8.911  22.243  0.00  0.00    +0.000 OA
ATOM     14  C   UNL     1       1.031   9.360  21.427  0.00  0.00    +0.000 C 
ATOM     15  N   UNL     1       1.001   8.981  20.089  0.00  0.00    +0.000 N 
ATOM     16  H   UNL     1       0.423   9.541  19.472  0.00  0.00    +0.000 HD
BRANCH  14  17
ATOM     17  C   UNL     1       0.080  10.390  21.832  0.00  0.00    +0.000 A 
ATOM     18  C   UNL     1      -0.744  10.316  22.942  0.00  0.00    +0.000 A 
ATOM     19  C   UNL     1      -1.605  11.439  23.068  0.00  0.00    +0.000 A 
ATOM     20  C   UNL     1      -1.409  12.342  22.046  0.00  0.00    +0.000 A 
ATOM     21  S   UNL     1      -0.183  11.837  20.962  0.00  0.00    +0.000 S 
ENDBRANCH  14  17
ENDBRANCH   1  15
TORSDOF 2
ENDMDL
MODEL 6
REMARK VINA RESULT:      -6.4      3.999      7.594
REMARK  Name = 
REMARK  2 active torsions:
REMARK  status: ('A' for Active; 'I' for Inactive)
REMARK    1  A    between atoms: C_2  and  C_16
REMARK    2  A    between atoms: N_3  and  C_4
REMARK                            x       y       z     vdW  Elec       q    Type
REMARK                         _______ _______ _______ _____ _____    ______ ____
ROOT
ATOM      1  C   UNL     1       1.561   9.008  19.424  0.00  0.00    +0.000 A 
ATOM      2  C   UNL     1       2.081   8.392  18.297  0.00  0.00    +0.000 A 
ATOM      3  C   UNL     1       2.402   7.035  18.326  0.00  0.00    +0.000 A 
ATOM      4  C   UNL     1       2.206   6.279  19.479  0.00  0.00    +0.000 A 
ATOM      5  N   UNL     1       2.510   4.933  19.502  0.00  0.00    +0.000 N 
ATOM      6  C   UNL     1       2.384   4.075  18.315  0.00  0.00    +0.000 C 
ATOM      7  C   UNL     1       1.259   3.043  18.500  0.00  0.00    +0.000 C 
ATOM      8  O   UNL     1       1.422   2.291  19.710  0.00  0.00    +0.000 OA
ATOM      9  C   UNL     1       1.394   3.177  20.843  0.00  0.00    +0.000 C 
ATOM     10  C   UNL     1       2.530   4.208  20.779  0.00  0.00    +0.000 C 
ATOM     11  N   UNL     1       1.762   6.886  20.603  0.00  0.00    +0.000 NA
ATOM     12  C   UNL     1       1.461   8.215  20.557  0.00  0.00    +0.000 A 
ENDROOT
BRANCH   1  15
ATOM     13  O   UNL     1      -1.102  10.057  19.062  0.00  0.00    +0.000 OA
ATOM     14  C   UNL     1      -0.147  10.807  19.242  0.00  0.00    +0.000 C 
ATOM     15  N   UNL     1       1.154  10.363  19.449  0.00  0.00    +0.000 N 
ATOM     16  H   UNL     1       1.826  11.056  19.760  0.00  0.00    +0.000 HD
BRANCH  14  17
ATOM     17  C   UNL     1      -0.359  12.250  19.301  0.00  0.00    +0.000 A 
ATOM     18  C   UNL     1       0.272  13.178  18.491  0.00  0.00    +0.000 A 
ATOM     19  C   UNL     1      -0.086  14.518  18.801  0.00  0.00    +0.000 A 
ATOM     20  C   UNL     1      -0.985  14.571  19.844  0.00  0.00    +0.000 A 
ATOM     21  S   UNL     1      -1.400  13.013  20.421  0.00  0.00    +0.000 S 
ENDBRANCH  14  17
ENDBRANCH   1  15
TORSDOF 2
ENDMDL
MODEL 7
REMARK VINA RESULT:      -6.3      3.739      7.718
REMARK  Name = 
REMARK  2 active torsions:
REMARK  status: ('A' for Active; 'I' for Inactive)
REMARK    1  A    between atoms: C_2  and  C_16
REMARK    2  A    between atoms: N_3  and  C_4
REMARK                            x       y       z     vdW  Elec       q    Type
REMARK                         _______ _______ _______ _____ _____    ______ ____
ROOT
ATOM      1  C   UNL     1       1.771   8.586  19.271  0.00  0.00    +0.000 A 
ATOM      2  C   UNL     1       2.461   8.248  18.118  0.00  0.00    +0.000 A 
ATOM      3  C   UNL     1       2.975   6.960  17.962  0.00  0.00    +0.000 A 
ATOM      4  C   UNL     1       2.805   5.998  18.954  0.00  0.00    +0.000 A 
ATOM      5  N   UNL     1       3.300   4.720  18.793  0.00  0.00    +0.000 N 
ATOM      6  C   UNL     1       3.393   4.070  17.477  0.00  0.00    +0.000 C 
ATOM      7  C   UNL     1       2.422   2.882  17.381  0.00  0.00    +0.000 C 
ATOM      8  O   UNL     1       2.600   1.962  18.466  0.00  0.00    +0.000 OA
ATOM      9  C   UNL     1       2.356   2.628  19.718  0.00  0.00    +0.000 C 
ATOM     10  C   UNL     1       3.329   3.796  19.933  0.00  0.00    +0.000 C 
ATOM     11  N   UNL     1       2.192   6.338  20.111  0.00  0.00    +0.000 NA
ATOM     12  C   UNL     1       1.703   7.603  20.248  0.00  0.00    +0.000 A 
ENDROOT
BRANCH   1  15
ATOM     13  O   UNL     1      -0.404   9.758  17.784  0.00  0.00    +0.000 OA
ATOM     14  C   UNL     1       0.136  10.371  18.701  0.00  0.00    +0.000 C 
ATOM     15  N   UNL     1       1.170   9.851  19.471  0.00  0.00    +0.000 N 
ATOM     16  H   UNL     1       1.418  10.369  20.307  0.00  0.00    +0.000 HD
BRANCH  14  17
ATOM     17  C   UNL     1      -0.342  11.700  19.066  0.00  0.00    +0.000 A 
ATOM     18  C   UNL     1       0.125  12.887  18.528  0.00  0.00    +0.000 A 
ATOM     19  C   UNL     1      -0.484  14.034  19.104  0.00  0.00    +0.000 A 
ATOM     20  C   UNL     1      -1.404  13.685  20.069  0.00  0.00    +0.000 A 
ATOM     21  S   UNL     1      -1.536  11.988  20.254  0.00  0.00    +0.000 S 
ENDBRANCH  14  17
ENDBRANCH   1  15
TORSDOF 2
ENDMDL
MODEL 8
REMARK VINA RESULT:      -6.3      3.013      8.290
REMARK  Name = 
REMARK  2 active torsions:
REMARK  status: ('A' for Active; 'I' for Inactive)
REMARK    1  A    between atoms: C_2  and  C_16
REMARK    2  A    between atoms: N_3  and  C_4
REMARK                            x       y       z     vdW  Elec       q    Type
REMARK                         _______ _______ _______ _____ _____    ______ ____
ROOT
ATOM      1  C   UNL     1       2.315   7.277  19.679  0.00  0.00    +0.000 A 
ATOM      2  C   UNL     1       2.639   5.969  20.001  0.00  0.00    +0.000 A 
ATOM      3  C   UNL     1       3.488   5.234  19.173  0.00  0.00    +0.000 A 
ATOM      4  C   UNL     1       4.023   5.797  18.017  0.00  0.00    +0.000 A 
ATOM      5  N   UNL     1       4.874   5.074  17.207  0.00  0.00    +0.000 N 
ATOM      6  C   UNL     1       5.793   4.056  17.737  0.00  0.00    +0.000 C 
ATOM      7  C   UNL     1       7.256   4.501  17.581  0.00  0.00    +0.000 C 
ATOM      8  O   UNL     1       7.558   4.867  16.227  0.00  0.00    +0.000 OA
ATOM      9  C   UNL     1       6.721   5.962  15.819  0.00  0.00    +0.000 C 
ATOM     10  C   UNL     1       5.233   5.587  15.879  0.00  0.00    +0.000 C 
ATOM     11  N   UNL     1       3.659   7.049  17.659  0.00  0.00    +0.000 NA
ATOM     12  C   UNL     1       2.821   7.749  18.477  0.00  0.00    +0.000 A 
ENDROOT
BRANCH   1  15
ATOM     13  O   UNL     1       0.965   9.719  18.946  0.00  0.00    +0.000 OA
ATOM     14  C   UNL     1       0.906   9.285  20.093  0.00  0.00    +0.000 C 
ATOM     15  N   UNL     1       1.512   8.101  20.501  0.00  0.00    +0.000 N 
ATOM     16  H   UNL     1       1.252   7.752  21.417  0.00  0.00    +0.000 HD
BRANCH  14  17
ATOM     17  C   UNL     1       0.122   9.995  21.098  0.00  0.00    +0.000 A 
ATOM     18  C   UNL     1      -0.120   9.539  22.383  0.00  0.00    +0.000 A 
ATOM     19  C   UNL     1      -0.956  10.411  23.130  0.00  0.00    +0.000 A 
ATOM     20  C   UNL     1      -1.328  11.511  22.390  0.00  0.00    +0.000 A 
ATOM     21  S   UNL     1      -0.652  11.491  20.816  0.00  0.00    +0.000 S 
ENDBRANCH  14  17
ENDBRANCH   1  15
TORSDOF 2
ENDMDL
MODEL 9
REMARK VINA RESULT:      -6.2      2.626      4.216
REMARK  Name = 
REMARK  2 active torsions:
REMARK  status: ('A' for Active; 'I' for Inactive)
REMARK    1  A    between atoms: C_2  and  C_16
REMARK    2  A    between atoms: N_3  and  C_4
REMARK                            x       y       z     vdW  Elec       q    Type
REMARK                         _______ _______ _______ _____ _____    ______ ____
ROOT
ATOM      1  C   UNL     1       0.859   9.123  21.524  0.00  0.00    +0.000 A 
ATOM      2  C   UNL     1      -0.128   8.875  22.465  0.00  0.00    +0.000 A 
ATOM      3  C   UNL     1      -0.875   9.929  22.990  0.00  0.00    +0.000 A 
ATOM      4  C   UNL     1      -0.646  11.240  22.581  0.00  0.00    +0.000 A 
ATOM      5  N   UNL     1      -1.396  12.281  23.090  0.00  0.00    +0.000 N 
ATOM      6  C   UNL     1      -2.803  12.120  23.487  0.00  0.00    +0.000 C 
ATOM      7  C   UNL     1      -3.731  12.917  22.556  0.00  0.00    +0.000 C 
ATOM      8  O   UNL     1      -3.337  14.293  22.464  0.00  0.00    +0.000 OA
ATOM      9  C   UNL     1      -2.002  14.385  21.936  0.00  0.00    +0.000 C 
ATOM     10  C   UNL     1      -0.988  13.669  22.840  0.00  0.00    +0.000 C 
ATOM     11  N   UNL     1       0.359  11.500  21.715  0.00  0.00    +0.000 NA
ATOM     12  C   UNL     1       1.084  10.457  21.218  0.00  0.00    +0.000 A 
ENDROOT
BRANCH   1  15
ATOM     13  O   UNL     1       1.495   8.855  18.724  0.00  0.00    +0.000 OA
ATOM     14  C   UNL     1       1.864   8.013  19.538  0.00  0.00    +0.000 C 
ATOM     15  N   UNL     1       1.612   8.099  20.903  0.00  0.00    +0.000 N 
ATOM     16  H   UNL     1       2.110   7.447  21.498  0.00  0.00    +0.000 HD
BRANCH  14  17
ATOM     17  C   UNL     1       2.658   6.873  19.094  0.00  0.00    +0.000 A 
ATOM     18  C   UNL     1       3.421   6.838  17.939  0.00  0.00    +0.000 A 
ATOM     19  C   UNL     1       4.051   5.583  17.729  0.00  0.00    +0.000 A 
ATOM     20  C   UNL     1       3.749   4.692  18.735  0.00  0.00    +0.000 A 
ATOM     21  S   UNL     1       2.731   5.383  19.927  0.00  0.00    +0.000 S 
ENDBRANCH  14  17
ENDBRANCH   1  15
TORSDOF 2
ENDMDL
