MODEL 1
REMARK VINA RESULT:      -8.4      0.000      0.000
REMARK  Name = 
REMARK  7 active torsions:
REMARK  status: ('A' for Active; 'I' for Inactive)
REMARK    1  A    between atoms: C_2  and  C_4
REMARK    2  A    between atoms: C_4  and  O_5
REMARK    3  A    between atoms: O_5  and  C_6
REMARK    4  A    between atoms: C_11  and  N_12
REMARK    5  A    between atoms: N_15  and  C_16
REMARK    6  A    between atoms: N_19  and  C_20
REMARK    7  A    between atoms: C_20  and  C_21
REMARK                            x       y       z     vdW  Elec       q    Type
REMARK                         _______ _______ _______ _____ _____    ______ ____
ROOT
ATOM      1  N   UNL     1       2.259   6.374  18.102  0.00  0.00    +0.000 N 
ATOM      2  C   UNL     1       2.499   7.109  19.234  0.00  0.00    +0.000 C 
ATOM      3  O   UNL     1       3.068   6.717  20.248  0.00  0.00    +0.000 OA
ATOM      4  N   UNL     1       2.066   8.395  19.256  0.00  0.00    +0.000 N 
ATOM      5  H   UNL     1       2.076   6.869  17.243  0.00  0.00    +0.000 HD
ATOM      6  H   UNL     1       2.226   8.788  20.182  0.00  0.00    +0.000 HD
ENDROOT
BRANCH   1  12
ATOM      7  C   UNL     1       3.710   4.491  17.447  0.00  0.00    +0.000 A 
ATOM      8  C   UNL     1       3.887   3.104  17.264  0.00  0.00    +0.000 A 
ATOM      9  C   UNL     1       2.892   2.195  17.625  0.00  0.00    +0.000 A 
ATOM     10  C   UNL     1       1.702   2.659  18.147  0.00  0.00    +0.000 A 
ATOM     11  C   UNL     1       1.491   4.033  18.292  0.00  0.00    +0.000 A 
ATOM     12  C   UNL     1       2.480   4.970  17.954  0.00  0.00    +0.000 A 
BRANCH   7  13
ATOM     13  O   UNL     1       4.707   5.406  17.158  0.00  0.00    +0.000 OA
BRANCH  13  14
ATOM     14  C   UNL     1       5.877   5.280  17.980  0.00  0.00    +0.000 C 
BRANCH  14  16
ATOM     15  N   UNL     1       7.492   6.539  16.638  0.00  0.00    +0.000 N 
ATOM     16  C   UNL     1       7.194   5.356  17.232  0.00  0.00    +0.000 C 
ATOM     17  O   UNL     1       7.937   4.373  17.091  0.00  0.00    +0.000 OA
ATOM     18  H   UNL     1       8.321   6.587  16.049  0.00  0.00    +0.000 HD
ATOM     19  H   UNL     1       6.834   7.305  16.634  0.00  0.00    +0.000 HD
ENDBRANCH  14  16
ENDBRANCH  13  14
ENDBRANCH   7  13
ENDBRANCH   1  12
BRANCH   4  20
ATOM     20  C   UNL     1       1.234   9.175  18.344  0.00  0.00    +0.000 C 
ATOM     21  C   UNL     1       1.977  10.432  17.905  0.00  0.00    +0.000 C 
ATOM     22  C   UNL     1       1.500  11.490  18.889  0.00  0.00    +0.000 C 
ATOM     23  N   UNL     1       0.068  11.209  19.111  0.00  0.00    +0.000 NA
ATOM     24  C   UNL     1      -0.052   9.730  19.003  0.00  0.00    +0.000 C 
BRANCH  23  25
ATOM     25  C   UNL     1      -0.739  11.954  18.121  0.00  0.00    +0.000 C 
BRANCH  25  26
ATOM     26  C   UNL     1      -2.247  11.849  18.242  0.00  0.00    +0.000 A 
ATOM     27  C   UNL     1      -2.959  11.290  17.168  0.00  0.00    +0.000 A 
ATOM     28  C   UNL     1      -4.327  11.051  17.264  0.00  0.00    +0.000 A 
ATOM     29  C   UNL     1      -5.004  11.364  18.442  0.00  0.00    +0.000 A 
ATOM     30  C   UNL     1      -6.276  10.842  18.684  0.00  0.00    +0.000 A 
ATOM     31  C   UNL     1      -6.865  11.055  19.919  0.00  0.00    +0.000 A 
ATOM     32  F   UNL     1      -7.855  10.243  20.319  0.00  0.00    +0.000 F 
ATOM     33  C   UNL     1      -6.367  12.002  20.800  0.00  0.00    +0.000 A 
ATOM     34  C   UNL     1      -5.100  12.535  20.567  0.00  0.00    +0.000 A 
ATOM     35  C   UNL     1      -4.356  12.113  19.451  0.00  0.00    +0.000 A 
ATOM     36  C   UNL     1      -2.969  12.337  19.342  0.00  0.00    +0.000 A 
ENDBRANCH  25  26
ENDBRANCH  23  25
ENDBRANCH   4  20
TORSDOF 7
ENDMDL
MODEL 2
REMARK VINA RESULT:      -7.9      1.665      2.814
REMARK  Name = 
REMARK  7 active torsions:
REMARK  status: ('A' for Active; 'I' for Inactive)
REMARK    1  A    between atoms: C_2  and  C_4
REMARK    2  A    between atoms: C_4  and  O_5
REMARK    3  A    between atoms: O_5  and  C_6
REMARK    4  A    between atoms: C_11  and  N_12
REMARK    5  A    between atoms: N_15  and  C_16
REMARK    6  A    between atoms: N_19  and  C_20
REMARK    7  A    between atoms: C_20  and  C_21
REMARK                            x       y       z     vdW  Elec       q    Type
REMARK                         _______ _______ _______ _____ _____    ______ ____
ROOT
ATOM      1  N   UNL     1       2.819   7.142  18.120  0.00  0.00    +0.000 N 
ATOM      2  C   UNL     1       2.422   7.313  19.422  0.00  0.00    +0.000 C 
ATOM      3  O   UNL     1       2.787   6.647  20.386  0.00  0.00    +0.000 OA
ATOM      4  N   UNL     1       1.535   8.305  19.687  0.00  0.00    +0.000 N 
ATOM      5  H   UNL     1       2.708   7.916  17.484  0.00  0.00    +0.000 HD
ATOM      6  H   UNL     1       1.260   8.258  20.666  0.00  0.00    +0.000 HD
ENDROOT
BRANCH   1  12
ATOM      7  C   UNL     1       3.029   4.771  17.474  0.00  0.00    +0.000 A 
ATOM      8  C   UNL     1       3.834   3.704  17.027  0.00  0.00    +0.000 A 
ATOM      9  C   UNL     1       5.170   3.905  16.676  0.00  0.00    +0.000 A 
ATOM     10  C   UNL     1       5.723   5.164  16.792  0.00  0.00    +0.000 A 
ATOM     11  C   UNL     1       4.953   6.224  17.277  0.00  0.00    +0.000 A 
ATOM     12  C   UNL     1       3.602   6.056  17.621  0.00  0.00    +0.000 A 
BRANCH   7  13
ATOM     13  O   UNL     1       1.686   4.610  17.765  0.00  0.00    +0.000 OA
BRANCH  13  14
ATOM     14  C   UNL     1       1.353   3.326  18.312  0.00  0.00    +0.000 C 
BRANCH  14  16
ATOM     15  N   UNL     1       0.737   4.189  20.519  0.00  0.00    +0.000 N 
ATOM     16  C   UNL     1       1.414   3.240  19.825  0.00  0.00    +0.000 C 
ATOM     17  O   UNL     1       2.110   2.400  20.416  0.00  0.00    +0.000 OA
ATOM     18  H   UNL     1       0.842   4.212  21.532  0.00  0.00    +0.000 HD
ATOM     19  H   UNL     1       0.276   4.954  20.049  0.00  0.00    +0.000 HD
ENDBRANCH  14  16
ENDBRANCH  13  14
ENDBRANCH   7  13
ENDBRANCH   1  12
BRANCH   4  20
ATOM     20  C   UNL     1       0.760   9.195  18.828  0.00  0.00    +0.000 C 
ATOM     21  C   UNL     1       1.659  10.292  18.266  0.00  0.00    +0.000 C 
ATOM     22  C   UNL     1       1.472  11.440  19.247  0.00  0.00    +0.000 C 
ATOM     23  N   UNL     1       0.043  11.419  19.617  0.00  0.00    +0.000 NA
ATOM     24  C   UNL     1      -0.338   9.982  19.584  0.00  0.00    +0.000 C 
BRANCH  23  25
ATOM     25  C   UNL     1      -0.721  12.269  18.680  0.00  0.00    +0.000 C 
BRANCH  25  26
ATOM     26  C   UNL     1      -2.227  12.090  18.658  0.00  0.00    +0.000 A 
ATOM     27  C   UNL     1      -2.809  11.520  17.514  0.00  0.00    +0.000 A 
ATOM     28  C   UNL     1      -4.166  11.215  17.479  0.00  0.00    +0.000 A 
ATOM     29  C   UNL     1      -4.963  11.471  18.594  0.00  0.00    +0.000 A 
ATOM     30  C   UNL     1      -6.225  10.884  18.708  0.00  0.00    +0.000 A 
ATOM     31  C   UNL     1      -6.935  11.043  19.887  0.00  0.00    +0.000 A 
ATOM     32  F   UNL     1      -7.916  10.177  20.179  0.00  0.00    +0.000 F 
ATOM     33  C   UNL     1      -6.566  11.993  20.825  0.00  0.00    +0.000 A 
ATOM     34  C   UNL     1      -5.311  12.591  20.720  0.00  0.00    +0.000 A 
ATOM     35  C   UNL     1      -4.448  12.228  19.670  0.00  0.00    +0.000 A 
ATOM     36  C   UNL     1      -3.070  12.520  19.695  0.00  0.00    +0.000 A 
ENDBRANCH  25  26
ENDBRANCH  23  25
ENDBRANCH   4  20
TORSDOF 7
ENDMDL
MODEL 3
REMARK VINA RESULT:      -7.9      2.688      3.748
REMARK  Name = 
REMARK  7 active torsions:
REMARK  status: ('A' for Active; 'I' for Inactive)
REMARK    1  A    between atoms: C_2  and  C_4
REMARK    2  A    between atoms: C_4  and  O_5
REMARK    3  A    between atoms: O_5  and  C_6
REMARK    4  A    between atoms: C_11  and  N_12
REMARK    5  A    between atoms: N_15  and  C_16
REMARK    6  A    between atoms: N_19  and  C_20
REMARK    7  A    between atoms: C_20  and  C_21
REMARK                            x       y       z     vdW  Elec       q    Type
REMARK                         _______ _______ _______ _____ _____    ______ ____
ROOT
ATOM      1  N   UNL     1       3.629   6.616  18.874  0.00  0.00    +0.000 N 
ATOM      2  C   UNL     1       2.489   6.030  19.361  0.00  0.00    +0.000 C 
ATOM      3  O   UNL     1       2.074   4.909  19.085  0.00  0.00    +0.000 OA
ATOM      4  N   UNL     1       1.732   6.746  20.230  0.00  0.00    +0.000 N 
ATOM      5  H   UNL     1       4.029   7.384  19.392  0.00  0.00    +0.000 HD
ATOM      6  H   UNL     1       0.878   6.231  20.436  0.00  0.00    +0.000 HD
ENDROOT
BRANCH   1  12
ATOM      7  C   UNL     1       5.247   4.947  18.051  0.00  0.00    +0.000 A 
ATOM      8  C   UNL     1       6.092   4.482  17.023  0.00  0.00    +0.000 A 
ATOM      9  C   UNL     1       6.119   5.105  15.774  0.00  0.00    +0.000 A 
ATOM     10  C   UNL     1       5.325   6.211  15.547  0.00  0.00    +0.000 A 
ATOM     11  C   UNL     1       4.516   6.713  16.569  0.00  0.00    +0.000 A 
ATOM     12  C   UNL     1       4.455   6.097  17.829  0.00  0.00    +0.000 A 
BRANCH   7  13
ATOM     13  O   UNL     1       5.155   4.307  19.275  0.00  0.00    +0.000 OA
BRANCH  13  14
ATOM     14  C   UNL     1       4.656   2.964  19.199  0.00  0.00    +0.000 C 
BRANCH  14  16
ATOM     15  N   UNL     1       3.033   2.634  21.002  0.00  0.00    +0.000 N 
ATOM     16  C   UNL     1       4.273   2.348  20.531  0.00  0.00    +0.000 C 
ATOM     17  O   UNL     1       5.068   1.680  21.210  0.00  0.00    +0.000 OA
ATOM     18  H   UNL     1       2.787   2.316  21.937  0.00  0.00    +0.000 HD
ATOM     19  H   UNL     1       2.426   3.283  20.523  0.00  0.00    +0.000 HD
ENDBRANCH  14  16
ENDBRANCH  13  14
ENDBRANCH   7  13
ENDBRANCH   1  12
BRANCH   4  20
ATOM     20  C   UNL     1       1.790   8.133  20.683  0.00  0.00    +0.000 C 
ATOM     21  C   UNL     1       0.978   8.298  21.963  0.00  0.00    +0.000 C 
ATOM     22  C   UNL     1      -0.385   8.753  21.462  0.00  0.00    +0.000 C 
ATOM     23  N   UNL     1      -0.111   9.665  20.334  0.00  0.00    +0.000 NA
ATOM     24  C   UNL     1       1.125   9.130  19.704  0.00  0.00    +0.000 C 
BRANCH  23  25
ATOM     25  C   UNL     1       0.018  11.048  20.840  0.00  0.00    +0.000 C 
BRANCH  25  26
ATOM     26  C   UNL     1      -1.264  11.765  21.222  0.00  0.00    +0.000 A 
ATOM     27  C   UNL     1      -1.985  12.414  20.207  0.00  0.00    +0.000 A 
ATOM     28  C   UNL     1      -3.228  12.984  20.466  0.00  0.00    +0.000 A 
ATOM     29  C   UNL     1      -3.772  12.906  21.747  0.00  0.00    +0.000 A 
ATOM     30  C   UNL     1      -5.128  13.167  21.953  0.00  0.00    +0.000 A 
ATOM     31  C   UNL     1      -5.671  12.946  23.209  0.00  0.00    +0.000 A 
ATOM     32  F   UNL     1      -6.996  12.782  23.328  0.00  0.00    +0.000 F 
ATOM     33  C   UNL     1      -4.862  12.762  24.318  0.00  0.00    +0.000 A 
ATOM     34  C   UNL     1      -3.505  12.505  24.127  0.00  0.00    +0.000 A 
ATOM     35  C   UNL     1      -2.981  12.445  22.823  0.00  0.00    +0.000 A 
ATOM     36  C   UNL     1      -1.729  11.863  22.542  0.00  0.00    +0.000 A 
ENDBRANCH  25  26
ENDBRANCH  23  25
ENDBRANCH   4  20
TORSDOF 7
ENDMDL
MODEL 4
REMARK VINA RESULT:      -7.7      2.508      2.995
REMARK  Name = 
REMARK  7 active torsions:
REMARK  status: ('A' for Active; 'I' for Inactive)
REMARK    1  A    between atoms: C_2  and  C_4
REMARK    2  A    between atoms: C_4  and  O_5
REMARK    3  A    between atoms: O_5  and  C_6
REMARK    4  A    between atoms: C_11  and  N_12
REMARK    5  A    between atoms: N_15  and  C_16
REMARK    6  A    between atoms: N_19  and  C_20
REMARK    7  A    between atoms: C_20  and  C_21
REMARK                            x       y       z     vdW  Elec       q    Type
REMARK                         _______ _______ _______ _____ _____    ______ ____
ROOT
ATOM      1  N   UNL     1       2.610   6.257  19.454  0.00  0.00    +0.000 N 
ATOM      2  C   UNL     1       1.964   5.976  20.631  0.00  0.00    +0.000 C 
ATOM      3  O   UNL     1       1.755   4.860  21.097  0.00  0.00    +0.000 OA
ATOM      4  N   UNL     1       1.497   7.021  21.361  0.00  0.00    +0.000 N 
ATOM      5  H   UNL     1       2.992   7.182  19.331  0.00  0.00    +0.000 HD
ATOM      6  H   UNL     1       0.964   6.666  22.153  0.00  0.00    +0.000 HD
ENDROOT
BRANCH   1  12
ATOM      7  C   UNL     1       4.318   5.345  17.927  0.00  0.00    +0.000 A 
ATOM      8  C   UNL     1       4.677   4.421  16.925  0.00  0.00    +0.000 A 
ATOM      9  C   UNL     1       3.789   3.431  16.503  0.00  0.00    +0.000 A 
ATOM     10  C   UNL     1       2.526   3.368  17.055  0.00  0.00    +0.000 A 
ATOM     11  C   UNL     1       2.136   4.304  18.017  0.00  0.00    +0.000 A 
ATOM     12  C   UNL     1       3.014   5.300  18.474  0.00  0.00    +0.000 A 
BRANCH   7  13
ATOM     13  O   UNL     1       5.203   6.293  18.409  0.00  0.00    +0.000 OA
BRANCH  13  14
ATOM     14  C   UNL     1       6.484   6.283  17.762  0.00  0.00    +0.000 C 
BRANCH  14  16
ATOM     15  N   UNL     1       8.193   6.193  19.513  0.00  0.00    +0.000 N 
ATOM     16  C   UNL     1       7.570   5.531  18.507  0.00  0.00    +0.000 C 
ATOM     17  O   UNL     1       7.941   4.394  18.174  0.00  0.00    +0.000 OA
ATOM     18  H   UNL     1       8.990   5.748  19.963  0.00  0.00    +0.000 HD
ATOM     19  H   UNL     1       7.991   7.164  19.706  0.00  0.00    +0.000 HD
ENDBRANCH  14  16
ENDBRANCH  13  14
ENDBRANCH   7  13
ENDBRANCH   1  12
BRANCH   4  20
ATOM     20  C   UNL     1       1.404   8.453  21.092  0.00  0.00    +0.000 C 
ATOM     21  C   UNL     1       1.736   9.244  22.353  0.00  0.00    +0.000 C 
ATOM     22  C   UNL     1       0.373   9.499  22.981  0.00  0.00    +0.000 C 
ATOM     23  N   UNL     1      -0.541   9.765  21.853  0.00  0.00    +0.000 NA
ATOM     24  C   UNL     1      -0.028   8.922  20.740  0.00  0.00    +0.000 C 
BRANCH  23  25
ATOM     25  C   UNL     1      -0.550  11.214  21.558  0.00  0.00    +0.000 C 
BRANCH  25  26
ATOM     26  C   UNL     1      -1.858  11.952  21.772  0.00  0.00    +0.000 A 
ATOM     27  C   UNL     1      -2.403  12.660  20.689  0.00  0.00    +0.000 A 
ATOM     28  C   UNL     1      -3.658  13.255  20.782  0.00  0.00    +0.000 A 
ATOM     29  C   UNL     1      -4.392  13.143  21.962  0.00  0.00    +0.000 A 
ATOM     30  C   UNL     1      -5.757  13.435  21.973  0.00  0.00    +0.000 A 
ATOM     31  C   UNL     1      -6.488  13.182  23.122  0.00  0.00    +0.000 A 
ATOM     32  F   UNL     1      -7.819  13.051  23.033  0.00  0.00    +0.000 F 
ATOM     33  C   UNL     1      -5.861  12.932  24.332  0.00  0.00    +0.000 A 
ATOM     34  C   UNL     1      -4.497  12.645  24.336  0.00  0.00    +0.000 A 
ATOM     35  C   UNL     1      -3.783  12.619  23.125  0.00  0.00    +0.000 A 
ATOM     36  C   UNL     1      -2.516  12.012  23.011  0.00  0.00    +0.000 A 
ENDBRANCH  25  26
ENDBRANCH  23  25
ENDBRANCH   4  20
TORSDOF 7
ENDMDL
MODEL 5
REMARK VINA RESULT:      -7.7      1.065      1.621
REMARK  Name = 
REMARK  7 active torsions:
REMARK  status: ('A' for Active; 'I' for Inactive)
REMARK    1  A    between atoms: C_2  and  C_4
REMARK    2  A    between atoms: C_4  and  O_5
REMARK    3  A    between atoms: O_5  and  C_6
REMARK    4  A    between atoms: C_11  and  N_12
REMARK    5  A    between atoms: N_15  and  C_16
REMARK    6  A    between atoms: N_19  and  C_20
REMARK    7  A    between atoms: C_20  and  C_21
REMARK                            x       y       z     vdW  Elec       q    Type
REMARK                         _______ _______ _______ _____ _____    ______ ____
ROOT
ATOM      1  N   UNL     1       2.085   6.327  18.372  0.00  0.00    +0.000 N 
ATOM      2  C   UNL     1       2.348   6.979  19.550  0.00  0.00    +0.000 C 
ATOM      3  O   UNL     1       2.996   6.539  20.494  0.00  0.00    +0.000 OA
ATOM      4  N   UNL     1       1.845   8.230  19.706  0.00  0.00    +0.000 N 
ATOM      5  H   UNL     1       1.824   6.880  17.570  0.00  0.00    +0.000 HD
ATOM      6  H   UNL     1       2.036   8.554  20.652  0.00  0.00    +0.000 HD
ENDROOT
BRANCH   1  12
ATOM      7  C   UNL     1       3.573   4.602  17.429  0.00  0.00    +0.000 A 
ATOM      8  C   UNL     1       3.816   3.248  17.120  0.00  0.00    +0.000 A 
ATOM      9  C   UNL     1       2.922   2.248  17.505  0.00  0.00    +0.000 A 
ATOM     10  C   UNL     1       1.766   2.589  18.177  0.00  0.00    +0.000 A 
ATOM     11  C   UNL     1       1.487   3.931  18.452  0.00  0.00    +0.000 A 
ATOM     12  C   UNL     1       2.376   4.956  18.093  0.00  0.00    +0.000 A 
BRANCH   7  13
ATOM     13  O   UNL     1       4.476   5.603  17.116  0.00  0.00    +0.000 OA
BRANCH  13  14
ATOM     14  C   UNL     1       5.657   5.606  17.932  0.00  0.00    +0.000 C 
BRANCH  14  16
ATOM     15  N   UNL     1       7.247   5.792  16.080  0.00  0.00    +0.000 N 
ATOM     16  C   UNL     1       6.870   6.257  17.298  0.00  0.00    +0.000 C 
ATOM     17  O   UNL     1       7.547   7.117  17.883  0.00  0.00    +0.000 OA
ATOM     18  H   UNL     1       8.114   6.143  15.677  0.00  0.00    +0.000 HD
ATOM     19  H   UNL     1       6.784   5.003  15.653  0.00  0.00    +0.000 HD
ENDBRANCH  14  16
ENDBRANCH  13  14
ENDBRANCH   7  13
ENDBRANCH   1  12
BRANCH   4  20
ATOM     20  C   UNL     1       0.919   9.030  18.910  0.00  0.00    +0.000 C 
ATOM     21  C   UNL     1       1.693   9.885  17.911  0.00  0.00    +0.000 C 
ATOM     22  C   UNL     1       1.866  11.211  18.636  0.00  0.00    +0.000 C 
ATOM     23  N   UNL     1       0.601  11.434  19.365  0.00  0.00    +0.000 NA
ATOM     24  C   UNL     1       0.133  10.073  19.741  0.00  0.00    +0.000 C 
BRANCH  23  25
ATOM     25  C   UNL     1      -0.339  12.179  18.501  0.00  0.00    +0.000 C 
BRANCH  25  26
ATOM     26  C   UNL     1      -1.801  12.169  18.905  0.00  0.00    +0.000 A 
ATOM     27  C   UNL     1      -2.161  12.812  20.100  0.00  0.00    +0.000 A 
ATOM     28  C   UNL     1      -3.497  12.947  20.466  0.00  0.00    +0.000 A 
ATOM     29  C   UNL     1      -4.497  12.443  19.635  0.00  0.00    +0.000 A 
ATOM     30  C   UNL     1      -5.823  12.846  19.804  0.00  0.00    +0.000 A 
ATOM     31  C   UNL     1      -6.771  12.440  18.879  0.00  0.00    +0.000 A 
ATOM     32  F   UNL     1      -7.917  13.128  18.774  0.00  0.00    +0.000 F 
ATOM     33  C   UNL     1      -6.504  11.424  17.976  0.00  0.00    +0.000 A 
ATOM     34  C   UNL     1      -5.185  11.008  17.801  0.00  0.00    +0.000 A 
ATOM     35  C   UNL     1      -4.154  11.616  18.541  0.00  0.00    +0.000 A 
ATOM     36  C   UNL     1      -2.798  11.499  18.179  0.00  0.00    +0.000 A 
ENDBRANCH  25  26
ENDBRANCH  23  25
ENDBRANCH   4  20
TORSDOF 7
ENDMDL
MODEL 6
REMARK VINA RESULT:      -7.6      4.642     10.517
REMARK  Name = 
REMARK  7 active torsions:
REMARK  status: ('A' for Active; 'I' for Inactive)
REMARK    1  A    between atoms: C_2  and  C_4
REMARK    2  A    between atoms: C_4  and  O_5
REMARK    3  A    between atoms: O_5  and  C_6
REMARK    4  A    between atoms: C_11  and  N_12
REMARK    5  A    between atoms: N_15  and  C_16
REMARK    6  A    between atoms: N_19  and  C_20
REMARK    7  A    between atoms: C_20  and  C_21
REMARK                            x       y       z     vdW  Elec       q    Type
REMARK                         _______ _______ _______ _____ _____    ______ ____
ROOT
ATOM      1  N   UNL     1      -1.914  11.813  21.685  0.00  0.00    +0.000 N 
ATOM      2  C   UNL     1      -0.628  12.289  21.658  0.00  0.00    +0.000 C 
ATOM      3  O   UNL     1      -0.176  13.202  22.342  0.00  0.00    +0.000 OA
ATOM      4  N   UNL     1       0.243  11.710  20.792  0.00  0.00    +0.000 N 
ATOM      5  H   UNL     1      -2.086  10.887  21.325  0.00  0.00    +0.000 HD
ATOM      6  H   UNL     1       1.125  12.218  20.812  0.00  0.00    +0.000 HD
ENDROOT
BRANCH   1  12
ATOM      7  C   UNL     1      -3.998  13.131  21.699  0.00  0.00    +0.000 A 
ATOM      8  C   UNL     1      -5.040  13.742  22.425  0.00  0.00    +0.000 A 
ATOM      9  C   UNL     1      -5.140  13.593  23.809  0.00  0.00    +0.000 A 
ATOM     10  C   UNL     1      -4.190  12.856  24.485  0.00  0.00    +0.000 A 
ATOM     11  C   UNL     1      -3.124  12.281  23.788  0.00  0.00    +0.000 A 
ATOM     12  C   UNL     1      -3.007  12.400  22.394  0.00  0.00    +0.000 A 
BRANCH   7  13
ATOM     13  O   UNL     1      -3.915  13.211  20.320  0.00  0.00    +0.000 OA
BRANCH  13  14
ATOM     14  C   UNL     1      -5.045  12.657  19.630  0.00  0.00    +0.000 C 
BRANCH  14  16
ATOM     15  N   UNL     1      -3.576  12.042  17.771  0.00  0.00    +0.000 N 
ATOM     16  C   UNL     1      -4.701  11.746  18.468  0.00  0.00    +0.000 C 
ATOM     17  O   UNL     1      -5.443  10.819  18.106  0.00  0.00    +0.000 OA
ATOM     18  H   UNL     1      -3.375  11.507  16.928  0.00  0.00    +0.000 HD
ATOM     19  H   UNL     1      -3.036  12.871  17.973  0.00  0.00    +0.000 HD
ENDBRANCH  14  16
ENDBRANCH  13  14
ENDBRANCH   7  13
ENDBRANCH   1  12
BRANCH   4  20
ATOM     20  C   UNL     1       0.071  10.729  19.725  0.00  0.00    +0.000 C 
ATOM     21  C   UNL     1       0.053   9.320  20.308  0.00  0.00    +0.000 C 
ATOM     22  C   UNL     1       1.500   8.867  20.188  0.00  0.00    +0.000 C 
ATOM     23  N   UNL     1       1.979   9.402  18.898  0.00  0.00    +0.000 NA
ATOM     24  C   UNL     1       1.253  10.689  18.727  0.00  0.00    +0.000 C 
BRANCH  23  25
ATOM     25  C   UNL     1       1.719   8.414  17.829  0.00  0.00    +0.000 C 
BRANCH  25  26
ATOM     26  C   UNL     1       2.466   7.097  17.912  0.00  0.00    +0.000 A 
ATOM     27  C   UNL     1       3.853   7.109  17.692  0.00  0.00    +0.000 A 
ATOM     28  C   UNL     1       4.615   5.959  17.874  0.00  0.00    +0.000 A 
ATOM     29  C   UNL     1       3.999   4.777  18.285  0.00  0.00    +0.000 A 
ATOM     30  C   UNL     1       4.764   3.721  18.786  0.00  0.00    +0.000 A 
ATOM     31  C   UNL     1       4.117   2.617  19.316  0.00  0.00    +0.000 A 
ATOM     32  F   UNL     1       4.782   1.813  20.157  0.00  0.00    +0.000 F 
ATOM     33  C   UNL     1       2.766   2.403  19.099  0.00  0.00    +0.000 A 
ATOM     34  C   UNL     1       1.992   3.447  18.594  0.00  0.00    +0.000 A 
ATOM     35  C   UNL     1       2.589   4.688  18.310  0.00  0.00    +0.000 A 
ATOM     36  C   UNL     1       1.833   5.864  18.134  0.00  0.00    +0.000 A 
ENDBRANCH  25  26
ENDBRANCH  23  25
ENDBRANCH   4  20
TORSDOF 7
ENDMDL
MODEL 7
REMARK VINA RESULT:      -7.6      4.948      9.947
REMARK  Name = 
REMARK  7 active torsions:
REMARK  status: ('A' for Active; 'I' for Inactive)
REMARK    1  A    between atoms: C_2  and  C_4
REMARK    2  A    between atoms: C_4  and  O_5
REMARK    3  A    between atoms: O_5  and  C_6
REMARK    4  A    between atoms: C_11  and  N_12
REMARK    5  A    between atoms: N_15  and  C_16
REMARK    6  A    between atoms: N_19  and  C_20
REMARK    7  A    between atoms: C_20  and  C_21
REMARK                            x       y       z     vdW  Elec       q    Type
REMARK                         _______ _______ _______ _____ _____    ______ ____
ROOT
ATOM      1  N   UNL     1      -1.904  11.364  19.419  0.00  0.00    +0.000 N 
ATOM      2  C   UNL     1      -1.786  12.511  20.162  0.00  0.00    +0.000 C 
ATOM      3  O   UNL     1      -2.393  13.561  19.979  0.00  0.00    +0.000 OA
ATOM      4  N   UNL     1      -0.913  12.503  21.202  0.00  0.00    +0.000 N 
ATOM      5  H   UNL     1      -1.608  10.495  19.835  0.00  0.00    +0.000 HD
ATOM      6  H   UNL     1      -0.860  13.438  21.603  0.00  0.00    +0.000 HD
ENDROOT
BRANCH   1  12
ATOM      7  C   UNL     1      -4.037  11.376  18.182  0.00  0.00    +0.000 A 
ATOM      8  C   UNL     1      -4.738  11.193  16.973  0.00  0.00    +0.000 A 
ATOM      9  C   UNL     1      -4.063  10.925  15.781  0.00  0.00    +0.000 A 
ATOM     10  C   UNL     1      -2.688  10.812  15.787  0.00  0.00    +0.000 A 
ATOM     11  C   UNL     1      -1.981  10.946  16.985  0.00  0.00    +0.000 A 
ATOM     12  C   UNL     1      -2.630  11.232  18.196  0.00  0.00    +0.000 A 
BRANCH   7  13
ATOM     13  O   UNL     1      -4.678  11.707  19.364  0.00  0.00    +0.000 OA
BRANCH  13  14
ATOM     14  C   UNL     1      -6.109  11.760  19.261  0.00  0.00    +0.000 C 
BRANCH  14  16
ATOM     15  N   UNL     1      -7.734  10.171  20.171  0.00  0.00    +0.000 N 
ATOM     16  C   UNL     1      -6.857  11.171  20.440  0.00  0.00    +0.000 C 
ATOM     17  O   UNL     1      -6.748  11.622  21.591  0.00  0.00    +0.000 OA
ATOM     18  H   UNL     1      -8.320   9.826  20.928  0.00  0.00    +0.000 HD
ATOM     19  H   UNL     1      -7.929   9.886  19.222  0.00  0.00    +0.000 HD
ENDBRANCH  14  16
ENDBRANCH  13  14
ENDBRANCH   7  13
ENDBRANCH   1  12
BRANCH   4  20
ATOM     20  C   UNL     1       0.085  11.536  21.648  0.00  0.00    +0.000 C 
ATOM     21  C   UNL     1       1.341  11.648  20.790  0.00  0.00    +0.000 C 
ATOM     22  C   UNL     1       1.128  10.596  19.711  0.00  0.00    +0.000 C 
ATOM     23  N   UNL     1       0.488   9.453  20.392  0.00  0.00    +0.000 NA
ATOM     24  C   UNL     1      -0.352  10.064  21.456  0.00  0.00    +0.000 C 
BRANCH  23  25
ATOM     25  C   UNL     1       1.531   8.535  20.897  0.00  0.00    +0.000 C 
BRANCH  25  26
ATOM     26  C   UNL     1       1.713   7.224  20.156  0.00  0.00    +0.000 A 
ATOM     27  C   UNL     1       2.293   7.262  18.878  0.00  0.00    +0.000 A 
ATOM     28  C   UNL     1       2.601   6.088  18.197  0.00  0.00    +0.000 A 
ATOM     29  C   UNL     1       2.338   4.854  18.791  0.00  0.00    +0.000 A 
ATOM     30  C   UNL     1       2.926   3.691  18.289  0.00  0.00    +0.000 A 
ATOM     31  C   UNL     1       2.759   2.502  18.980  0.00  0.00    +0.000 A 
ATOM     32  F   UNL     1       3.624   1.500  18.772  0.00  0.00    +0.000 F 
ATOM     33  C   UNL     1       1.800   2.377  19.972  0.00  0.00    +0.000 A 
ATOM     34  C   UNL     1       1.201   3.529  20.479  0.00  0.00    +0.000 A 
ATOM     35  C   UNL     1       1.571   4.790  19.976  0.00  0.00    +0.000 A 
ATOM     36  C   UNL     1       1.276   5.988  20.657  0.00  0.00    +0.000 A 
ENDBRANCH  25  26
ENDBRANCH  23  25
ENDBRANCH   4  20
TORSDOF 7
ENDMDL
MODEL 8
REMARK VINA RESULT:      -7.6      4.635     10.587
REMARK  Name = 
REMARK  7 active torsions:
REMARK  status: ('A' for Active; 'I' for Inactive)
REMARK    1  A    between atoms: C_2  and  C_4
REMARK    2  A    between atoms: C_4  and  O_5
REMARK    3  A    between atoms: O_5  and  C_6
REMARK    4  A    between atoms: C_11  and  N_12
REMARK    5  A    between atoms: N_15  and  C_16
REMARK    6  A    between atoms: N_19  and  C_20
REMARK    7  A    between atoms: C_20  and  C_21
REMARK                            x       y       z     vdW  Elec       q    Type
REMARK                         _______ _______ _______ _____ _____    ______ ____
ROOT
ATOM      1  N   UNL     1      -1.857  11.780  20.569  0.00  0.00    +0.000 N 
ATOM      2  C   UNL     1      -0.564  12.095  20.236  0.00  0.00    +0.000 C 
ATOM      3  O   UNL     1      -0.100  13.225  20.117  0.00  0.00    +0.000 OA
ATOM      4  N   UNL     1       0.297  11.072  20.008  0.00  0.00    +0.000 N 
ATOM      5  H   UNL     1      -2.042  10.860  20.938  0.00  0.00    +0.000 HD
ATOM      6  H   UNL     1       1.186  11.447  19.683  0.00  0.00    +0.000 HD
ENDROOT
BRANCH   1  12
ATOM      7  C   UNL     1      -4.104  12.534  19.889  0.00  0.00    +0.000 A 
ATOM      8  C   UNL     1      -5.140  13.486  19.975  0.00  0.00    +0.000 A 
ATOM      9  C   UNL     1      -5.062  14.561  20.861  0.00  0.00    +0.000 A 
ATOM     10  C   UNL     1      -3.940  14.713  21.651  0.00  0.00    +0.000 A 
ATOM     11  C   UNL     1      -2.883  13.805  21.546  0.00  0.00    +0.000 A 
ATOM     12  C   UNL     1      -2.942  12.704  20.676  0.00  0.00    +0.000 A 
BRANCH   7  13
ATOM     13  O   UNL     1      -4.188  11.425  19.066  0.00  0.00    +0.000 OA
BRANCH  13  14
ATOM     14  C   UNL     1      -4.158  11.730  17.664  0.00  0.00    +0.000 C 
BRANCH  14  16
ATOM     15  N   UNL     1      -1.847  12.037  16.918  0.00  0.00    +0.000 N 
ATOM     16  C   UNL     1      -2.933  11.225  16.926  0.00  0.00    +0.000 C 
ATOM     17  O   UNL     1      -2.933  10.162  16.286  0.00  0.00    +0.000 OA
ATOM     18  H   UNL     1      -1.047  11.767  16.349  0.00  0.00    +0.000 HD
ATOM     19  H   UNL     1      -1.879  12.961  17.322  0.00  0.00    +0.000 HD
ENDBRANCH  14  16
ENDBRANCH  13  14
ENDBRANCH   7  13
ENDBRANCH   1  12
BRANCH   4  20
ATOM     20  C   UNL     1       0.111   9.628  19.898  0.00  0.00    +0.000 C 
ATOM     21  C   UNL     1      -0.032   9.012  21.286  0.00  0.00    +0.000 C 
ATOM     22  C   UNL     1       1.385   8.579  21.630  0.00  0.00    +0.000 C 
ATOM     23  N   UNL     1       1.962   8.068  20.371  0.00  0.00    +0.000 NA
ATOM     24  C   UNL     1       1.336   8.892  19.303  0.00  0.00    +0.000 C 
BRANCH  23  25
ATOM     25  C   UNL     1       1.687   6.619  20.257  0.00  0.00    +0.000 C 
BRANCH  25  26
ATOM     26  C   UNL     1       2.619   5.809  19.376  0.00  0.00    +0.000 A 
ATOM     27  C   UNL     1       2.051   5.009  18.372  0.00  0.00    +0.000 A 
ATOM     28  C   UNL     1       2.852   4.338  17.453  0.00  0.00    +0.000 A 
ATOM     29  C   UNL     1       4.239   4.464  17.521  0.00  0.00    +0.000 A 
ATOM     30  C   UNL     1       5.035   4.084  16.439  0.00  0.00    +0.000 A 
ATOM     31  C   UNL     1       6.394   4.349  16.480  0.00  0.00    +0.000 A 
ATOM     32  F   UNL     1       7.086   4.385  15.332  0.00  0.00    +0.000 F 
ATOM     33  C   UNL     1       7.021   4.705  17.663  0.00  0.00    +0.000 A 
ATOM     34  C   UNL     1       6.238   5.082  18.752  0.00  0.00    +0.000 A 
ATOM     35  C   UNL     1       4.836   5.089  18.639  0.00  0.00    +0.000 A 
ATOM     36  C   UNL     1       4.011   5.772  19.555  0.00  0.00    +0.000 A 
ENDBRANCH  25  26
ENDBRANCH  23  25
ENDBRANCH   4  20
TORSDOF 7
ENDMDL
MODEL 9
REMARK VINA RESULT:      -7.5      4.393      9.982
REMARK  Name = 
REMARK  7 active torsions:
REMARK  status: ('A' for Active; 'I' for Inactive)
REMARK    1  A    between atoms: C_2  and  C_4
REMARK    2  A    between atoms: C_4  and  O_5
REMARK    3  A    between atoms: O_5  and  C_6
REMARK    4  A    between atoms: C_11  and  N_12
REMARK    5  A    between atoms: N_15  and  C_16
REMARK    6  A    between atoms: N_19  and  C_20
REMARK    7  A    between atoms: C_20  and  C_21
REMARK                            x       y       z     vdW  Elec       q    Type
REMARK                         _______ _______ _______ _____ _____    ______ ____
ROOT
ATOM      1  N   UNL     1      -2.887  11.758  19.665  0.00  0.00    +0.000 N 
ATOM      2  C   UNL     1      -1.696  12.120  19.090  0.00  0.00    +0.000 C 
ATOM      3  O   UNL     1      -1.482  13.143  18.447  0.00  0.00    +0.000 OA
ATOM      4  N   UNL     1      -0.643  11.275  19.229  0.00  0.00    +0.000 N 
ATOM      5  H   UNL     1      -2.867  11.079  20.411  0.00  0.00    +0.000 HD
ATOM      6  H   UNL     1       0.141  11.621  18.679  0.00  0.00    +0.000 HD
ENDROOT
BRANCH   1  12
ATOM      7  C   UNL     1      -5.024  12.008  18.462  0.00  0.00    +0.000 A 
ATOM      8  C   UNL     1      -6.232  12.709  18.270  0.00  0.00    +0.000 A 
ATOM      9  C   UNL     1      -6.592  13.768  19.105  0.00  0.00    +0.000 A 
ATOM     10  C   UNL     1      -5.743  14.155  20.121  0.00  0.00    +0.000 A 
ATOM     11  C   UNL     1      -4.521  13.500  20.297  0.00  0.00    +0.000 A 
ATOM     12  C   UNL     1      -4.139  12.421  19.484  0.00  0.00    +0.000 A 
BRANCH   7  13
ATOM     13  O   UNL     1      -4.676  10.914  17.689  0.00  0.00    +0.000 OA
BRANCH  13  14
ATOM     14  C   UNL     1      -4.201  11.249  16.376  0.00  0.00    +0.000 C 
BRANCH  14  16
ATOM     15  N   UNL     1      -3.011  10.103  14.570  0.00  0.00    +0.000 N 
ATOM     16  C   UNL     1      -3.030  10.420  15.889  0.00  0.00    +0.000 C 
ATOM     17  O   UNL     1      -2.164   9.973  16.658  0.00  0.00    +0.000 OA
ATOM     18  H   UNL     1      -2.290   9.466  14.237  0.00  0.00    +0.000 HD
ATOM     19  H   UNL     1      -3.778  10.348  13.961  0.00  0.00    +0.000 HD
ENDBRANCH  14  16
ENDBRANCH  13  14
ENDBRANCH   7  13
ENDBRANCH   1  12
BRANCH   4  20
ATOM     20  C   UNL     1      -0.523   9.924  19.770  0.00  0.00    +0.000 C 
ATOM     21  C   UNL     1      -0.478   9.974  21.294  0.00  0.00    +0.000 C 
ATOM     22  C   UNL     1       1.012   9.990  21.604  0.00  0.00    +0.000 C 
ATOM     23  N   UNL     1       1.633   9.081  20.620  0.00  0.00    +0.000 NA
ATOM     24  C   UNL     1       0.805   9.224  19.393  0.00  0.00    +0.000 C 
BRANCH  23  25
ATOM     25  C   UNL     1       1.667   7.709  21.170  0.00  0.00    +0.000 C 
BRANCH  25  26
ATOM     26  C   UNL     1       1.887   6.577  20.185  0.00  0.00    +0.000 A 
ATOM     27  C   UNL     1       2.672   6.833  19.049  0.00  0.00    +0.000 A 
ATOM     28  C   UNL     1       3.014   5.808  18.172  0.00  0.00    +0.000 A 
ATOM     29  C   UNL     1       2.579   4.507  18.422  0.00  0.00    +0.000 A 
ATOM     30  C   UNL     1       3.168   3.428  17.761  0.00  0.00    +0.000 A 
ATOM     31  C   UNL     1       2.814   2.140  18.130  0.00  0.00    +0.000 A 
ATOM     32  F   UNL     1       3.637   1.126  17.829  0.00  0.00    +0.000 F 
ATOM     33  C   UNL     1       1.698   1.899  18.915  0.00  0.00    +0.000 A 
ATOM     34  C   UNL     1       1.097   2.969  19.577  0.00  0.00    +0.000 A 
ATOM     35  C   UNL     1       1.623   4.266  19.435  0.00  0.00    +0.000 A 
ATOM     36  C   UNL     1       1.296   5.312  20.320  0.00  0.00    +0.000 A 
ENDBRANCH  25  26
ENDBRANCH  23  25
ENDBRANCH   4  20
TORSDOF 7
ENDMDL
