MODEL 1
REMARK VINA RESULT:      -8.1      0.000      0.000
REMARK  Name = 
REMARK  5 active torsions:
REMARK  status: ('A' for Active; 'I' for Inactive)
REMARK    1  A    between atoms: C_2  and  C_3
REMARK    2  A    between atoms: C_3  and  N_4
REMARK    3  A    between atoms: C_7  and  C_8
REMARK    4  A    between atoms: N_21  and  C_22
REMARK    5  A    between atoms: C_22  and  C_23
REMARK                            x       y       z     vdW  Elec       q    Type
REMARK                         _______ _______ _______ _____ _____    ______ ____
ROOT
ATOM      1  N   UNL     1       6.102   6.115  17.657  0.00  0.00    +0.000 N 
ATOM      2  C   UNL     1       4.833   6.648  17.761  0.00  0.00    +0.000 A 
ATOM      3  C   UNL     1       3.843   5.997  18.382  0.00  0.00    +0.000 A 
ATOM      4  C   UNL     1       4.040   4.683  18.944  0.00  0.00    +0.000 A 
ATOM      5  C   UNL     1       5.280   4.149  18.880  0.00  0.00    +0.000 A 
ATOM      6  C   UNL     1       6.409   4.888  18.238  0.00  0.00    +0.000 A 
ATOM      7  O   UNL     1       7.536   4.396  18.257  0.00  0.00    +0.000 OA
ATOM      8  C   UNL     1       2.582   6.790  18.425  0.00  0.00    +0.000 C 
ATOM      9  C   UNL     1       2.937   8.072  17.661  0.00  0.00    +0.000 C 
ATOM     10  C   UNL     1       4.405   7.972  17.231  0.00  0.00    +0.000 C 
ENDROOT
BRANCH   4  11
ATOM     11  C   UNL     1       2.974   3.871  19.560  0.00  0.00    +0.000 A 
ATOM     12  C   UNL     1       2.719   4.039  20.931  0.00  0.00    +0.000 A 
ATOM     13  C   UNL     1       1.705   3.314  21.564  0.00  0.00    +0.000 A 
ATOM     14  C   UNL     1       0.924   2.424  20.831  0.00  0.00    +0.000 A 
ATOM     15  C   UNL     1       1.170   2.240  19.471  0.00  0.00    +0.000 A 
ATOM     16  C   UNL     1       2.201   2.946  18.840  0.00  0.00    +0.000 A 
ATOM     17 CL   UNL     1       2.485   2.628  17.163  0.00  0.00    +0.000 Cl
ENDBRANCH   4  11
BRANCH   1  18
ATOM     18  C   UNL     1       7.180   6.859  17.012  0.00  0.00    +0.000 C 
BRANCH  18  20
ATOM     19  O   UNL     1       8.541   7.133  18.989  0.00  0.00    +0.000 OA
ATOM     20  C   UNL     1       7.995   7.665  18.024  0.00  0.00    +0.000 C 
ATOM     21  N   UNL     1       8.029   9.022  17.794  0.00  0.00    +0.000 N 
ATOM     22  H   UNL     1       7.436   9.409  17.061  0.00  0.00    +0.000 HD
BRANCH  21  23
ATOM     23  C   UNL     1       8.729   9.955  18.662  0.00  0.00    +0.000 C 
BRANCH  23  24
ATOM     24  C   UNL     1       9.529  11.019  17.900  0.00  0.00    +0.000 C 
ATOM     25  C   UNL     1      10.756  11.562  18.618  0.00  0.00    +0.000 C 
ATOM     26  C   UNL     1      10.853  12.971  18.091  0.00  0.00    +0.000 C 
ATOM     27  C   UNL     1       9.405  13.350  17.876  0.00  0.00    +0.000 C 
ATOM     28  O   UNL     1       8.684  12.146  17.593  0.00  0.00    +0.000 OA
ENDBRANCH  23  24
ENDBRANCH  21  23
ENDBRANCH  18  20
ENDBRANCH   1  18
TORSDOF 5
ENDMDL
MODEL 2
REMARK VINA RESULT:      -7.6      1.095      1.453
REMARK  Name = 
REMARK  5 active torsions:
REMARK  status: ('A' for Active; 'I' for Inactive)
REMARK    1  A    between atoms: C_2  and  C_3
REMARK    2  A    between atoms: C_3  and  N_4
REMARK    3  A    between atoms: C_7  and  C_8
REMARK    4  A    between atoms: N_21  and  C_22
REMARK    5  A    between atoms: C_22  and  C_23
REMARK                            x       y       z     vdW  Elec       q    Type
REMARK                         _______ _______ _______ _____ _____    ______ ____
ROOT
ATOM      1  N   UNL     1       5.862   6.122  17.282  0.00  0.00    +0.000 N 
ATOM      2  C   UNL     1       4.630   6.709  17.491  0.00  0.00    +0.000 A 
ATOM      3  C   UNL     1       3.601   6.029  18.007  0.00  0.00    +0.000 A 
ATOM      4  C   UNL     1       3.714   4.629  18.339  0.00  0.00    +0.000 A 
ATOM      5  C   UNL     1       4.916   4.035  18.169  0.00  0.00    +0.000 A 
ATOM      6  C   UNL     1       6.090   4.798  17.645  0.00  0.00    +0.000 A 
ATOM      7  O   UNL     1       7.182   4.239  17.566  0.00  0.00    +0.000 OA
ATOM      8  C   UNL     1       2.395   6.882  18.199  0.00  0.00    +0.000 C 
ATOM      9  C   UNL     1       2.831   8.249  17.656  0.00  0.00    +0.000 C 
ATOM     10  C   UNL     1       4.288   8.128  17.195  0.00  0.00    +0.000 C 
ENDROOT
BRANCH   4  11
ATOM     11  C   UNL     1       2.599   3.795  18.825  0.00  0.00    +0.000 A 
ATOM     12  C   UNL     1       2.071   2.823  17.960  0.00  0.00    +0.000 A 
ATOM     13  C   UNL     1       1.029   1.987  18.374  0.00  0.00    +0.000 A 
ATOM     14  C   UNL     1       0.514   2.103  19.662  0.00  0.00    +0.000 A 
ATOM     15  C   UNL     1       1.022   3.068  20.530  0.00  0.00    +0.000 A 
ATOM     16  C   UNL     1       2.048   3.923  20.110  0.00  0.00    +0.000 A 
ATOM     17 CL   UNL     1       2.593   5.133  21.221  0.00  0.00    +0.000 Cl
ENDBRANCH   4  11
BRANCH   1  18
ATOM     18  C   UNL     1       6.985   6.893  16.756  0.00  0.00    +0.000 C 
BRANCH  18  20
ATOM     19  O   UNL     1       8.191   6.895  18.848  0.00  0.00    +0.000 OA
ATOM     20  C   UNL     1       7.801   7.539  17.875  0.00  0.00    +0.000 C 
ATOM     21  N   UNL     1       8.022   8.890  17.729  0.00  0.00    +0.000 N 
ATOM     22  H   UNL     1       7.548   9.384  16.974  0.00  0.00    +0.000 HD
BRANCH  21  23
ATOM     23  C   UNL     1       8.754   9.682  18.704  0.00  0.00    +0.000 C 
BRANCH  23  24
ATOM     24  C   UNL     1       9.485  10.884  18.092  0.00  0.00    +0.000 C 
ATOM     25  C   UNL     1      10.467  11.596  19.010  0.00  0.00    +0.000 C 
ATOM     26  C   UNL     1      10.420  13.017  18.510  0.00  0.00    +0.000 C 
ATOM     27  C   UNL     1       8.986  13.164  18.052  0.00  0.00    +0.000 C 
ATOM     28  O   UNL     1       8.531  11.869  17.647  0.00  0.00    +0.000 OA
ENDBRANCH  23  24
ENDBRANCH  21  23
ENDBRANCH  18  20
ENDBRANCH   1  18
TORSDOF 5
ENDMDL
MODEL 3
REMARK VINA RESULT:      -7.4      4.270      7.103
REMARK  Name = 
REMARK  5 active torsions:
REMARK  status: ('A' for Active; 'I' for Inactive)
REMARK    1  A    between atoms: C_2  and  C_3
REMARK    2  A    between atoms: C_3  and  N_4
REMARK    3  A    between atoms: C_7  and  C_8
REMARK    4  A    between atoms: N_21  and  C_22
REMARK    5  A    between atoms: C_22  and  C_23
REMARK                            x       y       z     vdW  Elec       q    Type
REMARK                         _______ _______ _______ _____ _____    ______ ____
ROOT
ATOM      1  N   UNL     1       5.688   5.130  16.684  0.00  0.00    +0.000 N 
ATOM      2  C   UNL     1       4.444   4.614  16.987  0.00  0.00    +0.000 A 
ATOM      3  C   UNL     1       3.476   5.370  17.516  0.00  0.00    +0.000 A 
ATOM      4  C   UNL     1       3.694   6.760  17.834  0.00  0.00    +0.000 A 
ATOM      5  C   UNL     1       4.894   7.298  17.524  0.00  0.00    +0.000 A 
ATOM      6  C   UNL     1       5.966   6.479  16.881  0.00  0.00    +0.000 A 
ATOM      7  O   UNL     1       7.021   7.021  16.554  0.00  0.00    +0.000 OA
ATOM      8  C   UNL     1       2.204   4.616  17.701  0.00  0.00    +0.000 C 
ATOM      9  C   UNL     1       2.554   3.198  17.230  0.00  0.00    +0.000 C 
ATOM     10  C   UNL     1       4.016   3.205  16.767  0.00  0.00    +0.000 C 
ENDROOT
BRANCH   4  11
ATOM     11  C   UNL     1       2.705   7.628  18.502  0.00  0.00    +0.000 A 
ATOM     12  C   UNL     1       2.267   8.778  17.825  0.00  0.00    +0.000 A 
ATOM     13  C   UNL     1       1.314   9.625  18.398  0.00  0.00    +0.000 A 
ATOM     14  C   UNL     1       0.775   9.324  19.646  0.00  0.00    +0.000 A 
ATOM     15  C   UNL     1       1.206   8.190  20.334  0.00  0.00    +0.000 A 
ATOM     16  C   UNL     1       2.178   7.354  19.775  0.00  0.00    +0.000 A 
ATOM     17 CL   UNL     1       2.705   5.995  20.707  0.00  0.00    +0.000 Cl
ENDBRANCH   4  11
BRANCH   1  18
ATOM     18  C   UNL     1       6.718   4.299  16.068  0.00  0.00    +0.000 C 
BRANCH  18  20
ATOM     19  O   UNL     1       7.231   5.420  13.991  0.00  0.00    +0.000 OA
ATOM     20  C   UNL     1       6.728   4.445  14.546  0.00  0.00    +0.000 C 
ATOM     21  N   UNL     1       6.097   3.432  13.861  0.00  0.00    +0.000 N 
ATOM     22  H   UNL     1       5.577   2.732  14.391  0.00  0.00    +0.000 HD
BRANCH  21  23
ATOM     23  C   UNL     1       5.979   3.409  12.412  0.00  0.00    +0.000 C 
BRANCH  23  24
ATOM     24  C   UNL     1       4.533   3.288  11.916  0.00  0.00    +0.000 C 
ATOM     25  C   UNL     1       4.256   2.134  10.964  0.00  0.00    +0.000 C 
ATOM     26  C   UNL     1       3.136   2.669  10.108  0.00  0.00    +0.000 C 
ATOM     27  C   UNL     1       3.446   4.148  10.036  0.00  0.00    +0.000 C 
ATOM     28  O   UNL     1       4.139   4.499  11.238  0.00  0.00    +0.000 OA
ENDBRANCH  23  24
ENDBRANCH  21  23
ENDBRANCH  18  20
ENDBRANCH   1  18
TORSDOF 5
ENDMDL
MODEL 4
REMARK VINA RESULT:      -7.4      4.245      6.481
REMARK  Name = 
REMARK  5 active torsions:
REMARK  status: ('A' for Active; 'I' for Inactive)
REMARK    1  A    between atoms: C_2  and  C_3
REMARK    2  A    between atoms: C_3  and  N_4
REMARK    3  A    between atoms: C_7  and  C_8
REMARK    4  A    between atoms: N_21  and  C_22
REMARK    5  A    between atoms: C_22  and  C_23
REMARK                            x       y       z     vdW  Elec       q    Type
REMARK                         _______ _______ _______ _____ _____    ______ ____
ROOT
ATOM      1  N   UNL     1       4.327   5.687  18.737  0.00  0.00    +0.000 N 
ATOM      2  C   UNL     1       3.236   5.472  19.554  0.00  0.00    +0.000 A 
ATOM      3  C   UNL     1       2.249   6.368  19.665  0.00  0.00    +0.000 A 
ATOM      4  C   UNL     1       2.292   7.628  18.964  0.00  0.00    +0.000 A 
ATOM      5  C   UNL     1       3.337   7.855  18.137  0.00  0.00    +0.000 A 
ATOM      6  C   UNL     1       4.419   6.838  17.960  0.00  0.00    +0.000 A 
ATOM      7  O   UNL     1       5.318   7.054  17.150  0.00  0.00    +0.000 OA
ATOM      8  C   UNL     1       1.150   5.895  20.553  0.00  0.00    +0.000 C 
ATOM      9  C   UNL     1       1.643   4.526  21.038  0.00  0.00    +0.000 C 
ATOM     10  C   UNL     1       3.004   4.258  20.384  0.00  0.00    +0.000 C 
ENDROOT
BRANCH   4  11
ATOM     11  C   UNL     1       1.288   8.699  19.110  0.00  0.00    +0.000 A 
ATOM     12  C   UNL     1       0.666   9.188  17.950  0.00  0.00    +0.000 A 
ATOM     13  C   UNL     1      -0.310  10.186  18.029  0.00  0.00    +0.000 A 
ATOM     14  C   UNL     1      -0.687  10.695  19.269  0.00  0.00    +0.000 A 
ATOM     15  C   UNL     1      -0.073  10.225  20.429  0.00  0.00    +0.000 A 
ATOM     16  C   UNL     1       0.923   9.244  20.352  0.00  0.00    +0.000 A 
ATOM     17 CL   UNL     1       1.680   8.747  21.826  0.00  0.00    +0.000 Cl
ENDBRANCH   4  11
BRANCH   1  18
ATOM     18  C   UNL     1       5.374   4.679  18.597  0.00  0.00    +0.000 C 
BRANCH  18  20
ATOM     19  O   UNL     1       4.337   2.920  17.306  0.00  0.00    +0.000 OA
ATOM     20  C   UNL     1       5.171   3.823  17.346  0.00  0.00    +0.000 C 
ATOM     21  N   UNL     1       6.017   4.113  16.299  0.00  0.00    +0.000 N 
ATOM     22  H   UNL     1       6.778   4.775  16.454  0.00  0.00    +0.000 HD
BRANCH  21  23
ATOM     23  C   UNL     1       5.994   3.389  15.039  0.00  0.00    +0.000 C 
BRANCH  23  24
ATOM     24  C   UNL     1       6.170   4.291  13.811  0.00  0.00    +0.000 C 
ATOM     25  C   UNL     1       6.486   3.575  12.506  0.00  0.00    +0.000 C 
ATOM     26  C   UNL     1       7.312   4.592  11.760  0.00  0.00    +0.000 C 
ATOM     27  C   UNL     1       8.051   5.304  12.870  0.00  0.00    +0.000 C 
ATOM     28  O   UNL     1       7.231   5.239  14.042  0.00  0.00    +0.000 OA
ENDBRANCH  23  24
ENDBRANCH  21  23
ENDBRANCH  18  20
ENDBRANCH   1  18
TORSDOF 5
ENDMDL
MODEL 5
REMARK VINA RESULT:      -7.2      4.961      7.554
REMARK  Name = 
REMARK  5 active torsions:
REMARK  status: ('A' for Active; 'I' for Inactive)
REMARK    1  A    between atoms: C_2  and  C_3
REMARK    2  A    between atoms: C_3  and  N_4
REMARK    3  A    between atoms: C_7  and  C_8
REMARK    4  A    between atoms: N_21  and  C_22
REMARK    5  A    between atoms: C_22  and  C_23
REMARK                            x       y       z     vdW  Elec       q    Type
REMARK                         _______ _______ _______ _____ _____    ______ ____
ROOT
ATOM      1  N   UNL     1       1.804   6.582  19.901  0.00  0.00    +0.000 N 
ATOM      2  C   UNL     1       2.334   5.325  20.114  0.00  0.00    +0.000 A 
ATOM      3  C   UNL     1       3.365   4.863  19.399  0.00  0.00    +0.000 A 
ATOM      4  C   UNL     1       3.955   5.642  18.337  0.00  0.00    +0.000 A 
ATOM      5  C   UNL     1       3.473   6.887  18.125  0.00  0.00    +0.000 A 
ATOM      6  C   UNL     1       2.358   7.437  18.954  0.00  0.00    +0.000 A 
ATOM      7  O   UNL     1       1.992   8.597  18.772  0.00  0.00    +0.000 OA
ATOM      8  C   UNL     1       3.804   3.511  19.844  0.00  0.00    +0.000 C 
ATOM      9  C   UNL     1       2.817   3.163  20.966  0.00  0.00    +0.000 C 
ATOM     10  C   UNL     1       1.861   4.350  21.135  0.00  0.00    +0.000 C 
ENDROOT
BRANCH   4  11
ATOM     11  C   UNL     1       5.031   5.162  17.449  0.00  0.00    +0.000 A 
ATOM     12  C   UNL     1       4.685   4.741  16.155  0.00  0.00    +0.000 A 
ATOM     13  C   UNL     1       5.665   4.298  15.262  0.00  0.00    +0.000 A 
ATOM     14  C   UNL     1       7.003   4.285  15.646  0.00  0.00    +0.000 A 
ATOM     15  C   UNL     1       7.362   4.693  16.931  0.00  0.00    +0.000 A 
ATOM     16  C   UNL     1       6.380   5.113  17.836  0.00  0.00    +0.000 A 
ATOM     17 CL   UNL     1       6.890   5.553  19.430  0.00  0.00    +0.000 Cl
ENDBRANCH   4  11
BRANCH   1  18
ATOM     18  C   UNL     1       0.705   7.085  20.721  0.00  0.00    +0.000 C 
BRANCH  18  20
ATOM     19  O   UNL     1       1.889   8.632  22.148  0.00  0.00    +0.000 OA
ATOM     20  C   UNL     1       1.016   8.466  21.298  0.00  0.00    +0.000 C 
ATOM     21  N   UNL     1       0.220   9.486  20.828  0.00  0.00    +0.000 N 
ATOM     22  H   UNL     1      -0.576   9.252  20.235  0.00  0.00    +0.000 HD
BRANCH  21  23
ATOM     23  C   UNL     1       0.346  10.862  21.280  0.00  0.00    +0.000 C 
BRANCH  23  24
ATOM     24  C   UNL     1      -0.905  11.391  21.992  0.00  0.00    +0.000 C 
ATOM     25  C   UNL     1      -1.838  12.242  21.143  0.00  0.00    +0.000 C 
ATOM     26  C   UNL     1      -2.447  13.179  22.154  0.00  0.00    +0.000 C 
ATOM     27  C   UNL     1      -1.326  13.375  23.149  0.00  0.00    +0.000 C 
ATOM     28  O   UNL     1      -0.525  12.188  23.132  0.00  0.00    +0.000 OA
ENDBRANCH  23  24
ENDBRANCH  21  23
ENDBRANCH  18  20
ENDBRANCH   1  18
TORSDOF 5
ENDMDL
MODEL 6
REMARK VINA RESULT:      -7.2      7.965     10.817
REMARK  Name = 
REMARK  5 active torsions:
REMARK  status: ('A' for Active; 'I' for Inactive)
REMARK    1  A    between atoms: C_2  and  C_3
REMARK    2  A    between atoms: C_3  and  N_4
REMARK    3  A    between atoms: C_7  and  C_8
REMARK    4  A    between atoms: N_21  and  C_22
REMARK    5  A    between atoms: C_22  and  C_23
REMARK                            x       y       z     vdW  Elec       q    Type
REMARK                         _______ _______ _______ _____ _____    ______ ____
ROOT
ATOM      1  N   UNL     1      -0.651  12.702  19.755  0.00  0.00    +0.000 N 
ATOM      2  C   UNL     1      -1.107  11.793  18.821  0.00  0.00    +0.000 A 
ATOM      3  C   UNL     1      -0.490  10.625  18.612  0.00  0.00    +0.000 A 
ATOM      4  C   UNL     1       0.712  10.269  19.327  0.00  0.00    +0.000 A 
ATOM      5  C   UNL     1       1.165  11.128  20.266  0.00  0.00    +0.000 A 
ATOM      6  C   UNL     1       0.454  12.412  20.550  0.00  0.00    +0.000 A 
ATOM      7  O   UNL     1       0.861  13.136  21.456  0.00  0.00    +0.000 OA
ATOM      8  C   UNL     1      -1.194   9.783  17.604  0.00  0.00    +0.000 C 
ATOM      9  C   UNL     1      -2.371  10.661  17.161  0.00  0.00    +0.000 C 
ATOM     10  C   UNL     1      -2.307  11.970  17.957  0.00  0.00    +0.000 C 
ENDROOT
BRANCH   4  11
ATOM     11  C   UNL     1       1.495   9.042  19.084  0.00  0.00    +0.000 A 
ATOM     12  C   UNL     1       2.202   8.935  17.876  0.00  0.00    +0.000 A 
ATOM     13  C   UNL     1       2.980   7.806  17.600  0.00  0.00    +0.000 A 
ATOM     14  C   UNL     1       3.072   6.779  18.536  0.00  0.00    +0.000 A 
ATOM     15  C   UNL     1       2.369   6.867  19.737  0.00  0.00    +0.000 A 
ATOM     16  C   UNL     1       1.570   7.984  20.005  0.00  0.00    +0.000 A 
ATOM     17 CL   UNL     1       0.682   8.002  21.491  0.00  0.00    +0.000 Cl
ENDBRANCH   4  11
BRANCH   1  18
ATOM     18  C   UNL     1      -1.363  13.953  19.998  0.00  0.00    +0.000 C 
BRANCH  18  20
ATOM     19  O   UNL     1      -2.391  13.466  22.128  0.00  0.00    +0.000 OA
ATOM     20  C   UNL     1      -2.548  13.755  20.943  0.00  0.00    +0.000 C 
ATOM     21  N   UNL     1      -3.787  13.881  20.357  0.00  0.00    +0.000 N 
ATOM     22  H   UNL     1      -3.841  13.978  19.343  0.00  0.00    +0.000 HD
BRANCH  21  23
ATOM     23  C   UNL     1      -5.031  13.701  21.088  0.00  0.00    +0.000 C 
BRANCH  23  24
ATOM     24  C   UNL     1      -5.624  12.293  20.951  0.00  0.00    +0.000 C 
ATOM     25  C   UNL     1      -6.319  11.995  19.631  0.00  0.00    +0.000 C 
ATOM     26  C   UNL     1      -7.375  10.995  20.029  0.00  0.00    +0.000 C 
ATOM     27  C   UNL     1      -7.741  11.434  21.429  0.00  0.00    +0.000 C 
ATOM     28  O   UNL     1      -6.586  12.059  21.999  0.00  0.00    +0.000 OA
ENDBRANCH  23  24
ENDBRANCH  21  23
ENDBRANCH  18  20
ENDBRANCH   1  18
TORSDOF 5
ENDMDL
MODEL 7
REMARK VINA RESULT:      -7.1      3.349      5.480
REMARK  Name = 
REMARK  5 active torsions:
REMARK  status: ('A' for Active; 'I' for Inactive)
REMARK    1  A    between atoms: C_2  and  C_3
REMARK    2  A    between atoms: C_3  and  N_4
REMARK    3  A    between atoms: C_7  and  C_8
REMARK    4  A    between atoms: N_21  and  C_22
REMARK    5  A    between atoms: C_22  and  C_23
REMARK                            x       y       z     vdW  Elec       q    Type
REMARK                         _______ _______ _______ _____ _____    ______ ____
ROOT
ATOM      1  N   UNL     1       5.696   5.808  17.509  0.00  0.00    +0.000 N 
ATOM      2  C   UNL     1       4.461   6.360  17.787  0.00  0.00    +0.000 A 
ATOM      3  C   UNL     1       3.583   5.756  18.595  0.00  0.00    +0.000 A 
ATOM      4  C   UNL     1       3.866   4.473  19.191  0.00  0.00    +0.000 A 
ATOM      5  C   UNL     1       5.078   3.922  18.957  0.00  0.00    +0.000 A 
ATOM      6  C   UNL     1       6.091   4.612  18.101  0.00  0.00    +0.000 A 
ATOM      7  O   UNL     1       7.205   4.110  17.965  0.00  0.00    +0.000 OA
ATOM      8  C   UNL     1       2.348   6.564  18.796  0.00  0.00    +0.000 C 
ATOM      9  C   UNL     1       2.577   7.798  17.914  0.00  0.00    +0.000 C 
ATOM     10  C   UNL     1       3.956   7.657  17.259  0.00  0.00    +0.000 C 
ENDROOT
BRANCH   4  11
ATOM     11  C   UNL     1       2.912   3.707  20.016  0.00  0.00    +0.000 A 
ATOM     12  C   UNL     1       2.874   3.963  21.396  0.00  0.00    +0.000 A 
ATOM     13  C   UNL     1       1.974   3.285  22.224  0.00  0.00    +0.000 A 
ATOM     14  C   UNL     1       1.091   2.356  21.680  0.00  0.00    +0.000 A 
ATOM     15  C   UNL     1       1.123   2.086  20.312  0.00  0.00    +0.000 A 
ATOM     16  C   UNL     1       2.040   2.744  19.484  0.00  0.00    +0.000 A 
ATOM     17 CL   UNL     1       2.060   2.319  17.807  0.00  0.00    +0.000 Cl
ENDBRANCH   4  11
BRANCH   1  18
ATOM     18  C   UNL     1       6.657   6.503  16.658  0.00  0.00    +0.000 C 
BRANCH  18  20
ATOM     19  O   UNL     1       5.457   6.642  14.567  0.00  0.00    +0.000 OA
ATOM     20  C   UNL     1       6.428   6.197  15.178  0.00  0.00    +0.000 C 
ATOM     21  N   UNL     1       7.357   5.359  14.605  0.00  0.00    +0.000 N 
ATOM     22  H   UNL     1       8.051   4.915  15.207  0.00  0.00    +0.000 HD
BRANCH  21  23
ATOM     23  C   UNL     1       7.291   4.933  13.217  0.00  0.00    +0.000 C 
BRANCH  23  24
ATOM     24  C   UNL     1       6.490   3.641  13.011  0.00  0.00    +0.000 C 
ATOM     25  C   UNL     1       6.876   2.813  11.794  0.00  0.00    +0.000 C 
ATOM     26  C   UNL     1       5.577   2.146  11.420  0.00  0.00    +0.000 C 
ATOM     27  C   UNL     1       4.544   3.181  11.805  0.00  0.00    +0.000 C 
ATOM     28  O   UNL     1       5.086   3.943  12.890  0.00  0.00    +0.000 OA
ENDBRANCH  23  24
ENDBRANCH  21  23
ENDBRANCH  18  20
ENDBRANCH   1  18
TORSDOF 5
ENDMDL
MODEL 8
REMARK VINA RESULT:      -7.1      4.670      7.274
REMARK  Name = 
REMARK  5 active torsions:
REMARK  status: ('A' for Active; 'I' for Inactive)
REMARK    1  A    between atoms: C_2  and  C_3
REMARK    2  A    between atoms: C_3  and  N_4
REMARK    3  A    between atoms: C_7  and  C_8
REMARK    4  A    between atoms: N_21  and  C_22
REMARK    5  A    between atoms: C_22  and  C_23
REMARK                            x       y       z     vdW  Elec       q    Type
REMARK                         _______ _______ _______ _____ _____    ______ ____
ROOT
ATOM      1  N   UNL     1       1.868   6.645  19.817  0.00  0.00    +0.000 N 
ATOM      2  C   UNL     1       2.386   5.386  20.049  0.00  0.00    +0.000 A 
ATOM      3  C   UNL     1       3.407   4.899  19.336  0.00  0.00    +0.000 A 
ATOM      4  C   UNL     1       3.999   5.652  18.256  0.00  0.00    +0.000 A 
ATOM      5  C   UNL     1       3.529   6.898  18.023  0.00  0.00    +0.000 A 
ATOM      6  C   UNL     1       2.425   7.476  18.850  0.00  0.00    +0.000 A 
ATOM      7  O   UNL     1       2.070   8.636  18.649  0.00  0.00    +0.000 OA
ATOM      8  C   UNL     1       3.835   3.552  19.804  0.00  0.00    +0.000 C 
ATOM      9  C   UNL     1       2.852   3.235  20.938  0.00  0.00    +0.000 C 
ATOM     10  C   UNL     1       1.910   4.435  21.092  0.00  0.00    +0.000 C 
ENDROOT
BRANCH   4  11
ATOM     11  C   UNL     1       5.063   5.144  17.370  0.00  0.00    +0.000 A 
ATOM     12  C   UNL     1       4.701   4.683  16.094  0.00  0.00    +0.000 A 
ATOM     13  C   UNL     1       5.669   4.212  15.202  0.00  0.00    +0.000 A 
ATOM     14  C   UNL     1       7.012   4.210  15.570  0.00  0.00    +0.000 A 
ATOM     15  C   UNL     1       7.386   4.657  16.837  0.00  0.00    +0.000 A 
ATOM     16  C   UNL     1       6.417   5.106  17.740  0.00  0.00    +0.000 A 
ATOM     17 CL   UNL     1       6.947   5.595  19.314  0.00  0.00    +0.000 Cl
ENDBRANCH   4  11
BRANCH   1  18
ATOM     18  C   UNL     1       0.781   7.175  20.634  0.00  0.00    +0.000 C 
BRANCH  18  20
ATOM     19  O   UNL     1       1.973   8.633  22.147  0.00  0.00    +0.000 OA
ATOM     20  C   UNL     1       1.141   8.529  21.246  0.00  0.00    +0.000 C 
ATOM     21  N   UNL     1       0.436   9.600  20.746  0.00  0.00    +0.000 N 
ATOM     22  H   UNL     1      -0.337   9.420  20.106  0.00  0.00    +0.000 HD
BRANCH  21  23
ATOM     23  C   UNL     1       0.620  10.961  21.222  0.00  0.00    +0.000 C 
BRANCH  23  24
ATOM     24  C   UNL     1      -0.226  11.994  20.467  0.00  0.00    +0.000 C 
ATOM     25  C   UNL     1      -1.678  12.108  20.909  0.00  0.00    +0.000 C 
ATOM     26  C   UNL     1      -2.380  12.522  19.641  0.00  0.00    +0.000 C 
ATOM     27  C   UNL     1      -1.574  11.826  18.568  0.00  0.00    +0.000 C 
ATOM     28  O   UNL     1      -0.236  11.690  19.058  0.00  0.00    +0.000 OA
ENDBRANCH  23  24
ENDBRANCH  21  23
ENDBRANCH  18  20
ENDBRANCH   1  18
TORSDOF 5
ENDMDL
MODEL 9
REMARK VINA RESULT:      -7.1      7.485     10.044
REMARK  Name = 
REMARK  5 active torsions:
REMARK  status: ('A' for Active; 'I' for Inactive)
REMARK    1  A    between atoms: C_2  and  C_3
REMARK    2  A    between atoms: C_3  and  N_4
REMARK    3  A    between atoms: C_7  and  C_8
REMARK    4  A    between atoms: N_21  and  C_22
REMARK    5  A    between atoms: C_22  and  C_23
REMARK                            x       y       z     vdW  Elec       q    Type
REMARK                         _______ _______ _______ _____ _____    ______ ____
ROOT
ATOM      1  N   UNL     1       0.309  11.758  19.873  0.00  0.00    +0.000 N 
ATOM      2  C   UNL     1       0.052  11.129  21.075  0.00  0.00    +0.000 A 
ATOM      3  C   UNL     1      -0.993  11.464  21.839  0.00  0.00    +0.000 A 
ATOM      4  C   UNL     1      -1.889  12.532  21.464  0.00  0.00    +0.000 A 
ATOM      5  C   UNL     1      -1.676  13.148  20.280  0.00  0.00    +0.000 A 
ATOM      6  C   UNL     1      -0.545  12.745  19.390  0.00  0.00    +0.000 A 
ATOM      7  O   UNL     1      -0.423  13.285  18.292  0.00  0.00    +0.000 OA
ATOM      8  C   UNL     1      -1.106  10.611  23.054  0.00  0.00    +0.000 C 
ATOM      9  C   UNL     1       0.110   9.680  22.954  0.00  0.00    +0.000 C 
ATOM     10  C   UNL     1       0.860  10.024  21.662  0.00  0.00    +0.000 C 
ENDROOT
BRANCH   4  11
ATOM     11  C   UNL     1      -3.005  13.016  22.298  0.00  0.00    +0.000 A 
ATOM     12  C   UNL     1      -4.313  12.667  21.925  0.00  0.00    +0.000 A 
ATOM     13  C   UNL     1      -5.409  13.078  22.691  0.00  0.00    +0.000 A 
ATOM     14  C   UNL     1      -5.208  13.828  23.847  0.00  0.00    +0.000 A 
ATOM     15  C   UNL     1      -3.916  14.189  24.226  0.00  0.00    +0.000 A 
ATOM     16  C   UNL     1      -2.819  13.801  23.448  0.00  0.00    +0.000 A 
ATOM     17 CL   UNL     1      -1.249  14.330  23.949  0.00  0.00    +0.000 Cl
ENDBRANCH   4  11
BRANCH   1  18
ATOM     18  C   UNL     1       1.431  11.349  19.034  0.00  0.00    +0.000 C 
BRANCH  18  20
ATOM     19  O   UNL     1       0.046   9.740  17.884  0.00  0.00    +0.000 OA
ATOM     20  C   UNL     1       1.157  10.019  18.331  0.00  0.00    +0.000 C 
ATOM     21  N   UNL     1       2.227   9.156  18.280  0.00  0.00    +0.000 N 
ATOM     22  H   UNL     1       3.073   9.395  18.798  0.00  0.00    +0.000 HD
BRANCH  21  23
ATOM     23  C   UNL     1       2.151   7.835  17.677  0.00  0.00    +0.000 C 
BRANCH  23  24
ATOM     24  C   UNL     1       2.682   6.716  18.583  0.00  0.00    +0.000 C 
ATOM     25  C   UNL     1       2.249   5.306  18.212  0.00  0.00    +0.000 C 
ATOM     26  C   UNL     1       2.223   4.604  19.546  0.00  0.00    +0.000 C 
ATOM     27  C   UNL     1       1.806   5.704  20.496  0.00  0.00    +0.000 C 
ATOM     28  O   UNL     1       2.265   6.943  19.945  0.00  0.00    +0.000 OA
ENDBRANCH  23  24
ENDBRANCH  21  23
ENDBRANCH  18  20
ENDBRANCH   1  18
TORSDOF 5
ENDMDL
