MODEL 1
REMARK VINA RESULT:      -6.5      0.000      0.000
REMARK  Name = 
REMARK  6 active torsions:
REMARK  status: ('A' for Active; 'I' for Inactive)
REMARK    1  A    between atoms: C_1  and  C_2
REMARK    2  A    between atoms: C_2  and  O_3
REMARK    3  A    between atoms: O_3  and  C_4
REMARK    4  A    between atoms: C_7  and  S_8
REMARK    5  A    between atoms: S_8  and  N_11
REMARK    6  A    between atoms: C_15  and  C_17
REMARK                            x       y       z     vdW  Elec       q    Type
REMARK                         _______ _______ _______ _____ _____    ______ ____
ROOT
ATOM      1  N   UNL     1       0.996  10.402  19.882  0.00  0.00    +0.000 NA
ATOM      2  C   UNL     1      -0.035  10.506  18.807  0.00  0.00    +0.000 C 
ATOM      3  C   UNL     1      -1.369  11.056  19.320  0.00  0.00    +0.000 C 
ATOM      4  N   UNL     1      -1.268  12.256  20.162  0.00  0.00    +0.000 N 
ATOM      5  C   UNL     1      -2.522  12.832  20.497  0.00  0.00    +0.000 C 
ATOM      6  O   UNL     1      -3.553  12.381  19.993  0.00  0.00    +0.000 OA
ATOM      7  C   UNL     1      -0.111  12.300  21.086  0.00  0.00    +0.000 C 
ATOM      8  C   UNL     1       1.193  11.755  20.482  0.00  0.00    +0.000 C 
ENDROOT
BRANCH   5   9
ATOM      9  C   UNL     1      -2.602  13.931  21.455  0.00  0.00    +0.000 A 
ATOM     10  C   UNL     1      -3.089  13.859  22.755  0.00  0.00    +0.000 A 
ATOM     11  C   UNL     1      -3.057  15.121  23.428  0.00  0.00    +0.000 A 
ATOM     12  C   UNL     1      -2.521  16.096  22.613  0.00  0.00    +0.000 A 
ATOM     13  S   UNL     1      -2.312  15.562  21.018  0.00  0.00    +0.000 S 
ATOM     14  C   UNL     1      -2.244  17.512  23.008  0.00  0.00    +0.000 C 
ATOM     15  C   UNL     1      -2.450  17.711  24.517  0.00  0.00    +0.000 C 
ATOM     16  C   UNL     1      -3.670  16.938  25.037  0.00  0.00    +0.000 C 
ATOM     17  C   UNL     1      -3.496  15.421  24.831  0.00  0.00    +0.000 C 
ENDBRANCH   5   9
BRANCH   1  18
ATOM     18  S   UNL     1       0.839   9.153  21.043  0.00  0.00    +0.000 S 
ATOM     19  O   UNL     1      -0.566   8.849  21.187  0.00  0.00    +0.000 OA
ATOM     20  O   UNL     1       1.638   9.523  22.192  0.00  0.00    +0.000 OA
BRANCH  18  24
ATOM     21  C   UNL     1       2.720   5.555  18.981  0.00  0.00    +0.000 A 
ATOM     22  C   UNL     1       2.797   6.826  18.399  0.00  0.00    +0.000 A 
ATOM     23  C   UNL     1       2.257   7.939  19.041  0.00  0.00    +0.000 A 
ATOM     24  C   UNL     1       1.622   7.768  20.270  0.00  0.00    +0.000 A 
ATOM     25  C   UNL     1       1.569   6.511  20.881  0.00  0.00    +0.000 A 
ATOM     26  C   UNL     1       2.112   5.400  20.227  0.00  0.00    +0.000 A 
BRANCH  21  27
ATOM     27  O   UNL     1       3.262   4.557  18.222  0.00  0.00    +0.000 OA
BRANCH  27  29
ATOM     28  C   UNL     1       2.315   2.401  17.976  0.00  0.00    +0.000 C 
ATOM     29  C   UNL     1       2.379   3.802  17.395  0.00  0.00    +0.000 C 
ENDBRANCH  27  29
ENDBRANCH  21  27
ENDBRANCH  18  24
ENDBRANCH   1  18
TORSDOF 5
ENDMDL
MODEL 2
REMARK VINA RESULT:      -6.4      0.705      1.170
REMARK  Name = 
REMARK  6 active torsions:
REMARK  status: ('A' for Active; 'I' for Inactive)
REMARK    1  A    between atoms: C_1  and  C_2
REMARK    2  A    between atoms: C_2  and  O_3
REMARK    3  A    between atoms: O_3  and  C_4
REMARK    4  A    between atoms: C_7  and  S_8
REMARK    5  A    between atoms: S_8  and  N_11
REMARK    6  A    between atoms: C_15  and  C_17
REMARK                            x       y       z     vdW  Elec       q    Type
REMARK                         _______ _______ _______ _____ _____    ______ ____
ROOT
ATOM      1  N   UNL     1       1.151  10.341  20.052  0.00  0.00    +0.000 NA
ATOM      2  C   UNL     1       0.327  10.416  18.809  0.00  0.00    +0.000 C 
ATOM      3  C   UNL     1      -1.123  10.826  19.086  0.00  0.00    +0.000 C 
ATOM      4  N   UNL     1      -1.285  11.984  19.976  0.00  0.00    +0.000 N 
ATOM      5  C   UNL     1      -2.626  12.436  20.094  0.00  0.00    +0.000 C 
ATOM      6  O   UNL     1      -3.503  11.929  19.392  0.00  0.00    +0.000 OA
ATOM      7  C   UNL     1      -0.323  12.074  21.098  0.00  0.00    +0.000 C 
ATOM      8  C   UNL     1       1.112  11.671  20.727  0.00  0.00    +0.000 C 
ENDROOT
BRANCH   5   9
ATOM      9  C   UNL     1      -2.978  13.473  21.060  0.00  0.00    +0.000 A 
ATOM     10  C   UNL     1      -3.956  13.386  22.044  0.00  0.00    +0.000 A 
ATOM     11  C   UNL     1      -4.074  14.587  22.813  0.00  0.00    +0.000 A 
ATOM     12  C   UNL     1      -3.157  15.528  22.394  0.00  0.00    +0.000 A 
ATOM     13  S   UNL     1      -2.373  15.072  20.962  0.00  0.00    +0.000 S 
ATOM     14  C   UNL     1      -2.924  16.864  23.024  0.00  0.00    +0.000 C 
ATOM     15  C   UNL     1      -3.705  16.994  24.340  0.00  0.00    +0.000 C 
ATOM     16  C   UNL     1      -5.102  16.366  24.244  0.00  0.00    +0.000 C 
ATOM     17  C   UNL     1      -5.013  14.855  23.952  0.00  0.00    +0.000 C 
ENDBRANCH   5   9
BRANCH   1  18
ATOM     18  S   UNL     1       0.901   9.024  21.117  0.00  0.00    +0.000 S 
ATOM     19  O   UNL     1      -0.523   8.797  21.223  0.00  0.00    +0.000 OA
ATOM     20  O   UNL     1       1.702   9.259  22.298  0.00  0.00    +0.000 OA
BRANCH  18  24
ATOM     21  C   UNL     1       2.860   5.520  18.966  0.00  0.00    +0.000 A 
ATOM     22  C   UNL     1       2.195   5.323  20.182  0.00  0.00    +0.000 A 
ATOM     23  C   UNL     1       1.560   6.383  20.829  0.00  0.00    +0.000 A 
ATOM     24  C   UNL     1       1.609   7.651  20.253  0.00  0.00    +0.000 A 
ATOM     25  C   UNL     1       2.239   7.857  19.022  0.00  0.00    +0.000 A 
ATOM     26  C   UNL     1       2.875   6.788  18.383  0.00  0.00    +0.000 A 
BRANCH  21  27
ATOM     27  O   UNL     1       3.462   4.400  18.469  0.00  0.00    +0.000 OA
BRANCH  27  29
ATOM     28  C   UNL     1       2.566   2.277  17.921  0.00  0.00    +0.000 C 
ATOM     29  C   UNL     1       2.789   3.695  17.428  0.00  0.00    +0.000 C 
ENDBRANCH  27  29
ENDBRANCH  21  27
ENDBRANCH  18  24
ENDBRANCH   1  18
TORSDOF 5
ENDMDL
MODEL 3
REMARK VINA RESULT:      -6.4      0.701      1.176
REMARK  Name = 
REMARK  6 active torsions:
REMARK  status: ('A' for Active; 'I' for Inactive)
REMARK    1  A    between atoms: C_1  and  C_2
REMARK    2  A    between atoms: C_2  and  O_3
REMARK    3  A    between atoms: O_3  and  C_4
REMARK    4  A    between atoms: C_7  and  S_8
REMARK    5  A    between atoms: S_8  and  N_11
REMARK    6  A    between atoms: C_15  and  C_17
REMARK                            x       y       z     vdW  Elec       q    Type
REMARK                         _______ _______ _______ _____ _____    ______ ____
ROOT
ATOM      1  N   UNL     1       1.028  10.344  19.891  0.00  0.00    +0.000 NA
ATOM      2  C   UNL     1      -0.006  10.453  18.819  0.00  0.00    +0.000 C 
ATOM      3  C   UNL     1      -1.339  11.001  19.338  0.00  0.00    +0.000 C 
ATOM      4  N   UNL     1      -1.235  12.197  20.186  0.00  0.00    +0.000 N 
ATOM      5  C   UNL     1      -2.488  12.772  20.527  0.00  0.00    +0.000 C 
ATOM      6  O   UNL     1      -3.520  12.323  20.024  0.00  0.00    +0.000 OA
ATOM      7  C   UNL     1      -0.075  12.236  21.107  0.00  0.00    +0.000 C 
ATOM      8  C   UNL     1       1.227  11.693  20.497  0.00  0.00    +0.000 C 
ENDROOT
BRANCH   5   9
ATOM      9  C   UNL     1      -2.565  13.866  21.491  0.00  0.00    +0.000 A 
ATOM     10  C   UNL     1      -3.033  13.784  22.797  0.00  0.00    +0.000 A 
ATOM     11  C   UNL     1      -3.004  15.044  23.475  0.00  0.00    +0.000 A 
ATOM     12  C   UNL     1      -2.488  16.027  22.656  0.00  0.00    +0.000 A 
ATOM     13  S   UNL     1      -2.297  15.501  21.056  0.00  0.00    +0.000 S 
ATOM     14  C   UNL     1      -2.220  17.444  23.053  0.00  0.00    +0.000 C 
ATOM     15  C   UNL     1      -2.407  17.635  24.565  0.00  0.00    +0.000 C 
ATOM     16  C   UNL     1      -3.611  16.849  25.099  0.00  0.00    +0.000 C 
ATOM     17  C   UNL     1      -3.426  15.334  24.884  0.00  0.00    +0.000 C 
ENDBRANCH   5   9
BRANCH   1  18
ATOM     18  S   UNL     1       0.874   9.089  21.047  0.00  0.00    +0.000 S 
ATOM     19  O   UNL     1      -0.534   8.816  21.226  0.00  0.00    +0.000 OA
ATOM     20  O   UNL     1       1.712   9.431  22.176  0.00  0.00    +0.000 OA
BRANCH  18  24
ATOM     21  C   UNL     1       2.887   5.525  19.051  0.00  0.00    +0.000 A 
ATOM     22  C   UNL     1       2.188   5.363  20.253  0.00  0.00    +0.000 A 
ATOM     23  C   UNL     1       1.537   6.441  20.852  0.00  0.00    +0.000 A 
ATOM     24  C   UNL     1       1.604   7.692  20.242  0.00  0.00    +0.000 A 
ATOM     25  C   UNL     1       2.268   7.863  19.023  0.00  0.00    +0.000 A 
ATOM     26  C   UNL     1       2.919   6.775  18.432  0.00  0.00    +0.000 A 
BRANCH  21  27
ATOM     27  O   UNL     1       3.500   4.391  18.602  0.00  0.00    +0.000 OA
BRANCH  27  29
ATOM     28  C   UNL     1       4.344   2.508  19.767  0.00  0.00    +0.000 C 
ATOM     29  C   UNL     1       4.643   3.928  19.321  0.00  0.00    +0.000 C 
ENDBRANCH  27  29
ENDBRANCH  21  27
ENDBRANCH  18  24
ENDBRANCH   1  18
TORSDOF 5
ENDMDL
MODEL 4
REMARK VINA RESULT:      -6.4      2.421      3.356
REMARK  Name = 
REMARK  6 active torsions:
REMARK  status: ('A' for Active; 'I' for Inactive)
REMARK    1  A    between atoms: C_1  and  C_2
REMARK    2  A    between atoms: C_2  and  O_3
REMARK    3  A    between atoms: O_3  and  C_4
REMARK    4  A    between atoms: C_7  and  S_8
REMARK    5  A    between atoms: S_8  and  N_11
REMARK    6  A    between atoms: C_15  and  C_17
REMARK                            x       y       z     vdW  Elec       q    Type
REMARK                         _______ _______ _______ _____ _____    ______ ____
ROOT
ATOM      1  N   UNL     1       1.269  10.767  20.410  0.00  0.00    +0.000 NA
ATOM      2  C   UNL     1       1.613  12.207  20.604  0.00  0.00    +0.000 C 
ATOM      3  C   UNL     1       0.428  13.139  20.333  0.00  0.00    +0.000 C 
ATOM      4  N   UNL     1      -0.837  12.741  20.965  0.00  0.00    +0.000 N 
ATOM      5  C   UNL     1      -1.878  13.697  20.824  0.00  0.00    +0.000 C 
ATOM      6  O   UNL     1      -1.633  14.790  20.308  0.00  0.00    +0.000 OA
ATOM      7  C   UNL     1      -1.108  11.285  21.005  0.00  0.00    +0.000 C 
ATOM      8  C   UNL     1       0.129  10.426  21.310  0.00  0.00    +0.000 C 
ENDROOT
BRANCH   5   9
ATOM      9  C   UNL     1      -3.237  13.385  21.255  0.00  0.00    +0.000 A 
ATOM     10  C   UNL     1      -3.730  13.465  22.553  0.00  0.00    +0.000 A 
ATOM     11  C   UNL     1      -5.100  13.062  22.649  0.00  0.00    +0.000 A 
ATOM     12  C   UNL     1      -5.596  12.717  21.409  0.00  0.00    +0.000 A 
ATOM     13  S   UNL     1      -4.382  12.632  20.229  0.00  0.00    +0.000 S 
ATOM     14  C   UNL     1      -7.011  12.338  21.108  0.00  0.00    +0.000 C 
ATOM     15  C   UNL     1      -7.913  12.570  22.329  0.00  0.00    +0.000 C 
ATOM     16  C   UNL     1      -7.220  12.173  23.639  0.00  0.00    +0.000 C 
ATOM     17  C   UNL     1      -5.957  13.023  23.879  0.00  0.00    +0.000 C 
ENDBRANCH   5   9
BRANCH   1  18
ATOM     18  S   UNL     1       1.078  10.184  18.811  0.00  0.00    +0.000 S 
ATOM     19  O   UNL     1       1.864  11.021  17.932  0.00  0.00    +0.000 OA
ATOM     20  O   UNL     1      -0.338   9.995  18.582  0.00  0.00    +0.000 OA
BRANCH  18  24
ATOM     21  C   UNL     1       3.146   6.131  18.996  0.00  0.00    +0.000 A 
ATOM     22  C   UNL     1       2.361   6.576  20.067  0.00  0.00    +0.000 A 
ATOM     23  C   UNL     1       1.694   7.799  20.003  0.00  0.00    +0.000 A 
ATOM     24  C   UNL     1       1.832   8.584  18.860  0.00  0.00    +0.000 A 
ATOM     25  C   UNL     1       2.583   8.137  17.769  0.00  0.00    +0.000 A 
ATOM     26  C   UNL     1       3.250   6.910  17.844  0.00  0.00    +0.000 A 
BRANCH  21  27
ATOM     27  O   UNL     1       3.764   4.933  19.215  0.00  0.00    +0.000 OA
BRANCH  27  29
ATOM     28  C   UNL     1       2.783   3.234  17.888  0.00  0.00    +0.000 C 
ATOM     29  C   UNL     1       2.942   3.771  19.299  0.00  0.00    +0.000 C 
ENDBRANCH  27  29
ENDBRANCH  21  27
ENDBRANCH  18  24
ENDBRANCH   1  18
TORSDOF 5
ENDMDL
MODEL 5
REMARK VINA RESULT:      -6.4      2.580      3.474
REMARK  Name = 
REMARK  6 active torsions:
REMARK  status: ('A' for Active; 'I' for Inactive)
REMARK    1  A    between atoms: C_1  and  C_2
REMARK    2  A    between atoms: C_2  and  O_3
REMARK    3  A    between atoms: O_3  and  C_4
REMARK    4  A    between atoms: C_7  and  S_8
REMARK    5  A    between atoms: S_8  and  N_11
REMARK    6  A    between atoms: C_15  and  C_17
REMARK                            x       y       z     vdW  Elec       q    Type
REMARK                         _______ _______ _______ _____ _____    ______ ____
ROOT
ATOM      1  N   UNL     1       1.237  10.763  20.482  0.00  0.00    +0.000 NA
ATOM      2  C   UNL     1       1.591  12.203  20.663  0.00  0.00    +0.000 C 
ATOM      3  C   UNL     1       0.398  13.137  20.436  0.00  0.00    +0.000 C 
ATOM      4  N   UNL     1      -0.843  12.741  21.115  0.00  0.00    +0.000 N 
ATOM      5  C   UNL     1      -1.886  13.700  21.014  0.00  0.00    +0.000 C 
ATOM      6  O   UNL     1      -1.659  14.792  20.489  0.00  0.00    +0.000 OA
ATOM      7  C   UNL     1      -1.115  11.286  21.165  0.00  0.00    +0.000 C 
ATOM      8  C   UNL     1       0.131  10.425  21.425  0.00  0.00    +0.000 C 
ENDROOT
BRANCH   5   9
ATOM      9  C   UNL     1      -3.229  13.390  21.496  0.00  0.00    +0.000 A 
ATOM     10  C   UNL     1      -4.272  12.857  20.747  0.00  0.00    +0.000 A 
ATOM     11  C   UNL     1      -5.473  12.696  21.508  0.00  0.00    +0.000 A 
ATOM     12  C   UNL     1      -5.280  13.094  22.815  0.00  0.00    +0.000 A 
ATOM     13  S   UNL     1      -3.791  13.871  23.040  0.00  0.00    +0.000 S 
ATOM     14  C   UNL     1      -6.281  12.981  23.921  0.00  0.00    +0.000 C 
ATOM     15  C   UNL     1      -7.509  12.176  23.469  0.00  0.00    +0.000 C 
ATOM     16  C   UNL     1      -7.914  12.508  22.027  0.00  0.00    +0.000 C 
ATOM     17  C   UNL     1      -6.788  12.152  21.037  0.00  0.00    +0.000 C 
ENDBRANCH   5   9
BRANCH   1  18
ATOM     18  S   UNL     1       0.985  10.181  18.891  0.00  0.00    +0.000 S 
ATOM     19  O   UNL     1       1.601  11.110  17.971  0.00  0.00    +0.000 OA
ATOM     20  O   UNL     1      -0.415   9.837  18.770  0.00  0.00    +0.000 OA
BRANCH  18  24
ATOM     21  C   UNL     1       3.248   6.233  18.718  0.00  0.00    +0.000 A 
ATOM     22  C   UNL     1       3.352   7.156  17.671  0.00  0.00    +0.000 A 
ATOM     23  C   UNL     1       2.693   8.383  17.733  0.00  0.00    +0.000 A 
ATOM     24  C   UNL     1       1.912   8.674  18.850  0.00  0.00    +0.000 A 
ATOM     25  C   UNL     1       1.827   7.777  19.919  0.00  0.00    +0.000 A 
ATOM     26  C   UNL     1       2.491   6.549  19.846  0.00  0.00    +0.000 A 
BRANCH  21  27
ATOM     27  O   UNL     1       3.920   5.064  18.503  0.00  0.00    +0.000 OA
BRANCH  27  29
ATOM     28  C   UNL     1       6.280   4.884  18.408  0.00  0.00    +0.000 C 
ATOM     29  C   UNL     1       5.065   4.801  19.313  0.00  0.00    +0.000 C 
ENDBRANCH  27  29
ENDBRANCH  21  27
ENDBRANCH  18  24
ENDBRANCH   1  18
TORSDOF 5
ENDMDL
MODEL 6
REMARK VINA RESULT:      -6.4      0.688      1.510
REMARK  Name = 
REMARK  6 active torsions:
REMARK  status: ('A' for Active; 'I' for Inactive)
REMARK    1  A    between atoms: C_1  and  C_2
REMARK    2  A    between atoms: C_2  and  O_3
REMARK    3  A    between atoms: O_3  and  C_4
REMARK    4  A    between atoms: C_7  and  S_8
REMARK    5  A    between atoms: S_8  and  N_11
REMARK    6  A    between atoms: C_15  and  C_17
REMARK                            x       y       z     vdW  Elec       q    Type
REMARK                         _______ _______ _______ _____ _____    ______ ____
ROOT
ATOM      1  N   UNL     1       1.001  10.292  19.965  0.00  0.00    +0.000 NA
ATOM      2  C   UNL     1      -0.037  10.432  18.901  0.00  0.00    +0.000 C 
ATOM      3  C   UNL     1      -1.368  10.964  19.440  0.00  0.00    +0.000 C 
ATOM      4  N   UNL     1      -1.262  12.135  20.322  0.00  0.00    +0.000 N 
ATOM      5  C   UNL     1      -2.514  12.699  20.684  0.00  0.00    +0.000 C 
ATOM      6  O   UNL     1      -3.548  12.264  20.172  0.00  0.00    +0.000 OA
ATOM      7  C   UNL     1      -0.099  12.148  21.239  0.00  0.00    +0.000 C 
ATOM      8  C   UNL     1       1.201  11.624  20.609  0.00  0.00    +0.000 C 
ENDROOT
BRANCH   5   9
ATOM      9  C   UNL     1      -2.588  13.765  21.679  0.00  0.00    +0.000 A 
ATOM     10  C   UNL     1      -2.213  15.091  21.497  0.00  0.00    +0.000 A 
ATOM     11  C   UNL     1      -2.383  15.880  22.678  0.00  0.00    +0.000 A 
ATOM     12  C   UNL     1      -2.906  15.120  23.703  0.00  0.00    +0.000 A 
ATOM     13  S   UNL     1      -2.940  13.467  23.328  0.00  0.00    +0.000 S 
ATOM     14  C   UNL     1      -3.305  15.626  25.052  0.00  0.00    +0.000 C 
ATOM     15  C   UNL     1      -3.245  17.160  25.103  0.00  0.00    +0.000 C 
ATOM     16  C   UNL     1      -2.030  17.712  24.347  0.00  0.00    +0.000 C 
ATOM     17  C   UNL     1      -2.088  17.341  22.852  0.00  0.00    +0.000 C 
ENDBRANCH   5   9
BRANCH   1  18
ATOM     18  S   UNL     1       0.852   9.005  21.084  0.00  0.00    +0.000 S 
ATOM     19  O   UNL     1      -0.555   8.710  21.244  0.00  0.00    +0.000 OA
ATOM     20  O   UNL     1       1.675   9.325  22.231  0.00  0.00    +0.000 OA
BRANCH  18  24
ATOM     21  C   UNL     1       2.924   5.522  19.009  0.00  0.00    +0.000 A 
ATOM     22  C   UNL     1       2.229   5.321  20.207  0.00  0.00    +0.000 A 
ATOM     23  C   UNL     1       1.560   6.374  20.830  0.00  0.00    +0.000 A 
ATOM     24  C   UNL     1       1.605   7.639  20.249  0.00  0.00    +0.000 A 
ATOM     25  C   UNL     1       2.265   7.848  19.034  0.00  0.00    +0.000 A 
ATOM     26  C   UNL     1       2.935   6.786  18.419  0.00  0.00    +0.000 A 
BRANCH  21  27
ATOM     27  O   UNL     1       3.557   4.408  18.535  0.00  0.00    +0.000 OA
BRANCH  27  29
ATOM     28  C   UNL     1       2.672   2.330  17.823  0.00  0.00    +0.000 C 
ATOM     29  C   UNL     1       2.985   3.754  17.403  0.00  0.00    +0.000 C 
ENDBRANCH  27  29
ENDBRANCH  21  27
ENDBRANCH  18  24
ENDBRANCH   1  18
TORSDOF 5
ENDMDL
MODEL 7
REMARK VINA RESULT:      -6.4      2.434      3.386
REMARK  Name = 
REMARK  6 active torsions:
REMARK  status: ('A' for Active; 'I' for Inactive)
REMARK    1  A    between atoms: C_1  and  C_2
REMARK    2  A    between atoms: C_2  and  O_3
REMARK    3  A    between atoms: O_3  and  C_4
REMARK    4  A    between atoms: C_7  and  S_8
REMARK    5  A    between atoms: S_8  and  N_11
REMARK    6  A    between atoms: C_15  and  C_17
REMARK                            x       y       z     vdW  Elec       q    Type
REMARK                         _______ _______ _______ _____ _____    ______ ____
ROOT
ATOM      1  N   UNL     1       1.246  10.881  20.486  0.00  0.00    +0.000 NA
ATOM      2  C   UNL     1       1.602  12.324  20.623  0.00  0.00    +0.000 C 
ATOM      3  C   UNL     1       0.404  13.252  20.394  0.00  0.00    +0.000 C 
ATOM      4  N   UNL     1      -0.824  12.873  21.108  0.00  0.00    +0.000 N 
ATOM      5  C   UNL     1      -1.870  13.828  21.001  0.00  0.00    +0.000 C 
ATOM      6  O   UNL     1      -1.654  14.907  20.444  0.00  0.00    +0.000 OA
ATOM      7  C   UNL     1      -1.094  11.420  21.201  0.00  0.00    +0.000 C 
ATOM      8  C   UNL     1       0.158  10.566  21.459  0.00  0.00    +0.000 C 
ENDROOT
BRANCH   5   9
ATOM      9  C   UNL     1      -3.203  13.530  21.517  0.00  0.00    +0.000 A 
ATOM     10  C   UNL     1      -4.330  13.224  20.763  0.00  0.00    +0.000 A 
ATOM     11  C   UNL     1      -5.492  13.010  21.569  0.00  0.00    +0.000 A 
ATOM     12  C   UNL     1      -5.189  13.139  22.909  0.00  0.00    +0.000 A 
ATOM     13  S   UNL     1      -3.629  13.752  23.160  0.00  0.00    +0.000 S 
ATOM     14  C   UNL     1      -6.128  12.893  24.046  0.00  0.00    +0.000 C 
ATOM     15  C   UNL     1      -7.444  12.278  23.548  0.00  0.00    +0.000 C 
ATOM     16  C   UNL     1      -7.906  12.903  22.225  0.00  0.00    +0.000 C 
ATOM     17  C   UNL     1      -6.875  12.660  21.105  0.00  0.00    +0.000 C 
ENDBRANCH   5   9
BRANCH   1  18
ATOM     18  S   UNL     1       0.964  10.256  18.917  0.00  0.00    +0.000 S 
ATOM     19  O   UNL     1       1.651  11.103  17.967  0.00  0.00    +0.000 OA
ATOM     20  O   UNL     1      -0.457  10.008  18.795  0.00  0.00    +0.000 OA
BRANCH  18  24
ATOM     21  C   UNL     1       3.191   6.287  19.046  0.00  0.00    +0.000 A 
ATOM     22  C   UNL     1       2.347   6.660  20.099  0.00  0.00    +0.000 A 
ATOM     23  C   UNL     1       1.632   7.856  20.050  0.00  0.00    +0.000 A 
ATOM     24  C   UNL     1       1.781   8.687  18.941  0.00  0.00    +0.000 A 
ATOM     25  C   UNL     1       2.593   8.311  17.866  0.00  0.00    +0.000 A 
ATOM     26  C   UNL     1       3.307   7.110  17.926  0.00  0.00    +0.000 A 
BRANCH  21  27
ATOM     27  O   UNL     1       3.850   5.108  19.248  0.00  0.00    +0.000 OA
BRANCH  27  29
ATOM     28  C   UNL     1       3.799   3.334  17.679  0.00  0.00    +0.000 C 
ATOM     29  C   UNL     1       3.158   3.901  18.933  0.00  0.00    +0.000 C 
ENDBRANCH  27  29
ENDBRANCH  21  27
ENDBRANCH  18  24
ENDBRANCH   1  18
TORSDOF 5
ENDMDL
MODEL 8
REMARK VINA RESULT:      -6.3      1.441      1.656
REMARK  Name = 
REMARK  6 active torsions:
REMARK  status: ('A' for Active; 'I' for Inactive)
REMARK    1  A    between atoms: C_1  and  C_2
REMARK    2  A    between atoms: C_2  and  O_3
REMARK    3  A    between atoms: O_3  and  C_4
REMARK    4  A    between atoms: C_7  and  S_8
REMARK    5  A    between atoms: S_8  and  N_11
REMARK    6  A    between atoms: C_15  and  C_17
REMARK                            x       y       z     vdW  Elec       q    Type
REMARK                         _______ _______ _______ _____ _____    ______ ____
ROOT
ATOM      1  N   UNL     1       0.961  10.749  20.048  0.00  0.00    +0.000 NA
ATOM      2  C   UNL     1       0.246  10.816  18.738  0.00  0.00    +0.000 C 
ATOM      3  C   UNL     1      -1.263  11.029  18.899  0.00  0.00    +0.000 C 
ATOM      4  N   UNL     1      -1.647  12.091  19.839  0.00  0.00    +0.000 N 
ATOM      5  C   UNL     1      -3.039  12.370  19.855  0.00  0.00    +0.000 C 
ATOM      6  O   UNL     1      -3.780  11.814  19.041  0.00  0.00    +0.000 OA
ATOM      7  C   UNL     1      -0.807  12.212  21.053  0.00  0.00    +0.000 C 
ATOM      8  C   UNL     1       0.695  12.012  20.798  0.00  0.00    +0.000 C 
ENDROOT
BRANCH   5   9
ATOM      9  C   UNL     1      -3.602  13.283  20.845  0.00  0.00    +0.000 A 
ATOM     10  C   UNL     1      -4.643  13.007  21.725  0.00  0.00    +0.000 A 
ATOM     11  C   UNL     1      -4.979  14.125  22.552  0.00  0.00    +0.000 A 
ATOM     12  C   UNL     1      -4.157  15.199  22.279  0.00  0.00    +0.000 A 
ATOM     13  S   UNL     1      -3.201  14.947  20.903  0.00  0.00    +0.000 S 
ATOM     14  C   UNL     1      -4.152  16.504  23.009  0.00  0.00    +0.000 C 
ATOM     15  C   UNL     1      -5.054  16.442  24.251  0.00  0.00    +0.000 C 
ATOM     16  C   UNL     1      -6.345  15.657  23.985  0.00  0.00    +0.000 C 
ATOM     17  C   UNL     1      -6.039  14.194  23.611  0.00  0.00    +0.000 C 
ENDBRANCH   5   9
BRANCH   1  18
ATOM     18  S   UNL     1       0.784   9.337  21.000  0.00  0.00    +0.000 S 
ATOM     19  O   UNL     1      -0.618   8.986  21.027  0.00  0.00    +0.000 OA
ATOM     20  O   UNL     1       1.518   9.545  22.230  0.00  0.00    +0.000 OA
BRANCH  18  24
ATOM     21  C   UNL     1       2.850   6.107  18.544  0.00  0.00    +0.000 A 
ATOM     22  C   UNL     1       2.707   7.402  18.033  0.00  0.00    +0.000 A 
ATOM     23  C   UNL     1       2.110   8.407  18.793  0.00  0.00    +0.000 A 
ATOM     24  C   UNL     1       1.640   8.099  20.069  0.00  0.00    +0.000 A 
ATOM     25  C   UNL     1       1.808   6.819  20.606  0.00  0.00    +0.000 A 
ATOM     26  C   UNL     1       2.407   5.818  19.835  0.00  0.00    +0.000 A 
BRANCH  21  27
ATOM     27  O   UNL     1       3.422   5.222  17.674  0.00  0.00    +0.000 OA
BRANCH  27  29
ATOM     28  C   UNL     1       5.056   4.509  16.114  0.00  0.00    +0.000 C 
ATOM     29  C   UNL     1       4.740   5.511  17.210  0.00  0.00    +0.000 C 
ENDBRANCH  27  29
ENDBRANCH  21  27
ENDBRANCH  18  24
ENDBRANCH   1  18
TORSDOF 5
ENDMDL
MODEL 9
REMARK VINA RESULT:      -6.3      2.356      9.889
REMARK  Name = 
REMARK  6 active torsions:
REMARK  status: ('A' for Active; 'I' for Inactive)
REMARK    1  A    between atoms: C_1  and  C_2
REMARK    2  A    between atoms: C_2  and  O_3
REMARK    3  A    between atoms: O_3  and  C_4
REMARK    4  A    between atoms: C_7  and  S_8
REMARK    5  A    between atoms: S_8  and  N_11
REMARK    6  A    between atoms: C_15  and  C_17
REMARK                            x       y       z     vdW  Elec       q    Type
REMARK                         _______ _______ _______ _____ _____    ______ ____
ROOT
ATOM      1  N   UNL     1      -0.085  11.485  19.826  0.00  0.00    +0.000 NA
ATOM      2  C   UNL     1       0.701  11.651  18.568  0.00  0.00    +0.000 C 
ATOM      3  C   UNL     1       1.814  10.609  18.425  0.00  0.00    +0.000 C 
ATOM      4  N   UNL     1       1.410   9.222  18.693  0.00  0.00    +0.000 N 
ATOM      5  C   UNL     1       2.417   8.262  18.407  0.00  0.00    +0.000 C 
ATOM      6  O   UNL     1       3.468   8.624  17.874  0.00  0.00    +0.000 OA
ATOM      7  C   UNL     1       0.437   9.035  19.794  0.00  0.00    +0.000 C 
ATOM      8  C   UNL     1      -0.662  10.109  19.847  0.00  0.00    +0.000 C 
ENDROOT
BRANCH   5   9
ATOM      9  C   UNL     1       2.230   6.860  18.769  0.00  0.00    +0.000 A 
ATOM     10  C   UNL     1       2.087   5.794  17.888  0.00  0.00    +0.000 A 
ATOM     11  C   UNL     1       1.893   4.545  18.561  0.00  0.00    +0.000 A 
ATOM     12  C   UNL     1       1.922   4.717  19.929  0.00  0.00    +0.000 A 
ATOM     13  S   UNL     1       1.921   6.352  20.374  0.00  0.00    +0.000 S 
ATOM     14  C   UNL     1       1.849   3.626  20.949  0.00  0.00    +0.000 C 
ATOM     15  C   UNL     1       1.933   2.245  20.283  0.00  0.00    +0.000 C 
ATOM     16  C   UNL     1       1.143   2.192  18.969  0.00  0.00    +0.000 C 
ATOM     17  C   UNL     1       1.706   3.192  17.940  0.00  0.00    +0.000 C 
ENDBRANCH   5   9
BRANCH   1  18
ATOM     18  S   UNL     1       0.642  11.946  21.307  0.00  0.00    +0.000 S 
ATOM     19  O   UNL     1       1.510  13.073  21.049  0.00  0.00    +0.000 OA
ATOM     20  O   UNL     1       1.153  10.747  21.934  0.00  0.00    +0.000 OA
BRANCH  18  24
ATOM     21  C   UNL     1      -2.956  13.421  23.677  0.00  0.00    +0.000 A 
ATOM     22  C   UNL     1      -2.701  12.050  23.556  0.00  0.00    +0.000 A 
ATOM     23  C   UNL     1      -1.580  11.590  22.865  0.00  0.00    +0.000 A 
ATOM     24  C   UNL     1      -0.722  12.519  22.278  0.00  0.00    +0.000 A 
ATOM     25  C   UNL     1      -0.945  13.892  22.420  0.00  0.00    +0.000 A 
ATOM     26  C   UNL     1      -2.072  14.342  23.115  0.00  0.00    +0.000 A 
BRANCH  21  27
ATOM     27  O   UNL     1      -4.105  13.719  24.352  0.00  0.00    +0.000 OA
BRANCH  27  29
ATOM     28  C   UNL     1      -6.151  13.439  23.192  0.00  0.00    +0.000 C 
ATOM     29  C   UNL     1      -5.207  12.824  24.209  0.00  0.00    +0.000 C 
ENDBRANCH  27  29
ENDBRANCH  21  27
ENDBRANCH  18  24
ENDBRANCH   1  18
TORSDOF 5
ENDMDL
