MODEL 1
REMARK VINA RESULT:      -7.0      0.000      0.000
REMARK  Name = 
REMARK  11 active torsions:
REMARK  status: ('A' for Active; 'I' for Inactive)
REMARK    1  A    between atoms: C_1  and  C_2
REMARK    2  A    between atoms: C_2  and  C_3
REMARK    3  A    between atoms: C_3  and  C_4
REMARK    4  A    between atoms: C_4  and  C_5
REMARK    5  A    between atoms: C_4  and  N_15
REMARK    6  A    between atoms: N_9  and  C_10
REMARK    7  A    between atoms: C_10  and  C_11
REMARK    8  A    between atoms: C_10  and  C_12
REMARK    9  A    between atoms: C_10  and  C_13
REMARK   10  A    between atoms: C_13  and  C_14
REMARK   11  A    between atoms: N_18  and  C_19
REMARK                            x       y       z     vdW  Elec       q    Type
REMARK                         _______ _______ _______ _____ _____    ______ ____
ROOT
ATOM      1  C   UNL     1       4.424   4.617  17.447  0.00  0.00    +0.000 C 
ENDROOT
BRANCH   1   2
ATOM      2  N   UNL     1       4.879   5.945  17.925  0.00  0.00    +0.000 NA
ATOM      3  C   UNL     1       4.517   7.102  17.093  0.00  0.00    +0.000 C 
ATOM      4  C   UNL     1       3.074   7.652  17.229  0.00  0.00    +0.000 C 
ATOM      5  N   UNL     1       2.444   7.608  18.555  0.00  0.00    +0.000 NA
ATOM      6  C   UNL     1       3.053   6.740  19.566  0.00  0.00    +0.000 C 
ATOM      7  C   UNL     1       4.501   6.260  19.316  0.00  0.00    +0.000 C 
BRANCH   5   8
ATOM      8  C   UNL     1       1.895   8.859  19.069  0.00  0.00    +0.000 C 
ATOM      9  C   UNL     1       0.920   9.550  18.109  0.00  0.00    +0.000 C 
ATOM     10  C   UNL     1      -0.039  10.305  19.013  0.00  0.00    +0.000 C 
ATOM     11  C   UNL     1      -0.195   9.409  20.231  0.00  0.00    +0.000 C 
ATOM     12  C   UNL     1       1.159   8.729  20.420  0.00  0.00    +0.000 C 
ENDBRANCH   5   8
ENDBRANCH   1   2
BRANCH   1  13
ATOM     13  C   UNL     1       4.289   3.636  18.599  0.00  0.00    +0.000 A 
ATOM     14  N   UNL     1       5.336   3.124  19.230  0.00  0.00    +0.000 NA
ATOM     15  N   UNL     1       4.878   2.157  20.062  0.00  0.00    +0.000 NA
ATOM     16  N   UNL     1       3.567   2.070  19.991  0.00  0.00    +0.000 NA
ATOM     17  N   UNL     1       3.161   3.040  19.131  0.00  0.00    +0.000 N 
BRANCH  17  18
ATOM     18  C   UNL     1       1.709   3.187  18.967  0.00  0.00    +0.000 C 
ATOM     19  C   UNL     1       1.439   4.145  17.767  0.00  0.00    +0.000 C 
ATOM     20  C   UNL     1       0.930   1.897  18.630  0.00  0.00    +0.000 C 
BRANCH  18  21
ATOM     21  C   UNL     1       1.081   3.853  20.234  0.00  0.00    +0.000 C 
ATOM     22  C   UNL     1       1.190   3.051  21.526  0.00  0.00    +0.000 C 
ENDBRANCH  18  21
ENDBRANCH  17  18
ENDBRANCH   1  13
BRANCH   1  23
ATOM     23  C   UNL     1       5.294   3.954  16.334  0.00  0.00    +0.000 C 
BRANCH  23  25
ATOM     24  C   UNL     1       6.086   4.013  13.961  0.00  0.00    +0.000 C 
ATOM     25  C   UNL     1       5.430   4.811  15.074  0.00  0.00    +0.000 C 
ENDBRANCH  23  25
ENDBRANCH   1  23
TORSDOF 7
ENDMDL
MODEL 2
REMARK VINA RESULT:      -6.9      2.012      5.584
REMARK  Name = 
REMARK  11 active torsions:
REMARK  status: ('A' for Active; 'I' for Inactive)
REMARK    1  A    between atoms: C_1  and  C_2
REMARK    2  A    between atoms: C_2  and  C_3
REMARK    3  A    between atoms: C_3  and  C_4
REMARK    4  A    between atoms: C_4  and  C_5
REMARK    5  A    between atoms: C_4  and  N_15
REMARK    6  A    between atoms: N_9  and  C_10
REMARK    7  A    between atoms: C_10  and  C_11
REMARK    8  A    between atoms: C_10  and  C_12
REMARK    9  A    between atoms: C_10  and  C_13
REMARK   10  A    between atoms: C_13  and  C_14
REMARK   11  A    between atoms: N_18  and  C_19
REMARK                            x       y       z     vdW  Elec       q    Type
REMARK                         _______ _______ _______ _____ _____    ______ ____
ROOT
ATOM      1  C   UNL     1       5.269   4.263  18.641  0.00  0.00    +0.000 C 
ENDROOT
BRANCH   1   2
ATOM      2  N   UNL     1       4.404   4.486  17.457  0.00  0.00    +0.000 NA
ATOM      3  C   UNL     1       4.568   5.768  16.755  0.00  0.00    +0.000 C 
ATOM      4  C   UNL     1       5.769   5.898  15.785  0.00  0.00    +0.000 C 
ATOM      5  N   UNL     1       6.170   4.708  15.023  0.00  0.00    +0.000 NA
ATOM      6  C   UNL     1       5.665   3.410  15.480  0.00  0.00    +0.000 C 
ATOM      7  C   UNL     1       4.458   3.414  16.446  0.00  0.00    +0.000 C 
BRANCH   5   8
ATOM      8  C   UNL     1       6.273   4.851  13.575  0.00  0.00    +0.000 C 
ATOM      9  C   UNL     1       7.713   4.986  13.066  0.00  0.00    +0.000 C 
ATOM     10  C   UNL     1       7.685   4.391  11.669  0.00  0.00    +0.000 C 
ATOM     11  C   UNL     1       6.690   3.245  11.766  0.00  0.00    +0.000 C 
ATOM     12  C   UNL     1       5.633   3.701  12.769  0.00  0.00    +0.000 C 
ENDBRANCH   5   8
ENDBRANCH   1   2
BRANCH   1  13
ATOM     13  C   UNL     1       4.529   3.500  19.726  0.00  0.00    +0.000 A 
ATOM     14  N   UNL     1       5.089   2.521  20.422  0.00  0.00    +0.000 NA
ATOM     15  N   UNL     1       4.114   1.935  21.160  0.00  0.00    +0.000 NA
ATOM     16  N   UNL     1       2.962   2.543  20.968  0.00  0.00    +0.000 NA
ATOM     17  N   UNL     1       3.207   3.578  20.124  0.00  0.00    +0.000 N 
BRANCH  17  18
ATOM     18  C   UNL     1       2.066   4.458  19.838  0.00  0.00    +0.000 C 
ATOM     19  C   UNL     1       1.586   4.192  18.379  0.00  0.00    +0.000 C 
ATOM     20  C   UNL     1       0.812   4.249  20.714  0.00  0.00    +0.000 C 
BRANCH  18  21
ATOM     21  C   UNL     1       2.501   5.958  19.909  0.00  0.00    +0.000 C 
ATOM     22  C   UNL     1       1.546   6.889  20.647  0.00  0.00    +0.000 C 
ENDBRANCH  18  21
ENDBRANCH  17  18
ENDBRANCH   1  13
BRANCH   1  23
ATOM     23  C   UNL     1       5.900   5.540  19.279  0.00  0.00    +0.000 C 
BRANCH  23  25
ATOM     24  C   UNL     1       7.893   6.816  18.466  0.00  0.00    +0.000 C 
ATOM     25  C   UNL     1       7.428   5.570  19.200  0.00  0.00    +0.000 C 
ENDBRANCH  23  25
ENDBRANCH   1  23
TORSDOF 7
ENDMDL
MODEL 3
REMARK VINA RESULT:      -6.9      2.174      5.879
REMARK  Name = 
REMARK  11 active torsions:
REMARK  status: ('A' for Active; 'I' for Inactive)
REMARK    1  A    between atoms: C_1  and  C_2
REMARK    2  A    between atoms: C_2  and  C_3
REMARK    3  A    between atoms: C_3  and  C_4
REMARK    4  A    between atoms: C_4  and  C_5
REMARK    5  A    between atoms: C_4  and  N_15
REMARK    6  A    between atoms: N_9  and  C_10
REMARK    7  A    between atoms: C_10  and  C_11
REMARK    8  A    between atoms: C_10  and  C_12
REMARK    9  A    between atoms: C_10  and  C_13
REMARK   10  A    between atoms: C_13  and  C_14
REMARK   11  A    between atoms: N_18  and  C_19
REMARK                            x       y       z     vdW  Elec       q    Type
REMARK                         _______ _______ _______ _____ _____    ______ ____
ROOT
ATOM      1  C   UNL     1       5.493   4.664  18.195  0.00  0.00    +0.000 C 
ENDROOT
BRANCH   1   2
ATOM      2  N   UNL     1       4.640   4.944  17.015  0.00  0.00    +0.000 NA
ATOM      3  C   UNL     1       5.107   5.997  16.100  0.00  0.00    +0.000 C 
ATOM      4  C   UNL     1       6.217   5.618  15.089  0.00  0.00    +0.000 C 
ATOM      5  N   UNL     1       6.205   4.260  14.530  0.00  0.00    +0.000 NA
ATOM      6  C   UNL     1       5.389   3.254  15.215  0.00  0.00    +0.000 C 
ATOM      7  C   UNL     1       4.310   3.760  16.200  0.00  0.00    +0.000 C 
BRANCH   5   8
ATOM      8  C   UNL     1       6.234   4.140  13.076  0.00  0.00    +0.000 C 
ATOM      9  C   UNL     1       7.453   3.382  12.540  0.00  0.00    +0.000 C 
ATOM     10  C   UNL     1       6.971   2.738  11.252  0.00  0.00    +0.000 C 
ATOM     11  C   UNL     1       5.523   2.368  11.534  0.00  0.00    +0.000 C 
ATOM     12  C   UNL     1       4.993   3.458  12.463  0.00  0.00    +0.000 C 
ENDBRANCH   5   8
ENDBRANCH   1   2
BRANCH   1  13
ATOM     13  C   UNL     1       4.729   3.888  19.253  0.00  0.00    +0.000 A 
ATOM     14  N   UNL     1       5.229   2.819  19.857  0.00  0.00    +0.000 NA
ATOM     15  N   UNL     1       4.235   2.262  20.592  0.00  0.00    +0.000 NA
ATOM     16  N   UNL     1       3.132   2.973  20.488  0.00  0.00    +0.000 NA
ATOM     17  N   UNL     1       3.433   4.044  19.708  0.00  0.00    +0.000 N 
BRANCH  17  18
ATOM     18  C   UNL     1       2.361   5.031  19.529  0.00  0.00    +0.000 C 
ATOM     19  C   UNL     1       1.291   4.810  20.641  0.00  0.00    +0.000 C 
ATOM     20  C   UNL     1       2.774   6.513  19.663  0.00  0.00    +0.000 C 
BRANCH  18  21
ATOM     21  C   UNL     1       1.644   4.817  18.156  0.00  0.00    +0.000 C 
ATOM     22  C   UNL     1       1.210   3.387  17.852  0.00  0.00    +0.000 C 
ENDBRANCH  18  21
ENDBRANCH  17  18
ENDBRANCH   1  13
BRANCH   1  23
ATOM     23  C   UNL     1       6.153   5.905  18.873  0.00  0.00    +0.000 C 
BRANCH  23  25
ATOM     24  C   UNL     1       8.039   7.425  18.244  0.00  0.00    +0.000 C 
ATOM     25  C   UNL     1       7.660   6.005  18.628  0.00  0.00    +0.000 C 
ENDBRANCH  23  25
ENDBRANCH   1  23
TORSDOF 7
ENDMDL
MODEL 4
REMARK VINA RESULT:      -6.6      1.374      5.549
REMARK  Name = 
REMARK  11 active torsions:
REMARK  status: ('A' for Active; 'I' for Inactive)
REMARK    1  A    between atoms: C_1  and  C_2
REMARK    2  A    between atoms: C_2  and  C_3
REMARK    3  A    between atoms: C_3  and  C_4
REMARK    4  A    between atoms: C_4  and  C_5
REMARK    5  A    between atoms: C_4  and  N_15
REMARK    6  A    between atoms: N_9  and  C_10
REMARK    7  A    between atoms: C_10  and  C_11
REMARK    8  A    between atoms: C_10  and  C_12
REMARK    9  A    between atoms: C_10  and  C_13
REMARK   10  A    between atoms: C_13  and  C_14
REMARK   11  A    between atoms: N_18  and  C_19
REMARK                            x       y       z     vdW  Elec       q    Type
REMARK                         _______ _______ _______ _____ _____    ______ ____
ROOT
ATOM      1  C   UNL     1       4.403   5.775  18.386  0.00  0.00    +0.000 C 
ENDROOT
BRANCH   1   2
ATOM      2  N   UNL     1       4.072   5.569  16.955  0.00  0.00    +0.000 NA
ATOM      3  C   UNL     1       4.744   6.454  15.991  0.00  0.00    +0.000 C 
ATOM      4  C   UNL     1       6.204   6.107  15.607  0.00  0.00    +0.000 C 
ATOM      5  N   UNL     1       6.575   4.689  15.523  0.00  0.00    +0.000 NA
ATOM      6  C   UNL     1       5.675   3.715  16.146  0.00  0.00    +0.000 C 
ATOM      7  C   UNL     1       4.239   4.183  16.479  0.00  0.00    +0.000 C 
BRANCH   5   8
ATOM      8  C   UNL     1       7.202   4.239  14.284  0.00  0.00    +0.000 C 
ATOM      9  C   UNL     1       6.220   3.629  13.278  0.00  0.00    +0.000 C 
ATOM     10  C   UNL     1       6.831   3.921  11.918  0.00  0.00    +0.000 C 
ATOM     11  C   UNL     1       7.481   5.286  12.082  0.00  0.00    +0.000 C 
ATOM     12  C   UNL     1       7.980   5.335  13.524  0.00  0.00    +0.000 C 
ENDBRANCH   5   8
ENDBRANCH   1   2
BRANCH   1  13
ATOM     13  C   UNL     1       4.400   4.459  19.145  0.00  0.00    +0.000 A 
ATOM     14  N   UNL     1       5.513   3.814  19.463  0.00  0.00    +0.000 NA
ATOM     15  N   UNL     1       5.155   2.603  19.958  0.00  0.00    +0.000 NA
ATOM     16  N   UNL     1       3.845   2.486  19.987  0.00  0.00    +0.000 NA
ATOM     17  N   UNL     1       3.340   3.668  19.548  0.00  0.00    +0.000 N 
BRANCH  17  18
ATOM     18  C   UNL     1       1.878   3.796  19.583  0.00  0.00    +0.000 C 
ATOM     19  C   UNL     1       1.506   5.016  20.479  0.00  0.00    +0.000 C 
ATOM     20  C   UNL     1       1.188   4.070  18.229  0.00  0.00    +0.000 C 
BRANCH  18  21
ATOM     21  C   UNL     1       1.234   2.533  20.243  0.00  0.00    +0.000 C 
ATOM     22  C   UNL     1       1.237   2.509  21.767  0.00  0.00    +0.000 C 
ENDBRANCH  18  21
ENDBRANCH  17  18
ENDBRANCH   1  13
BRANCH   1  23
ATOM     23  C   UNL     1       3.506   6.792  19.158  0.00  0.00    +0.000 C 
BRANCH  23  25
ATOM     24  C   UNL     1       1.731   8.553  19.054  0.00  0.00    +0.000 C 
ATOM     25  C   UNL     1       2.704   7.717  18.240  0.00  0.00    +0.000 C 
ENDBRANCH  23  25
ENDBRANCH   1  23
TORSDOF 7
ENDMDL
MODEL 5
REMARK VINA RESULT:      -6.6      2.869      6.140
REMARK  Name = 
REMARK  11 active torsions:
REMARK  status: ('A' for Active; 'I' for Inactive)
REMARK    1  A    between atoms: C_1  and  C_2
REMARK    2  A    between atoms: C_2  and  C_3
REMARK    3  A    between atoms: C_3  and  C_4
REMARK    4  A    between atoms: C_4  and  C_5
REMARK    5  A    between atoms: C_4  and  N_15
REMARK    6  A    between atoms: N_9  and  C_10
REMARK    7  A    between atoms: C_10  and  C_11
REMARK    8  A    between atoms: C_10  and  C_12
REMARK    9  A    between atoms: C_10  and  C_13
REMARK   10  A    between atoms: C_13  and  C_14
REMARK   11  A    between atoms: N_18  and  C_19
REMARK                            x       y       z     vdW  Elec       q    Type
REMARK                         _______ _______ _______ _____ _____    ______ ____
ROOT
ATOM      1  C   UNL     1       5.863   5.559  17.837  0.00  0.00    +0.000 C 
ENDROOT
BRANCH   1   2
ATOM      2  N   UNL     1       5.982   4.286  17.087  0.00  0.00    +0.000 NA
ATOM      3  C   UNL     1       4.844   3.920  16.229  0.00  0.00    +0.000 C 
ATOM      4  C   UNL     1       4.744   4.614  14.848  0.00  0.00    +0.000 C 
ATOM      5  N   UNL     1       5.993   4.921  14.139  0.00  0.00    +0.000 NA
ATOM      6  C   UNL     1       7.236   4.888  14.914  0.00  0.00    +0.000 C 
ATOM      7  C   UNL     1       7.209   4.160  16.278  0.00  0.00    +0.000 C 
BRANCH   5   8
ATOM      8  C   UNL     1       6.113   4.438  12.767  0.00  0.00    +0.000 C 
ATOM      9  C   UNL     1       7.416   3.681  12.487  0.00  0.00    +0.000 C 
ATOM     10  C   UNL     1       7.057   2.689  11.394  0.00  0.00    +0.000 C 
ATOM     11  C   UNL     1       5.629   2.276  11.712  0.00  0.00    +0.000 C 
ATOM     12  C   UNL     1       4.965   3.514  12.309  0.00  0.00    +0.000 C 
ENDBRANCH   5   8
ENDBRANCH   1   2
BRANCH   1  13
ATOM     13  C   UNL     1       4.409   5.963  18.005  0.00  0.00    +0.000 A 
ATOM     14  N   UNL     1       3.906   7.067  17.470  0.00  0.00    +0.000 NA
ATOM     15  N   UNL     1       2.652   7.225  17.962  0.00  0.00    +0.000 NA
ATOM     16  N   UNL     1       2.345   6.231  18.769  0.00  0.00    +0.000 NA
ATOM     17  N   UNL     1       3.406   5.382  18.759  0.00  0.00    +0.000 N 
BRANCH  17  18
ATOM     18  C   UNL     1       3.245   4.142  19.529  0.00  0.00    +0.000 C 
ATOM     19  C   UNL     1       2.390   3.144  18.691  0.00  0.00    +0.000 C 
ATOM     20  C   UNL     1       4.544   3.376  19.860  0.00  0.00    +0.000 C 
BRANCH  18  21
ATOM     21  C   UNL     1       2.458   4.419  20.851  0.00  0.00    +0.000 C 
ATOM     22  C   UNL     1       2.017   3.184  21.630  0.00  0.00    +0.000 C 
ENDBRANCH  18  21
ENDBRANCH  17  18
ENDBRANCH   1  13
BRANCH   1  23
ATOM     23  C   UNL     1       6.649   6.775  17.253  0.00  0.00    +0.000 C 
BRANCH  23  25
ATOM     24  C   UNL     1       8.151   8.677  17.877  0.00  0.00    +0.000 C 
ATOM     25  C   UNL     1       7.829   7.212  18.122  0.00  0.00    +0.000 C 
ENDBRANCH  23  25
ENDBRANCH   1  23
TORSDOF 7
ENDMDL
MODEL 6
REMARK VINA RESULT:      -6.6      2.722      5.858
REMARK  Name = 
REMARK  11 active torsions:
REMARK  status: ('A' for Active; 'I' for Inactive)
REMARK    1  A    between atoms: C_1  and  C_2
REMARK    2  A    between atoms: C_2  and  C_3
REMARK    3  A    between atoms: C_3  and  C_4
REMARK    4  A    between atoms: C_4  and  C_5
REMARK    5  A    between atoms: C_4  and  N_15
REMARK    6  A    between atoms: N_9  and  C_10
REMARK    7  A    between atoms: C_10  and  C_11
REMARK    8  A    between atoms: C_10  and  C_12
REMARK    9  A    between atoms: C_10  and  C_13
REMARK   10  A    between atoms: C_13  and  C_14
REMARK   11  A    between atoms: N_18  and  C_19
REMARK                            x       y       z     vdW  Elec       q    Type
REMARK                         _______ _______ _______ _____ _____    ______ ____
ROOT
ATOM      1  C   UNL     1       4.558   5.136  18.320  0.00  0.00    +0.000 C 
ENDROOT
BRANCH   1   2
ATOM      2  N   UNL     1       4.271   5.305  16.875  0.00  0.00    +0.000 NA
ATOM      3  C   UNL     1       5.117   6.262  16.145  0.00  0.00    +0.000 C 
ATOM      4  C   UNL     1       6.525   5.778  15.712  0.00  0.00    +0.000 C 
ATOM      5  N   UNL     1       6.677   4.372  15.317  0.00  0.00    +0.000 NA
ATOM      6  C   UNL     1       5.608   3.443  15.691  0.00  0.00    +0.000 C 
ATOM      7  C   UNL     1       4.246   4.050  16.101  0.00  0.00    +0.000 C 
BRANCH   5   8
ATOM      8  C   UNL     1       7.289   4.112  14.017  0.00  0.00    +0.000 C 
ATOM      9  C   UNL     1       6.295   3.649  12.946  0.00  0.00    +0.000 C 
ATOM     10  C   UNL     1       6.886   4.140  11.635  0.00  0.00    +0.000 C 
ATOM     11  C   UNL     1       7.534   5.469  11.988  0.00  0.00    +0.000 C 
ATOM     12  C   UNL     1       8.052   5.310  13.415  0.00  0.00    +0.000 C 
ENDBRANCH   5   8
ENDBRANCH   1   2
BRANCH   1  13
ATOM     13  C   UNL     1       3.346   5.489  19.165  0.00  0.00    +0.000 A 
ATOM     14  N   UNL     1       2.921   6.735  19.320  0.00  0.00    +0.000 NA
ATOM     15  N   UNL     1       1.953   6.721  20.270  0.00  0.00    +0.000 NA
ATOM     16  N   UNL     1       1.740   5.492  20.692  0.00  0.00    +0.000 NA
ATOM     17  N   UNL     1       2.552   4.685  19.961  0.00  0.00    +0.000 N 
BRANCH  17  18
ATOM     18  C   UNL     1       2.414   3.244  20.204  0.00  0.00    +0.000 C 
ATOM     19  C   UNL     1       3.759   2.705  20.779  0.00  0.00    +0.000 C 
ATOM     20  C   UNL     1       1.344   2.830  21.239  0.00  0.00    +0.000 C 
BRANCH  18  21
ATOM     21  C   UNL     1       2.154   2.486  18.862  0.00  0.00    +0.000 C 
ATOM     22  C   UNL     1       3.254   1.527  18.420  0.00  0.00    +0.000 C 
ENDBRANCH  18  21
ENDBRANCH  17  18
ENDBRANCH   1  13
BRANCH   1  23
ATOM     23  C   UNL     1       5.789   5.919  18.871  0.00  0.00    +0.000 C 
BRANCH  23  25
ATOM     24  C   UNL     1       8.142   5.843  19.719  0.00  0.00    +0.000 C 
ATOM     25  C   UNL     1       7.041   5.054  19.032  0.00  0.00    +0.000 C 
ENDBRANCH  23  25
ENDBRANCH   1  23
TORSDOF 7
ENDMDL
MODEL 7
REMARK VINA RESULT:      -6.4      0.657      1.472
REMARK  Name = 
REMARK  11 active torsions:
REMARK  status: ('A' for Active; 'I' for Inactive)
REMARK    1  A    between atoms: C_1  and  C_2
REMARK    2  A    between atoms: C_2  and  C_3
REMARK    3  A    between atoms: C_3  and  C_4
REMARK    4  A    between atoms: C_4  and  C_5
REMARK    5  A    between atoms: C_4  and  N_15
REMARK    6  A    between atoms: N_9  and  C_10
REMARK    7  A    between atoms: C_10  and  C_11
REMARK    8  A    between atoms: C_10  and  C_12
REMARK    9  A    between atoms: C_10  and  C_13
REMARK   10  A    between atoms: C_13  and  C_14
REMARK   11  A    between atoms: N_18  and  C_19
REMARK                            x       y       z     vdW  Elec       q    Type
REMARK                         _______ _______ _______ _____ _____    ______ ____
ROOT
ATOM      1  C   UNL     1       4.150   4.628  17.812  0.00  0.00    +0.000 C 
ENDROOT
BRANCH   1   2
ATOM      2  N   UNL     1       4.610   5.987  18.184  0.00  0.00    +0.000 NA
ATOM      3  C   UNL     1       4.347   7.059  17.211  0.00  0.00    +0.000 C 
ATOM      4  C   UNL     1       2.917   7.653  17.177  0.00  0.00    +0.000 C 
ATOM      5  N   UNL     1       2.188   7.765  18.447  0.00  0.00    +0.000 NA
ATOM      6  C   UNL     1       2.692   6.994  19.587  0.00  0.00    +0.000 C 
ATOM      7  C   UNL     1       4.140   6.456  19.501  0.00  0.00    +0.000 C 
BRANCH   5   8
ATOM      8  C   UNL     1       1.642   9.075  18.786  0.00  0.00    +0.000 C 
ATOM      9  C   UNL     1       0.540   9.552  17.834  0.00  0.00    +0.000 C 
ATOM     10  C   UNL     1      -0.350  10.438  18.689  0.00  0.00    +0.000 C 
ATOM     11  C   UNL     1      -0.334   9.780  20.059  0.00  0.00    +0.000 C 
ATOM     12  C   UNL     1       1.062   9.180  20.212  0.00  0.00    +0.000 C 
ENDBRANCH   5   8
ENDBRANCH   1   2
BRANCH   1  13
ATOM     13  C   UNL     1       4.232   3.678  18.995  0.00  0.00    +0.000 A 
ATOM     14  N   UNL     1       5.377   3.165  19.424  0.00  0.00    +0.000 NA
ATOM     15  N   UNL     1       5.080   2.227  20.356  0.00  0.00    +0.000 NA
ATOM     16  N   UNL     1       3.779   2.160  20.545  0.00  0.00    +0.000 NA
ATOM     17  N   UNL     1       3.223   3.114  19.753  0.00  0.00    +0.000 N 
BRANCH  17  18
ATOM     18  C   UNL     1       1.769   3.281  19.872  0.00  0.00    +0.000 C 
ATOM     19  C   UNL     1       1.227   2.223  20.880  0.00  0.00    +0.000 C 
ATOM     20  C   UNL     1       1.285   4.641  20.423  0.00  0.00    +0.000 C 
BRANCH  18  21
ATOM     21  C   UNL     1       1.073   3.003  18.500  0.00  0.00    +0.000 C 
ATOM     22  C   UNL     1       0.978   4.194  17.553  0.00  0.00    +0.000 C 
ENDBRANCH  18  21
ENDBRANCH  17  18
ENDBRANCH   1  13
BRANCH   1  23
ATOM     23  C   UNL     1       4.875   3.967  16.598  0.00  0.00    +0.000 C 
BRANCH  23  25
ATOM     24  C   UNL     1       6.687   4.645  15.010  0.00  0.00    +0.000 C 
ATOM     25  C   UNL     1       6.343   4.379  16.466  0.00  0.00    +0.000 C 
ENDBRANCH  23  25
ENDBRANCH   1  23
TORSDOF 7
ENDMDL
MODEL 8
REMARK VINA RESULT:      -6.4      2.001      4.486
REMARK  Name = 
REMARK  11 active torsions:
REMARK  status: ('A' for Active; 'I' for Inactive)
REMARK    1  A    between atoms: C_1  and  C_2
REMARK    2  A    between atoms: C_2  and  C_3
REMARK    3  A    between atoms: C_3  and  C_4
REMARK    4  A    between atoms: C_4  and  C_5
REMARK    5  A    between atoms: C_4  and  N_15
REMARK    6  A    between atoms: N_9  and  C_10
REMARK    7  A    between atoms: C_10  and  C_11
REMARK    8  A    between atoms: C_10  and  C_12
REMARK    9  A    between atoms: C_10  and  C_13
REMARK   10  A    between atoms: C_13  and  C_14
REMARK   11  A    between atoms: N_18  and  C_19
REMARK                            x       y       z     vdW  Elec       q    Type
REMARK                         _______ _______ _______ _____ _____    ______ ____
ROOT
ATOM      1  C   UNL     1       3.462   4.006  18.636  0.00  0.00    +0.000 C 
ENDROOT
BRANCH   1   2
ATOM      2  N   UNL     1       2.187   4.741  18.456  0.00  0.00    +0.000 NA
ATOM      3  C   UNL     1       1.368   4.940  19.662  0.00  0.00    +0.000 C 
ATOM      4  C   UNL     1       1.783   6.084  20.622  0.00  0.00    +0.000 C 
ATOM      5  N   UNL     1       2.344   7.307  20.033  0.00  0.00    +0.000 NA
ATOM      6  C   UNL     1       2.808   7.239  18.645  0.00  0.00    +0.000 C 
ATOM      7  C   UNL     1       2.320   6.048  17.787  0.00  0.00    +0.000 C 
BRANCH   5   8
ATOM      8  C   UNL     1       1.719   8.571  20.410  0.00  0.00    +0.000 C 
ATOM      9  C   UNL     1       0.920   9.229  19.280  0.00  0.00    +0.000 C 
ATOM     10  C   UNL     1      -0.175  10.009  19.986  0.00  0.00    +0.000 C 
ATOM     11  C   UNL     1      -0.535   9.150  21.188  0.00  0.00    +0.000 C 
ATOM     12  C   UNL     1       0.767   8.481  21.621  0.00  0.00    +0.000 C 
ENDBRANCH   5   8
ENDBRANCH   1   2
BRANCH   1  13
ATOM     13  C   UNL     1       4.323   4.088  17.388  0.00  0.00    +0.000 A 
ATOM     14  N   UNL     1       3.977   3.521  16.241  0.00  0.00    +0.000 NA
ATOM     15  N   UNL     1       5.036   3.620  15.400  0.00  0.00    +0.000 NA
ATOM     16  N   UNL     1       6.027   4.262  15.981  0.00  0.00    +0.000 NA
ATOM     17  N   UNL     1       5.581   4.632  17.209  0.00  0.00    +0.000 N 
BRANCH  17  18
ATOM     18  C   UNL     1       6.503   5.449  18.009  0.00  0.00    +0.000 C 
ATOM     19  C   UNL     1       6.012   5.452  19.488  0.00  0.00    +0.000 C 
ATOM     20  C   UNL     1       7.965   4.955  18.075  0.00  0.00    +0.000 C 
BRANCH  18  21
ATOM     21  C   UNL     1       6.483   6.934  17.519  0.00  0.00    +0.000 C 
ATOM     22  C   UNL     1       7.794   7.698  17.668  0.00  0.00    +0.000 C 
ENDBRANCH  18  21
ENDBRANCH  17  18
ENDBRANCH   1  13
BRANCH   1  23
ATOM     23  C   UNL     1       3.337   2.507  19.052  0.00  0.00    +0.000 C 
BRANCH  23  25
ATOM     24  C   UNL     1       2.786   2.483  21.493  0.00  0.00    +0.000 C 
ATOM     25  C   UNL     1       3.866   2.218  20.458  0.00  0.00    +0.000 C 
ENDBRANCH  23  25
ENDBRANCH   1  23
TORSDOF 7
ENDMDL
MODEL 9
REMARK VINA RESULT:      -6.3      5.360      8.751
REMARK  Name = 
REMARK  11 active torsions:
REMARK  status: ('A' for Active; 'I' for Inactive)
REMARK    1  A    between atoms: C_1  and  C_2
REMARK    2  A    between atoms: C_2  and  C_3
REMARK    3  A    between atoms: C_3  and  C_4
REMARK    4  A    between atoms: C_4  and  C_5
REMARK    5  A    between atoms: C_4  and  N_15
REMARK    6  A    between atoms: N_9  and  C_10
REMARK    7  A    between atoms: C_10  and  C_11
REMARK    8  A    between atoms: C_10  and  C_12
REMARK    9  A    between atoms: C_10  and  C_13
REMARK   10  A    between atoms: C_13  and  C_14
REMARK   11  A    between atoms: N_18  and  C_19
REMARK                            x       y       z     vdW  Elec       q    Type
REMARK                         _______ _______ _______ _____ _____    ______ ____
ROOT
ATOM      1  C   UNL     1       0.346  11.346  19.930  0.00  0.00    +0.000 C 
ENDROOT
BRANCH   1   2
ATOM      2  N   UNL     1       1.497  12.242  19.663  0.00  0.00    +0.000 NA
ATOM      3  C   UNL     1       1.561  12.849  18.325  0.00  0.00    +0.000 C 
ATOM      4  C   UNL     1       0.661  14.082  18.060  0.00  0.00    +0.000 C 
ATOM      5  N   UNL     1       0.438  15.021  19.167  0.00  0.00    +0.000 NA
ATOM      6  C   UNL     1       0.766  14.564  20.519  0.00  0.00    +0.000 C 
ATOM      7  C   UNL     1       1.678  13.322  20.651  0.00  0.00    +0.000 C 
BRANCH   5   8
ATOM      8  C   UNL     1       0.722  16.429  18.909  0.00  0.00    +0.000 C 
ATOM      9  C   UNL     1       1.851  16.658  17.898  0.00  0.00    +0.000 C 
ATOM     10  C   UNL     1       1.510  17.980  17.233  0.00  0.00    +0.000 C 
ATOM     11  C   UNL     1      -0.008  17.983  17.156  0.00  0.00    +0.000 C 
ATOM     12  C   UNL     1      -0.486  17.246  18.404  0.00  0.00    +0.000 C 
ENDBRANCH   5   8
ENDBRANCH   1   2
BRANCH   1  13
ATOM     13  C   UNL     1       0.302  10.930  21.391  0.00  0.00    +0.000 A 
ATOM     14  N   UNL     1       1.136  10.038  21.906  0.00  0.00    +0.000 NA
ATOM     15  N   UNL     1       0.711   9.760  23.163  0.00  0.00    +0.000 NA
ATOM     16  N   UNL     1      -0.352  10.478  23.459  0.00  0.00    +0.000 NA
ATOM     17  N   UNL     1      -0.589  11.278  22.388  0.00  0.00    +0.000 N 
BRANCH  17  18
ATOM     18  C   UNL     1      -1.689  12.240  22.535  0.00  0.00    +0.000 C 
ATOM     19  C   UNL     1      -1.146  13.510  23.259  0.00  0.00    +0.000 C 
ATOM     20  C   UNL     1      -2.312  12.765  21.223  0.00  0.00    +0.000 C 
BRANCH  18  21
ATOM     21  C   UNL     1      -2.817  11.647  23.440  0.00  0.00    +0.000 C 
ATOM     22  C   UNL     1      -3.763  12.663  24.071  0.00  0.00    +0.000 C 
ENDBRANCH  18  21
ENDBRANCH  17  18
ENDBRANCH   1  13
BRANCH   1  23
ATOM     23  C   UNL     1       0.258  10.062  19.049  0.00  0.00    +0.000 C 
BRANCH  23  25
ATOM     24  C   UNL     1       2.091   8.398  18.686  0.00  0.00    +0.000 C 
ATOM     25  C   UNL     1       1.547   9.757  18.283  0.00  0.00    +0.000 C 
ENDBRANCH  23  25
ENDBRANCH   1  23
TORSDOF 7
ENDMDL
