MODEL 1
REMARK VINA RESULT:      -7.1      0.000      0.000
REMARK  Name = 
REMARK  8 active torsions:
REMARK  status: ('A' for Active; 'I' for Inactive)
REMARK    1  A    between atoms: C_1  and  C_2
REMARK    2  A    between atoms: C_2  and  C_3
REMARK    3  A    between atoms: C_3  and  C_4
REMARK    4  A    between atoms: N_10  and  O_11
REMARK    5  A    between atoms: O_11  and  C_12
REMARK    6  A    between atoms: C_12  and  C_13
REMARK    7  A    between atoms: C_15  and  C_16
REMARK    8  A    between atoms: C_15  and  C_17
REMARK                            x       y       z     vdW  Elec       q    Type
REMARK                         _______ _______ _______ _____ _____    ______ ____
ROOT
ATOM      1  C   UNL     1       5.199   5.567  18.229  0.00  0.00    +0.000 A 
ATOM      2  N   UNL     1       6.056   4.721  18.894  0.00  0.00    +0.000 N 
ATOM      3  N   UNL     1       5.462   3.613  19.377  0.00  0.00    +0.000 NA
ATOM      4  C   UNL     1       4.174   3.794  19.057  0.00  0.00    +0.000 A 
ATOM      5  C   UNL     1       3.950   5.020  18.382  0.00  0.00    +0.000 A 
ATOM      6  C   UNL     1       2.610   5.398  17.947  0.00  0.00    +0.000 C 
ATOM      7  N   UNL     1       2.146   6.594  17.756  0.00  0.00    +0.000 NA
ATOM      8  C   UNL     1       1.649   4.214  17.837  0.00  0.00    +0.000 C 
ATOM      9  C   UNL     1       1.690   3.380  19.154  0.00  0.00    +0.000 C 
ATOM     10  C   UNL     1       1.332   4.271  20.365  0.00  0.00    +0.000 C 
ATOM     11  C   UNL     1       0.652   2.249  19.079  0.00  0.00    +0.000 C 
ATOM     12  C   UNL     1       3.116   2.774  19.343  0.00  0.00    +0.000 C 
ATOM     13  H   UNL     1       7.052   4.823  19.031  0.00  0.00    +0.000 HD
ENDROOT
BRANCH   1  14
ATOM     14  C   UNL     1       5.712   6.770  17.501  0.00  0.00    +0.000 C 
BRANCH  14  16
ATOM     15  C   UNL     1       7.877   8.118  17.675  0.00  0.00    +0.000 C 
ATOM     16  C   UNL     1       7.239   6.764  17.416  0.00  0.00    +0.000 C 
ENDBRANCH  14  16
ENDBRANCH   1  14
BRANCH   7  17
ATOM     17  O   UNL     1       3.021   7.601  18.179  0.00  0.00    +0.000 OA
BRANCH  17  18
ATOM     18  C   UNL     1       2.506   8.878  17.812  0.00  0.00    +0.000 C 
ATOM     19  C   UNL     1       1.359   9.215  18.745  0.00  0.00    +0.000 C 
ENDBRANCH  17  18
ENDBRANCH   7  17
TORSDOF 4
ENDMDL
MODEL 2
REMARK VINA RESULT:      -7.0      1.986      3.627
REMARK  Name = 
REMARK  8 active torsions:
REMARK  status: ('A' for Active; 'I' for Inactive)
REMARK    1  A    between atoms: C_1  and  C_2
REMARK    2  A    between atoms: C_2  and  C_3
REMARK    3  A    between atoms: C_3  and  C_4
REMARK    4  A    between atoms: N_10  and  O_11
REMARK    5  A    between atoms: O_11  and  C_12
REMARK    6  A    between atoms: C_12  and  C_13
REMARK    7  A    between atoms: C_15  and  C_16
REMARK    8  A    between atoms: C_15  and  C_17
REMARK                            x       y       z     vdW  Elec       q    Type
REMARK                         _______ _______ _______ _____ _____    ______ ____
ROOT
ATOM      1  C   UNL     1       4.146   6.674  17.531  0.00  0.00    +0.000 A 
ATOM      2  N   UNL     1       3.324   7.733  17.839  0.00  0.00    +0.000 N 
ATOM      3  N   UNL     1       2.409   7.453  18.787  0.00  0.00    +0.000 NA
ATOM      4  C   UNL     1       2.621   6.157  19.043  0.00  0.00    +0.000 A 
ATOM      5  C   UNL     1       3.663   5.611  18.251  0.00  0.00    +0.000 A 
ATOM      6  C   UNL     1       4.047   4.210  18.387  0.00  0.00    +0.000 C 
ATOM      7  N   UNL     1       4.601   3.450  17.494  0.00  0.00    +0.000 NA
ATOM      8  C   UNL     1       3.611   3.584  19.712  0.00  0.00    +0.000 C 
ATOM      9  C   UNL     1       2.096   3.865  19.951  0.00  0.00    +0.000 C 
ATOM     10  C   UNL     1       1.255   3.314  18.777  0.00  0.00    +0.000 C 
ATOM     11  C   UNL     1       1.637   3.152  21.234  0.00  0.00    +0.000 C 
ATOM     12  C   UNL     1       1.867   5.403  20.094  0.00  0.00    +0.000 C 
ATOM     13  H   UNL     1       3.349   8.671  17.466  0.00  0.00    +0.000 HD
ENDROOT
BRANCH   1  14
ATOM     14  C   UNL     1       5.313   6.845  16.609  0.00  0.00    +0.000 C 
BRANCH  14  16
ATOM     15  C   UNL     1       7.362   6.048  17.914  0.00  0.00    +0.000 C 
ATOM     16  C   UNL     1       6.578   7.233  17.374  0.00  0.00    +0.000 C 
ENDBRANCH  14  16
ENDBRANCH   1  14
BRANCH   7  17
ATOM     17  O   UNL     1       4.674   4.045  16.229  0.00  0.00    +0.000 OA
BRANCH  17  18
ATOM     18  C   UNL     1       5.864   3.629  15.565  0.00  0.00    +0.000 C 
ATOM     19  C   UNL     1       5.822   4.150  14.141  0.00  0.00    +0.000 C 
ENDBRANCH  17  18
ENDBRANCH   7  17
TORSDOF 4
ENDMDL
MODEL 3
REMARK VINA RESULT:      -6.9      0.864      1.115
REMARK  Name = 
REMARK  8 active torsions:
REMARK  status: ('A' for Active; 'I' for Inactive)
REMARK    1  A    between atoms: C_1  and  C_2
REMARK    2  A    between atoms: C_2  and  C_3
REMARK    3  A    between atoms: C_3  and  C_4
REMARK    4  A    between atoms: N_10  and  O_11
REMARK    5  A    between atoms: O_11  and  C_12
REMARK    6  A    between atoms: C_12  and  C_13
REMARK    7  A    between atoms: C_15  and  C_16
REMARK    8  A    between atoms: C_15  and  C_17
REMARK                            x       y       z     vdW  Elec       q    Type
REMARK                         _______ _______ _______ _____ _____    ______ ____
ROOT
ATOM      1  C   UNL     1       5.222   5.064  18.370  0.00  0.00    +0.000 A 
ATOM      2  N   UNL     1       5.986   4.153  19.062  0.00  0.00    +0.000 N 
ATOM      3  N   UNL     1       5.288   3.098  19.523  0.00  0.00    +0.000 NA
ATOM      4  C   UNL     1       4.031   3.382  19.163  0.00  0.00    +0.000 A 
ATOM      5  C   UNL     1       3.928   4.621  18.482  0.00  0.00    +0.000 A 
ATOM      6  C   UNL     1       2.638   5.105  18.005  0.00  0.00    +0.000 C 
ATOM      7  N   UNL     1       2.278   6.334  17.801  0.00  0.00    +0.000 NA
ATOM      8  C   UNL     1       1.588   4.002  17.862  0.00  0.00    +0.000 C 
ATOM      9  C   UNL     1       1.520   3.169  19.179  0.00  0.00    +0.000 C 
ATOM     10  C   UNL     1       1.195   4.088  20.379  0.00  0.00    +0.000 C 
ATOM     11  C   UNL     1       0.397   2.125  19.068  0.00  0.00    +0.000 C 
ATOM     12  C   UNL     1       2.885   2.450  19.412  0.00  0.00    +0.000 C 
ATOM     13  H   UNL     1       6.981   4.175  19.231  0.00  0.00    +0.000 HD
ENDROOT
BRANCH   1  14
ATOM     14  C   UNL     1       5.853   6.221  17.661  0.00  0.00    +0.000 C 
BRANCH  14  16
ATOM     15  C   UNL     1       6.806   5.107  15.567  0.00  0.00    +0.000 C 
ATOM     16  C   UNL     1       5.772   6.060  16.144  0.00  0.00    +0.000 C 
ENDBRANCH  14  16
ENDBRANCH   1  14
BRANCH   7  17
ATOM     17  O   UNL     1       3.218   7.268  18.253  0.00  0.00    +0.000 OA
BRANCH  17  18
ATOM     18  C   UNL     1       2.940   8.547  17.691  0.00  0.00    +0.000 C 
ATOM     19  C   UNL     1       1.487   8.884  17.964  0.00  0.00    +0.000 C 
ENDBRANCH  17  18
ENDBRANCH   7  17
TORSDOF 4
ENDMDL
MODEL 4
REMARK VINA RESULT:      -6.8      1.994      4.637
REMARK  Name = 
REMARK  8 active torsions:
REMARK  status: ('A' for Active; 'I' for Inactive)
REMARK    1  A    between atoms: C_1  and  C_2
REMARK    2  A    between atoms: C_2  and  C_3
REMARK    3  A    between atoms: C_3  and  C_4
REMARK    4  A    between atoms: N_10  and  O_11
REMARK    5  A    between atoms: O_11  and  C_12
REMARK    6  A    between atoms: C_12  and  C_13
REMARK    7  A    between atoms: C_15  and  C_16
REMARK    8  A    between atoms: C_15  and  C_17
REMARK                            x       y       z     vdW  Elec       q    Type
REMARK                         _______ _______ _______ _____ _____    ______ ____
ROOT
ATOM      1  C   UNL     1       1.878   3.755  18.950  0.00  0.00    +0.000 A 
ATOM      2  N   UNL     1       1.557   2.786  18.027  0.00  0.00    +0.000 N 
ATOM      3  N   UNL     1       2.522   2.562  17.116  0.00  0.00    +0.000 NA
ATOM      4  C   UNL     1       3.460   3.462  17.437  0.00  0.00    +0.000 A 
ATOM      5  C   UNL     1       3.086   4.264  18.544  0.00  0.00    +0.000 A 
ATOM      6  C   UNL     1       3.978   5.301  19.049  0.00  0.00    +0.000 C 
ATOM      7  N   UNL     1       3.656   6.379  19.694  0.00  0.00    +0.000 NA
ATOM      8  C   UNL     1       5.437   5.106  18.634  0.00  0.00    +0.000 C 
ATOM      9  C   UNL     1       5.518   4.876  17.094  0.00  0.00    +0.000 C 
ATOM     10  C   UNL     1       4.885   6.067  16.339  0.00  0.00    +0.000 C 
ATOM     11  C   UNL     1       6.992   4.778  16.666  0.00  0.00    +0.000 C 
ATOM     12  C   UNL     1       4.774   3.555  16.724  0.00  0.00    +0.000 C 
ATOM     13  H   UNL     1       0.719   2.225  17.978  0.00  0.00    +0.000 HD
ENDROOT
BRANCH   1  14
ATOM     14  C   UNL     1       0.988   4.030  20.121  0.00  0.00    +0.000 C 
BRANCH  14  16
ATOM     15  C   UNL     1       2.528   2.700  21.669  0.00  0.00    +0.000 C 
ATOM     16  C   UNL     1       1.107   2.938  21.183  0.00  0.00    +0.000 C 
ENDBRANCH  14  16
ENDBRANCH   1  14
BRANCH   7  17
ATOM     17  O   UNL     1       2.274   6.599  19.748  0.00  0.00    +0.000 OA
BRANCH  17  18
ATOM     18  C   UNL     1       1.990   7.971  19.484  0.00  0.00    +0.000 C 
ATOM     19  C   UNL     1       2.166   8.216  17.997  0.00  0.00    +0.000 C 
ENDBRANCH  17  18
ENDBRANCH   7  17
TORSDOF 4
ENDMDL
MODEL 5
REMARK VINA RESULT:      -6.3      2.000      5.632
REMARK  Name = 
REMARK  8 active torsions:
REMARK  status: ('A' for Active; 'I' for Inactive)
REMARK    1  A    between atoms: C_1  and  C_2
REMARK    2  A    between atoms: C_2  and  C_3
REMARK    3  A    between atoms: C_3  and  C_4
REMARK    4  A    between atoms: N_10  and  O_11
REMARK    5  A    between atoms: O_11  and  C_12
REMARK    6  A    between atoms: C_12  and  C_13
REMARK    7  A    between atoms: C_15  and  C_16
REMARK    8  A    between atoms: C_15  and  C_17
REMARK                            x       y       z     vdW  Elec       q    Type
REMARK                         _______ _______ _______ _____ _____    ______ ____
ROOT
ATOM      1  C   UNL     1       2.543   5.168  20.155  0.00  0.00    +0.000 A 
ATOM      2  N   UNL     1       2.074   6.424  20.467  0.00  0.00    +0.000 N 
ATOM      3  N   UNL     1       2.407   7.367  19.566  0.00  0.00    +0.000 NA
ATOM      4  C   UNL     1       3.163   6.697  18.687  0.00  0.00    +0.000 A 
ATOM      5  C   UNL     1       3.318   5.332  19.035  0.00  0.00    +0.000 A 
ATOM      6  C   UNL     1       4.105   4.433  18.198  0.00  0.00    +0.000 C 
ATOM      7  N   UNL     1       4.722   3.351  18.559  0.00  0.00    +0.000 NA
ATOM      8  C   UNL     1       4.294   4.941  16.768  0.00  0.00    +0.000 C 
ATOM      9  C   UNL     1       4.806   6.414  16.798  0.00  0.00    +0.000 C 
ATOM     10  C   UNL     1       6.128   6.507  17.594  0.00  0.00    +0.000 C 
ATOM     11  C   UNL     1       5.088   6.888  15.362  0.00  0.00    +0.000 C 
ATOM     12  C   UNL     1       3.724   7.329  17.452  0.00  0.00    +0.000 C 
ATOM     13  H   UNL     1       1.504   6.699  21.254  0.00  0.00    +0.000 HD
ENDROOT
BRANCH   1  14
ATOM     14  C   UNL     1       2.145   3.973  20.964  0.00  0.00    +0.000 C 
BRANCH  14  16
ATOM     15  C   UNL     1       0.881   2.687  19.151  0.00  0.00    +0.000 C 
ATOM     16  C   UNL     1       0.809   3.398  20.493  0.00  0.00    +0.000 C 
ENDBRANCH  14  16
ENDBRANCH   1  14
BRANCH   7  17
ATOM     17  O   UNL     1       4.730   3.154  19.945  0.00  0.00    +0.000 OA
BRANCH  17  18
ATOM     18  C   UNL     1       4.544   1.772  20.239  0.00  0.00    +0.000 C 
ATOM     19  C   UNL     1       4.078   1.073  18.977  0.00  0.00    +0.000 C 
ENDBRANCH  17  18
ENDBRANCH   7  17
TORSDOF 4
ENDMDL
MODEL 6
REMARK VINA RESULT:      -6.2      2.473      5.623
REMARK  Name = 
REMARK  8 active torsions:
REMARK  status: ('A' for Active; 'I' for Inactive)
REMARK    1  A    between atoms: C_1  and  C_2
REMARK    2  A    between atoms: C_2  and  C_3
REMARK    3  A    between atoms: C_3  and  C_4
REMARK    4  A    between atoms: N_10  and  O_11
REMARK    5  A    between atoms: O_11  and  C_12
REMARK    6  A    between atoms: C_12  and  C_13
REMARK    7  A    between atoms: C_15  and  C_16
REMARK    8  A    between atoms: C_15  and  C_17
REMARK                            x       y       z     vdW  Elec       q    Type
REMARK                         _______ _______ _______ _____ _____    ______ ____
ROOT
ATOM      1  C   UNL     1       2.649   5.285  18.243  0.00  0.00    +0.000 A 
ATOM      2  N   UNL     1       2.795   6.627  18.513  0.00  0.00    +0.000 N 
ATOM      3  N   UNL     1       3.820   7.205  17.859  0.00  0.00    +0.000 NA
ATOM      4  C   UNL     1       4.378   6.181  17.201  0.00  0.00    +0.000 A 
ATOM      5  C   UNL     1       3.714   4.953  17.444  0.00  0.00    +0.000 A 
ATOM      6  C   UNL     1       4.171   3.720  16.813  0.00  0.00    +0.000 C 
ATOM      7  N   UNL     1       4.016   2.506  17.240  0.00  0.00    +0.000 NA
ATOM      8  C   UNL     1       5.032   3.954  15.571  0.00  0.00    +0.000 C 
ATOM      9  C   UNL     1       6.168   4.970  15.904  0.00  0.00    +0.000 C 
ATOM     10  C   UNL     1       7.026   4.451  17.079  0.00  0.00    +0.000 C 
ATOM     11  C   UNL     1       7.089   5.129  14.683  0.00  0.00    +0.000 C 
ATOM     12  C   UNL     1       5.540   6.351  16.272  0.00  0.00    +0.000 C 
ATOM     13  H   UNL     1       2.220   7.210  19.105  0.00  0.00    +0.000 HD
ENDROOT
BRANCH   1  14
ATOM     14  C   UNL     1       1.477   4.516  18.765  0.00  0.00    +0.000 C 
BRANCH  14  16
ATOM     15  C   UNL     1       1.083   3.208  20.926  0.00  0.00    +0.000 C 
ATOM     16  C   UNL     1       1.421   4.547  20.292  0.00  0.00    +0.000 C 
ENDBRANCH  14  16
ENDBRANCH   1  14
BRANCH   7  17
ATOM     17  O   UNL     1       3.482   2.438  18.532  0.00  0.00    +0.000 OA
BRANCH  17  18
ATOM     18  C   UNL     1       4.220   1.502  19.315  0.00  0.00    +0.000 C 
ATOM     19  C   UNL     1       4.513   2.134  20.662  0.00  0.00    +0.000 C 
ENDBRANCH  17  18
ENDBRANCH   7  17
TORSDOF 4
ENDMDL
MODEL 7
REMARK VINA RESULT:      -6.1      2.371      5.458
REMARK  Name = 
REMARK  8 active torsions:
REMARK  status: ('A' for Active; 'I' for Inactive)
REMARK    1  A    between atoms: C_1  and  C_2
REMARK    2  A    between atoms: C_2  and  C_3
REMARK    3  A    between atoms: C_3  and  C_4
REMARK    4  A    between atoms: N_10  and  O_11
REMARK    5  A    between atoms: O_11  and  C_12
REMARK    6  A    between atoms: C_12  and  C_13
REMARK    7  A    between atoms: C_15  and  C_16
REMARK    8  A    between atoms: C_15  and  C_17
REMARK                            x       y       z     vdW  Elec       q    Type
REMARK                         _______ _______ _______ _____ _____    ______ ____
ROOT
ATOM      1  C   UNL     1       2.948   5.692  18.237  0.00  0.00    +0.000 A 
ATOM      2  N   UNL     1       3.130   7.053  18.309  0.00  0.00    +0.000 N 
ATOM      3  N   UNL     1       4.086   7.519  17.484  0.00  0.00    +0.000 NA
ATOM      4  C   UNL     1       4.567   6.406  16.916  0.00  0.00    +0.000 A 
ATOM      5  C   UNL     1       3.923   5.235  17.387  0.00  0.00    +0.000 A 
ATOM      6  C   UNL     1       4.305   3.920  16.884  0.00  0.00    +0.000 C 
ATOM      7  N   UNL     1       4.187   2.776  17.484  0.00  0.00    +0.000 NA
ATOM      8  C   UNL     1       5.036   3.970  15.541  0.00  0.00    +0.000 C 
ATOM      9  C   UNL     1       6.206   4.998  15.619  0.00  0.00    +0.000 C 
ATOM     10  C   UNL     1       7.177   4.621  16.762  0.00  0.00    +0.000 C 
ATOM     11  C   UNL     1       6.999   4.974  14.302  0.00  0.00    +0.000 C 
ATOM     12  C   UNL     1       5.629   6.428  15.860  0.00  0.00    +0.000 C 
ATOM     13  H   UNL     1       2.622   7.721  18.872  0.00  0.00    +0.000 HD
ENDROOT
BRANCH   1  14
ATOM     14  C   UNL     1       1.829   5.022  18.972  0.00  0.00    +0.000 C 
BRANCH  14  16
ATOM     15  C   UNL     1       2.110   4.297  21.407  0.00  0.00    +0.000 C 
ATOM     16  C   UNL     1       1.803   5.432  20.444  0.00  0.00    +0.000 C 
ENDBRANCH  14  16
ENDBRANCH   1  14
BRANCH   7  17
ATOM     17  O   UNL     1       3.787   2.891  18.820  0.00  0.00    +0.000 OA
BRANCH  17  18
ATOM     18  C   UNL     1       3.159   1.684  19.245  0.00  0.00    +0.000 C 
ATOM     19  C   UNL     1       1.722   1.698  18.762  0.00  0.00    +0.000 C 
ENDBRANCH  17  18
ENDBRANCH   7  17
TORSDOF 4
ENDMDL
MODEL 8
REMARK VINA RESULT:      -6.1      2.305      5.233
REMARK  Name = 
REMARK  8 active torsions:
REMARK  status: ('A' for Active; 'I' for Inactive)
REMARK    1  A    between atoms: C_1  and  C_2
REMARK    2  A    between atoms: C_2  and  C_3
REMARK    3  A    between atoms: C_3  and  C_4
REMARK    4  A    between atoms: N_10  and  O_11
REMARK    5  A    between atoms: O_11  and  C_12
REMARK    6  A    between atoms: C_12  and  C_13
REMARK    7  A    between atoms: C_15  and  C_16
REMARK    8  A    between atoms: C_15  and  C_17
REMARK                            x       y       z     vdW  Elec       q    Type
REMARK                         _______ _______ _______ _____ _____    ______ ____
ROOT
ATOM      1  C   UNL     1       2.873   6.110  18.484  0.00  0.00    +0.000 A 
ATOM      2  N   UNL     1       3.045   7.444  18.193  0.00  0.00    +0.000 N 
ATOM      3  N   UNL     1       3.962   7.677  17.235  0.00  0.00    +0.000 NA
ATOM      4  C   UNL     1       4.428   6.454  16.954  0.00  0.00    +0.000 A 
ATOM      5  C   UNL     1       3.815   5.446  17.740  0.00  0.00    +0.000 A 
ATOM      6  C   UNL     1       4.186   4.045  17.578  0.00  0.00    +0.000 C 
ATOM      7  N   UNL     1       4.103   3.096  18.459  0.00  0.00    +0.000 NA
ATOM      8  C   UNL     1       4.859   3.743  16.239  0.00  0.00    +0.000 C 
ATOM      9  C   UNL     1       6.022   4.753  15.997  0.00  0.00    +0.000 C 
ATOM     10  C   UNL     1       7.044   4.683  17.155  0.00  0.00    +0.000 C 
ATOM     11  C   UNL     1       6.758   4.387  14.697  0.00  0.00    +0.000 C 
ATOM     12  C   UNL     1       5.443   6.198  15.884  0.00  0.00    +0.000 C 
ATOM     13  H   UNL     1       2.557   8.236  18.585  0.00  0.00    +0.000 HD
ENDROOT
BRANCH   1  14
ATOM     14  C   UNL     1       1.792   5.657  19.416  0.00  0.00    +0.000 C 
BRANCH  14  16
ATOM     15  C   UNL     1       1.161   7.606  20.946  0.00  0.00    +0.000 C 
ATOM     16  C   UNL     1       1.933   6.305  20.793  0.00  0.00    +0.000 C 
ENDBRANCH  14  16
ENDBRANCH   1  14
BRANCH   7  17
ATOM     17  O   UNL     1       3.760   3.555  19.736  0.00  0.00    +0.000 OA
BRANCH  17  18
ATOM     18  C   UNL     1       3.592   2.449  20.620  0.00  0.00    +0.000 C 
ATOM     19  C   UNL     1       2.399   2.730  21.513  0.00  0.00    +0.000 C 
ENDBRANCH  17  18
ENDBRANCH   7  17
TORSDOF 4
ENDMDL
MODEL 9
REMARK VINA RESULT:      -6.1      2.459      3.676
REMARK  Name = 
REMARK  8 active torsions:
REMARK  status: ('A' for Active; 'I' for Inactive)
REMARK    1  A    between atoms: C_1  and  C_2
REMARK    2  A    between atoms: C_2  and  C_3
REMARK    3  A    between atoms: C_3  and  C_4
REMARK    4  A    between atoms: N_10  and  O_11
REMARK    5  A    between atoms: O_11  and  C_12
REMARK    6  A    between atoms: C_12  and  C_13
REMARK    7  A    between atoms: C_15  and  C_16
REMARK    8  A    between atoms: C_15  and  C_17
REMARK                            x       y       z     vdW  Elec       q    Type
REMARK                         _______ _______ _______ _____ _____    ______ ____
ROOT
ATOM      1  C   UNL     1       4.316   4.351  16.788  0.00  0.00    +0.000 A 
ATOM      2  N   UNL     1       3.560   3.478  16.039  0.00  0.00    +0.000 N 
ATOM      3  N   UNL     1       2.596   2.854  16.742  0.00  0.00    +0.000 NA
ATOM      4  C   UNL     1       2.788   3.301  17.989  0.00  0.00    +0.000 A 
ATOM      5  C   UNL     1       3.880   4.201  18.080  0.00  0.00    +0.000 A 
ATOM      6  C   UNL     1       4.247   4.801  19.357  0.00  0.00    +0.000 C 
ATOM      7  N   UNL     1       5.412   5.239  19.722  0.00  0.00    +0.000 NA
ATOM      8  C   UNL     1       3.120   4.772  20.391  0.00  0.00    +0.000 C 
ATOM      9  C   UNL     1       2.542   3.328  20.497  0.00  0.00    +0.000 C 
ATOM     10  C   UNL     1       3.660   2.328  20.872  0.00  0.00    +0.000 C 
ATOM     11  C   UNL     1       1.477   3.281  21.605  0.00  0.00    +0.000 C 
ATOM     12  C   UNL     1       1.900   2.922  19.133  0.00  0.00    +0.000 C 
ATOM     13  H   UNL     1       3.628   3.284  15.050  0.00  0.00    +0.000 HD
ENDROOT
BRANCH   1  14
ATOM     14  C   UNL     1       5.333   5.240  16.143  0.00  0.00    +0.000 C 
BRANCH  14  16
ATOM     15  C   UNL     1       6.226   4.113  14.029  0.00  0.00    +0.000 C 
ATOM     16  C   UNL     1       6.456   4.429  15.498  0.00  0.00    +0.000 C 
ENDBRANCH  14  16
ENDBRANCH   1  14
BRANCH   7  17
ATOM     17  O   UNL     1       6.428   4.936  18.808  0.00  0.00    +0.000 OA
BRANCH  17  18
ATOM     18  C   UNL     1       7.623   5.624  19.165  0.00  0.00    +0.000 C 
ATOM     19  C   UNL     1       7.786   6.812  18.236  0.00  0.00    +0.000 C 
ENDBRANCH  17  18
ENDBRANCH   7  17
TORSDOF 4
ENDMDL
