MODEL 1
REMARK VINA RESULT:      -7.3      0.000      0.000
REMARK  Name = 
REMARK  5 active torsions:
REMARK  status: ('A' for Active; 'I' for Inactive)
REMARK    1  A    between atoms: C_1  and  O_2
REMARK    2  A    between atoms: O_2  and  C_3
REMARK    3  A    between atoms: C_11  and  C_12
REMARK    4  A    between atoms: C_13  and  C_14
REMARK    5  A    between atoms: C_18  and  C_19
REMARK                            x       y       z     vdW  Elec       q    Type
REMARK                         _______ _______ _______ _____ _____    ______ ____
ROOT
ATOM      1  C   UNL     1       4.042   3.690  18.043  0.00  0.00    +0.000 C 
ATOM      2  O   UNL     1       3.099   3.216  17.420  0.00  0.00    +0.000 OA
ATOM      3  N   UNL     1       5.125   4.262  17.435  0.00  0.00    +0.000 N 
ATOM      4  C   UNL     1       6.309   4.848  18.021  0.00  0.00    +0.000 C 
ATOM      5  C   UNL     1       7.405   4.361  17.063  0.00  0.00    +0.000 C 
ATOM      6  C   UNL     1       6.685   4.109  15.733  0.00  0.00    +0.000 C 
ATOM      7  C   UNL     1       5.220   4.452  16.011  0.00  0.00    +0.000 C 
ATOM      8  C   UNL     1       4.932   5.924  15.692  0.00  0.00    +0.000 C 
ATOM      9  C   UNL     1       5.346   6.924  16.804  0.00  0.00    +0.000 C 
ATOM     10  C   UNL     1       6.216   6.378  17.964  0.00  0.00    +0.000 C 
ENDROOT
BRANCH   1  12
ATOM     11  C   UNL     1       3.102   4.439  20.050  0.00  0.00    +0.000 C 
ATOM     12  O   UNL     1       4.134   3.692  19.400  0.00  0.00    +0.000 OA
ENDBRANCH   1  12
BRANCH   9  13
ATOM     13  C   UNL     1       4.127   7.504  17.395  0.00  0.00    +0.000 C 
ATOM     14  C   UNL     1       3.153   7.983  17.916  0.00  0.00    +0.000 C 
BRANCH  14  15
ATOM     15  C   UNL     1       2.001   8.564  18.517  0.00  0.00    +0.000 A 
ATOM     16  C   UNL     1       1.163   9.377  17.756  0.00  0.00    +0.000 A 
ATOM     17  C   UNL     1       0.069   9.997  18.355  0.00  0.00    +0.000 A 
ATOM     18  C   UNL     1      -0.177   9.821  19.719  0.00  0.00    +0.000 A 
ATOM     19  C   UNL     1       0.660   9.005  20.490  0.00  0.00    +0.000 A 
ATOM     20  C   UNL     1       0.434   8.846  21.965  0.00  0.00    +0.000 C 
ATOM     21  C   UNL     1       1.736   8.354  19.873  0.00  0.00    +0.000 A 
ENDBRANCH  14  15
ENDBRANCH   9  13
TORSDOF 3
ENDMDL
MODEL 2
REMARK VINA RESULT:      -7.2      3.090      6.678
REMARK  Name = 
REMARK  5 active torsions:
REMARK  status: ('A' for Active; 'I' for Inactive)
REMARK    1  A    between atoms: C_1  and  O_2
REMARK    2  A    between atoms: O_2  and  C_3
REMARK    3  A    between atoms: C_11  and  C_12
REMARK    4  A    between atoms: C_13  and  C_14
REMARK    5  A    between atoms: C_18  and  C_19
REMARK                            x       y       z     vdW  Elec       q    Type
REMARK                         _______ _______ _______ _____ _____    ______ ____
ROOT
ATOM      1  C   UNL     1       3.956   2.266  19.640  0.00  0.00    +0.000 C 
ATOM      2  O   UNL     1       5.051   2.278  20.190  0.00  0.00    +0.000 OA
ATOM      3  N   UNL     1       3.029   3.259  19.801  0.00  0.00    +0.000 N 
ATOM      4  C   UNL     1       1.705   3.385  19.238  0.00  0.00    +0.000 C 
ATOM      5  C   UNL     1       0.914   3.956  20.423  0.00  0.00    +0.000 C 
ATOM      6  C   UNL     1       1.958   4.674  21.287  0.00  0.00    +0.000 C 
ATOM      7  C   UNL     1       3.284   4.460  20.554  0.00  0.00    +0.000 C 
ATOM      8  C   UNL     1       3.558   5.605  19.572  0.00  0.00    +0.000 C 
ATOM      9  C   UNL     1       2.822   5.487  18.212  0.00  0.00    +0.000 C 
ATOM     10  C   UNL     1       1.722   4.403  18.090  0.00  0.00    +0.000 C 
ENDROOT
BRANCH   1  12
ATOM     11  C   UNL     1       3.875   1.457  17.447  0.00  0.00    +0.000 C 
ATOM     12  O   UNL     1       3.526   1.269  18.821  0.00  0.00    +0.000 OA
ENDBRANCH   1  12
BRANCH   9  13
ATOM     13  C   UNL     1       3.819   5.231  17.156  0.00  0.00    +0.000 C 
ATOM     14  C   UNL     1       4.602   5.000  16.272  0.00  0.00    +0.000 C 
BRANCH  14  15
ATOM     15  C   UNL     1       5.531   4.747  15.223  0.00  0.00    +0.000 A 
ATOM     16  C   UNL     1       6.771   5.382  15.234  0.00  0.00    +0.000 A 
ATOM     17  C   UNL     1       7.659   5.185  14.179  0.00  0.00    +0.000 A 
ATOM     18  C   UNL     1       7.300   4.370  13.103  0.00  0.00    +0.000 A 
ATOM     19  C   UNL     1       6.056   3.728  13.085  0.00  0.00    +0.000 A 
ATOM     20  C   UNL     1       5.639   2.887  11.914  0.00  0.00    +0.000 C 
ATOM     21  C   UNL     1       5.183   3.899  14.168  0.00  0.00    +0.000 A 
ENDBRANCH  14  15
ENDBRANCH   9  13
TORSDOF 3
ENDMDL
MODEL 3
REMARK VINA RESULT:      -7.0      0.633      1.539
REMARK  Name = 
REMARK  5 active torsions:
REMARK  status: ('A' for Active; 'I' for Inactive)
REMARK    1  A    between atoms: C_1  and  O_2
REMARK    2  A    between atoms: O_2  and  C_3
REMARK    3  A    between atoms: C_11  and  C_12
REMARK    4  A    between atoms: C_13  and  C_14
REMARK    5  A    between atoms: C_18  and  C_19
REMARK                            x       y       z     vdW  Elec       q    Type
REMARK                         _______ _______ _______ _____ _____    ______ ____
ROOT
ATOM      1  C   UNL     1       4.252   3.578  18.096  0.00  0.00    +0.000 C 
ATOM      2  O   UNL     1       3.258   3.066  17.593  0.00  0.00    +0.000 OA
ATOM      3  N   UNL     1       5.233   4.182  17.359  0.00  0.00    +0.000 N 
ATOM      4  C   UNL     1       6.457   4.814  17.795  0.00  0.00    +0.000 C 
ATOM      5  C   UNL     1       7.446   4.358  16.714  0.00  0.00    +0.000 C 
ATOM      6  C   UNL     1       6.581   4.069  15.481  0.00  0.00    +0.000 C 
ATOM      7  C   UNL     1       5.149   4.364  15.933  0.00  0.00    +0.000 C 
ATOM      8  C   UNL     1       4.772   5.822  15.646  0.00  0.00    +0.000 C 
ATOM      9  C   UNL     1       5.281   6.845  16.695  0.00  0.00    +0.000 C 
ATOM     10  C   UNL     1       6.303   6.340  17.744  0.00  0.00    +0.000 C 
ENDROOT
BRANCH   1  12
ATOM     11  C   UNL     1       3.933   2.495  20.144  0.00  0.00    +0.000 C 
ATOM     12  O   UNL     1       4.506   3.594  19.431  0.00  0.00    +0.000 OA
ENDBRANCH   1  12
BRANCH   9  13
ATOM     13  C   UNL     1       4.121   7.387  17.427  0.00  0.00    +0.000 C 
ATOM     14  C   UNL     1       3.203   7.847  18.054  0.00  0.00    +0.000 C 
BRANCH  14  15
ATOM     15  C   UNL     1       2.110   8.401  18.779  0.00  0.00    +0.000 A 
ATOM     16  C   UNL     1       1.883   8.001  20.095  0.00  0.00    +0.000 A 
ATOM     17  C   UNL     1       0.780   8.495  20.788  0.00  0.00    +0.000 A 
ATOM     18  C   UNL     1      -0.108   9.371  20.159  0.00  0.00    +0.000 A 
ATOM     19  C   UNL     1       0.113   9.778  18.838  0.00  0.00    +0.000 A 
ATOM     20  C   UNL     1      -0.857  10.681  18.137  0.00  0.00    +0.000 C 
ATOM     21  C   UNL     1       1.246   9.309  18.160  0.00  0.00    +0.000 A 
ENDBRANCH  14  15
ENDBRANCH   9  13
TORSDOF 3
ENDMDL
MODEL 4
REMARK VINA RESULT:      -6.9      1.843      3.932
REMARK  Name = 
REMARK  5 active torsions:
REMARK  status: ('A' for Active; 'I' for Inactive)
REMARK    1  A    between atoms: C_1  and  O_2
REMARK    2  A    between atoms: O_2  and  C_3
REMARK    3  A    between atoms: C_11  and  C_12
REMARK    4  A    between atoms: C_13  and  C_14
REMARK    5  A    between atoms: C_18  and  C_19
REMARK                            x       y       z     vdW  Elec       q    Type
REMARK                         _______ _______ _______ _____ _____    ______ ____
ROOT
ATOM      1  C   UNL     1       4.652   5.197  18.196  0.00  0.00    +0.000 C 
ATOM      2  O   UNL     1       5.620   5.537  18.866  0.00  0.00    +0.000 OA
ATOM      3  N   UNL     1       3.884   4.106  18.498  0.00  0.00    +0.000 N 
ATOM      4  C   UNL     1       2.730   3.572  17.811  0.00  0.00    +0.000 C 
ATOM      5  C   UNL     1       2.976   2.060  17.917  0.00  0.00    +0.000 C 
ATOM      6  C   UNL     1       3.858   1.889  19.160  0.00  0.00    +0.000 C 
ATOM      7  C   UNL     1       4.076   3.310  19.683  0.00  0.00    +0.000 C 
ATOM      8  C   UNL     1       3.000   3.688  20.707  0.00  0.00    +0.000 C 
ATOM      9  C   UNL     1       1.652   4.153  20.095  0.00  0.00    +0.000 C 
ATOM     10  C   UNL     1       1.451   3.942  18.573  0.00  0.00    +0.000 C 
ENDROOT
BRANCH   1  12
ATOM     11  C   UNL     1       5.263   6.030  16.098  0.00  0.00    +0.000 C 
ATOM     12  O   UNL     1       4.236   5.844  17.076  0.00  0.00    +0.000 OA
ENDBRANCH   1  12
BRANCH   9  13
ATOM     13  C   UNL     1       1.477   5.590  20.374  0.00  0.00    +0.000 C 
ATOM     14  C   UNL     1       1.310   6.766  20.564  0.00  0.00    +0.000 C 
BRANCH  14  15
ATOM     15  C   UNL     1       1.105   8.153  20.807  0.00  0.00    +0.000 A 
ATOM     16  C   UNL     1       0.717   8.581  22.075  0.00  0.00    +0.000 A 
ATOM     17  C   UNL     1       0.456   9.930  22.302  0.00  0.00    +0.000 A 
ATOM     18  C   UNL     1       0.562  10.850  21.257  0.00  0.00    +0.000 A 
ATOM     19  C   UNL     1       0.952  10.430  19.979  0.00  0.00    +0.000 A 
ATOM     20  C   UNL     1       1.024  11.399  18.837  0.00  0.00    +0.000 C 
ATOM     21  C   UNL     1       1.251   9.077  19.768  0.00  0.00    +0.000 A 
ENDBRANCH  14  15
ENDBRANCH   9  13
TORSDOF 3
ENDMDL
MODEL 5
REMARK VINA RESULT:      -6.9      2.322      3.297
REMARK  Name = 
REMARK  5 active torsions:
REMARK  status: ('A' for Active; 'I' for Inactive)
REMARK    1  A    between atoms: C_1  and  O_2
REMARK    2  A    between atoms: O_2  and  C_3
REMARK    3  A    between atoms: C_11  and  C_12
REMARK    4  A    between atoms: C_13  and  C_14
REMARK    5  A    between atoms: C_18  and  C_19
REMARK                            x       y       z     vdW  Elec       q    Type
REMARK                         _______ _______ _______ _____ _____    ______ ____
ROOT
ATOM      1  C   UNL     1       1.459   3.789  20.199  0.00  0.00    +0.000 C 
ATOM      2  O   UNL     1       0.282   3.604  19.910  0.00  0.00    +0.000 OA
ATOM      3  N   UNL     1       2.418   4.081  19.269  0.00  0.00    +0.000 N 
ATOM      4  C   UNL     1       3.833   4.313  19.445  0.00  0.00    +0.000 C 
ATOM      5  C   UNL     1       4.423   3.593  18.224  0.00  0.00    +0.000 C 
ATOM      6  C   UNL     1       3.295   3.590  17.184  0.00  0.00    +0.000 C 
ATOM      7  C   UNL     1       2.126   4.294  17.875  0.00  0.00    +0.000 C 
ATOM      8  C   UNL     1       2.150   5.801  17.595  0.00  0.00    +0.000 C 
ATOM      9  C   UNL     1       3.126   6.614  18.486  0.00  0.00    +0.000 C 
ATOM     10  C   UNL     1       4.131   5.815  19.353  0.00  0.00    +0.000 C 
ENDROOT
BRANCH   1  12
ATOM     11  C   UNL     1       1.831   2.419  22.058  0.00  0.00    +0.000 C 
ATOM     12  O   UNL     1       1.952   3.714  21.463  0.00  0.00    +0.000 OA
ENDBRANCH   1  12
BRANCH   9  13
ATOM     13  C   UNL     1       2.338   7.470  19.391  0.00  0.00    +0.000 C 
ATOM     14  C   UNL     1       1.693   8.200  20.098  0.00  0.00    +0.000 C 
BRANCH  14  15
ATOM     15  C   UNL     1       0.917   9.049  20.936  0.00  0.00    +0.000 A 
ATOM     16  C   UNL     1       0.834   8.781  22.301  0.00  0.00    +0.000 A 
ATOM     17  C   UNL     1       0.027   9.572  23.115  0.00  0.00    +0.000 A 
ATOM     18  C   UNL     1      -0.714  10.619  22.561  0.00  0.00    +0.000 A 
ATOM     19  C   UNL     1      -0.637  10.896  21.191  0.00  0.00    +0.000 A 
ATOM     20  C   UNL     1      -1.463  11.987  20.577  0.00  0.00    +0.000 C 
ATOM     21  C   UNL     1       0.208  10.121  20.385  0.00  0.00    +0.000 A 
ENDBRANCH  14  15
ENDBRANCH   9  13
TORSDOF 3
ENDMDL
MODEL 6
REMARK VINA RESULT:      -6.8      3.829      5.717
REMARK  Name = 
REMARK  5 active torsions:
REMARK  status: ('A' for Active; 'I' for Inactive)
REMARK    1  A    between atoms: C_1  and  O_2
REMARK    2  A    between atoms: O_2  and  C_3
REMARK    3  A    between atoms: C_11  and  C_12
REMARK    4  A    between atoms: C_13  and  C_14
REMARK    5  A    between atoms: C_18  and  C_19
REMARK                            x       y       z     vdW  Elec       q    Type
REMARK                         _______ _______ _______ _____ _____    ______ ____
ROOT
ATOM      1  C   UNL     1       4.164   7.040  17.067  0.00  0.00    +0.000 C 
ATOM      2  O   UNL     1       4.070   7.563  15.963  0.00  0.00    +0.000 OA
ATOM      3  N   UNL     1       4.857   5.882  17.287  0.00  0.00    +0.000 N 
ATOM      4  C   UNL     1       5.050   5.140  18.512  0.00  0.00    +0.000 C 
ATOM      5  C   UNL     1       4.933   3.691  18.022  0.00  0.00    +0.000 C 
ATOM      6  C   UNL     1       5.322   3.741  16.539  0.00  0.00    +0.000 C 
ATOM      7  C   UNL     1       5.623   5.216  16.266  0.00  0.00    +0.000 C 
ATOM      8  C   UNL     1       7.109   5.523  16.490  0.00  0.00    +0.000 C 
ATOM      9  C   UNL     1       7.511   5.747  17.971  0.00  0.00    +0.000 C 
ATOM     10  C   UNL     1       6.463   5.390  19.055  0.00  0.00    +0.000 C 
ENDROOT
BRANCH   1  12
ATOM     11  C   UNL     1       2.538   8.474  17.945  0.00  0.00    +0.000 C 
ATOM     12  O   UNL     1       3.585   7.532  18.195  0.00  0.00    +0.000 OA
ENDBRANCH   1  12
BRANCH   9  13
ATOM     13  C   UNL     1       7.876   7.163  18.153  0.00  0.00    +0.000 C 
ATOM     14  C   UNL     1       8.198   8.317  18.264  0.00  0.00    +0.000 C 
BRANCH  14  15
ATOM     15  C   UNL     1       8.558   9.688  18.395  0.00  0.00    +0.000 A 
ATOM     16  C   UNL     1       8.022  10.629  17.518  0.00  0.00    +0.000 A 
ATOM     17  C   UNL     1       8.418  11.962  17.604  0.00  0.00    +0.000 A 
ATOM     18  C   UNL     1       9.366  12.351  18.553  0.00  0.00    +0.000 A 
ATOM     19  C   UNL     1       9.910  11.413  19.438  0.00  0.00    +0.000 A 
ATOM     20  C   UNL     1      10.964  11.808  20.430  0.00  0.00    +0.000 C 
ATOM     21  C   UNL     1       9.478  10.081  19.372  0.00  0.00    +0.000 A 
ENDBRANCH  14  15
ENDBRANCH   9  13
TORSDOF 3
ENDMDL
MODEL 7
REMARK VINA RESULT:      -6.8      2.220      2.778
REMARK  Name = 
REMARK  5 active torsions:
REMARK  status: ('A' for Active; 'I' for Inactive)
REMARK    1  A    between atoms: C_1  and  O_2
REMARK    2  A    between atoms: O_2  and  C_3
REMARK    3  A    between atoms: C_11  and  C_12
REMARK    4  A    between atoms: C_13  and  C_14
REMARK    5  A    between atoms: C_18  and  C_19
REMARK                            x       y       z     vdW  Elec       q    Type
REMARK                         _______ _______ _______ _____ _____    ______ ____
ROOT
ATOM      1  C   UNL     1       1.483   2.883  19.975  0.00  0.00    +0.000 C 
ATOM      2  O   UNL     1       0.391   2.781  19.428  0.00  0.00    +0.000 OA
ATOM      3  N   UNL     1       2.662   2.601  19.342  0.00  0.00    +0.000 N 
ATOM      4  C   UNL     1       4.016   2.658  19.846  0.00  0.00    +0.000 C 
ATOM      5  C   UNL     1       4.640   1.409  19.209  0.00  0.00    +0.000 C 
ATOM      6  C   UNL     1       3.804   1.147  17.949  0.00  0.00    +0.000 C 
ATOM      7  C   UNL     1       2.745   2.252  17.948  0.00  0.00    +0.000 C 
ATOM      8  C   UNL     1       3.231   3.477  17.164  0.00  0.00    +0.000 C 
ATOM      9  C   UNL     1       4.173   4.423  17.954  0.00  0.00    +0.000 C 
ATOM     10  C   UNL     1       4.717   3.915  19.313  0.00  0.00    +0.000 C 
ENDROOT
BRANCH   1  12
ATOM     11  C   UNL     1       1.954   4.659  21.421  0.00  0.00    +0.000 C 
ATOM     12  O   UNL     1       1.654   3.269  21.267  0.00  0.00    +0.000 OA
ENDBRANCH   1  12
BRANCH   9  13
ATOM     13  C   UNL     1       3.467   5.693  18.202  0.00  0.00    +0.000 C 
ATOM     14  C   UNL     1       2.869   6.710  18.439  0.00  0.00    +0.000 C 
BRANCH  14  15
ATOM     15  C   UNL     1       2.180   7.923  18.721  0.00  0.00    +0.000 A 
ATOM     16  C   UNL     1       2.116   8.921  17.750  0.00  0.00    +0.000 A 
ATOM     17  C   UNL     1       1.496  10.134  18.042  0.00  0.00    +0.000 A 
ATOM     18  C   UNL     1       0.958  10.357  19.312  0.00  0.00    +0.000 A 
ATOM     19  C   UNL     1       1.017   9.360  20.293  0.00  0.00    +0.000 A 
ATOM     20  C   UNL     1       0.485   9.605  21.674  0.00  0.00    +0.000 C 
ATOM     21  C   UNL     1       1.608   8.129  19.980  0.00  0.00    +0.000 A 
ENDBRANCH  14  15
ENDBRANCH   9  13
TORSDOF 3
ENDMDL
MODEL 8
REMARK VINA RESULT:      -6.7      1.914      3.676
REMARK  Name = 
REMARK  5 active torsions:
REMARK  status: ('A' for Active; 'I' for Inactive)
REMARK    1  A    between atoms: C_1  and  O_2
REMARK    2  A    between atoms: O_2  and  C_3
REMARK    3  A    between atoms: C_11  and  C_12
REMARK    4  A    between atoms: C_13  and  C_14
REMARK    5  A    between atoms: C_18  and  C_19
REMARK                            x       y       z     vdW  Elec       q    Type
REMARK                         _______ _______ _______ _____ _____    ______ ____
ROOT
ATOM      1  C   UNL     1       4.959   4.915  18.572  0.00  0.00    +0.000 C 
ATOM      2  O   UNL     1       5.816   5.279  19.369  0.00  0.00    +0.000 OA
ATOM      3  N   UNL     1       4.171   3.816  18.776  0.00  0.00    +0.000 N 
ATOM      4  C   UNL     1       3.136   3.255  17.937  0.00  0.00    +0.000 C 
ATOM      5  C   UNL     1       3.385   1.750  18.099  0.00  0.00    +0.000 C 
ATOM      6  C   UNL     1       4.081   1.607  19.459  0.00  0.00    +0.000 C 
ATOM      7  C   UNL     1       4.201   3.038  19.987  0.00  0.00    +0.000 C 
ATOM      8  C   UNL     1       2.984   3.411  20.841  0.00  0.00    +0.000 C 
ATOM      9  C   UNL     1       1.732   3.846  20.034  0.00  0.00    +0.000 C 
ATOM     10  C   UNL     1       1.756   3.615  18.502  0.00  0.00    +0.000 C 
ENDROOT
BRANCH   1  12
ATOM     11  C   UNL     1       4.037   6.801  17.541  0.00  0.00    +0.000 C 
ATOM     12  O   UNL     1       4.700   5.542  17.394  0.00  0.00    +0.000 OA
ENDBRANCH   1  12
BRANCH   9  13
ATOM     13  C   UNL     1       1.498   5.284  20.264  0.00  0.00    +0.000 C 
ATOM     14  C   UNL     1       1.276   6.456  20.421  0.00  0.00    +0.000 C 
BRANCH  14  15
ATOM     15  C   UNL     1       1.009   7.839  20.628  0.00  0.00    +0.000 A 
ATOM     16  C   UNL     1       1.507   8.778  19.727  0.00  0.00    +0.000 A 
ATOM     17  C   UNL     1       1.301  10.137  19.958  0.00  0.00    +0.000 A 
ATOM     18  C   UNL     1       0.613  10.557  21.099  0.00  0.00    +0.000 A 
ATOM     19  C   UNL     1       0.109   9.620  22.009  0.00  0.00    +0.000 A 
ATOM     20  C   UNL     1      -0.590  10.059  23.261  0.00  0.00    +0.000 C 
ATOM     21  C   UNL     1       0.286   8.254  21.750  0.00  0.00    +0.000 A 
ENDBRANCH  14  15
ENDBRANCH   9  13
TORSDOF 3
ENDMDL
MODEL 9
REMARK VINA RESULT:      -6.7      2.260      2.660
REMARK  Name = 
REMARK  5 active torsions:
REMARK  status: ('A' for Active; 'I' for Inactive)
REMARK    1  A    between atoms: C_1  and  O_2
REMARK    2  A    between atoms: O_2  and  C_3
REMARK    3  A    between atoms: C_11  and  C_12
REMARK    4  A    between atoms: C_13  and  C_14
REMARK    5  A    between atoms: C_18  and  C_19
REMARK                            x       y       z     vdW  Elec       q    Type
REMARK                         _______ _______ _______ _____ _____    ______ ____
ROOT
ATOM      1  C   UNL     1       1.459   3.579  20.071  0.00  0.00    +0.000 C 
ATOM      2  O   UNL     1       0.355   3.399  19.570  0.00  0.00    +0.000 OA
ATOM      3  N   UNL     1       2.607   3.666  19.333  0.00  0.00    +0.000 N 
ATOM      4  C   UNL     1       3.971   3.861  19.769  0.00  0.00    +0.000 C 
ATOM      5  C   UNL     1       4.737   2.920  18.829  0.00  0.00    +0.000 C 
ATOM      6  C   UNL     1       3.848   2.791  17.586  0.00  0.00    +0.000 C 
ATOM      7  C   UNL     1       2.621   3.653  17.893  0.00  0.00    +0.000 C 
ATOM      8  C   UNL     1       2.821   5.089  17.392  0.00  0.00    +0.000 C 
ATOM      9  C   UNL     1       3.657   5.996  18.333  0.00  0.00    +0.000 C 
ATOM     10  C   UNL     1       4.398   5.311  19.509  0.00  0.00    +0.000 C 
ENDROOT
BRANCH   1  12
ATOM     11  C   UNL     1       1.508   2.476  22.133  0.00  0.00    +0.000 C 
ATOM     12  O   UNL     1       1.678   3.697  21.407  0.00  0.00    +0.000 OA
ENDBRANCH   1  12
BRANCH   9  13
ATOM     13  C   UNL     1       2.771   7.027  18.904  0.00  0.00    +0.000 C 
ATOM     14  C   UNL     1       2.016   7.838  19.372  0.00  0.00    +0.000 C 
BRANCH  14  15
ATOM     15  C   UNL     1       1.136   8.802  19.942  0.00  0.00    +0.000 A 
ATOM     16  C   UNL     1       0.654   9.845  19.155  0.00  0.00    +0.000 A 
ATOM     17  C   UNL     1      -0.159  10.824  19.723  0.00  0.00    +0.000 A 
ATOM     18  C   UNL     1      -0.472  10.771  21.083  0.00  0.00    +0.000 A 
ATOM     19  C   UNL     1       0.008   9.727  21.882  0.00  0.00    +0.000 A 
ATOM     20  C   UNL     1      -0.282   9.684  23.353  0.00  0.00    +0.000 C 
ATOM     21  C   UNL     1       0.792   8.724  21.295  0.00  0.00    +0.000 A 
ENDBRANCH  14  15
ENDBRANCH   9  13
TORSDOF 3
ENDMDL
