MODEL 1
REMARK VINA RESULT:      -9.2      0.000      0.000
REMARK  Name = 
REMARK  6 active torsions:
REMARK  status: ('A' for Active; 'I' for Inactive)
REMARK    1  A    between atoms: N_1  and  C_2
REMARK    2  A    between atoms: C_2  and  C_3
REMARK    3  A    between atoms: C_6  and  C_7
REMARK    4  A    between atoms: C_13  and  C_14
REMARK    5  A    between atoms: C_18  and  N_19
REMARK    6  A    between atoms: N_22  and  C_23
REMARK                            x       y       z     vdW  Elec       q    Type
REMARK                         _______ _______ _______ _____ _____    ______ ____
ROOT
ATOM      1  C   UNL     1       1.895   6.696  20.277  0.00  0.00    +0.000 A 
ATOM      2  C   UNL     1       1.374   5.672  21.076  0.00  0.00    +0.000 A 
ATOM      3  N   UNL     1       1.787   4.375  21.128  0.00  0.00    +0.000 NA
ATOM      4  C   UNL     1       2.802   4.124  20.283  0.00  0.00    +0.000 A 
ATOM      5  N   UNL     1       3.416   2.910  20.153  0.00  0.00    +0.000 N 
ATOM      6  C   UNL     1       4.413   2.993  19.211  0.00  0.00    +0.000 A 
ATOM      7  C   UNL     1       4.440   4.292  18.723  0.00  0.00    +0.000 A 
ATOM      8  C   UNL     1       3.420   5.014  19.416  0.00  0.00    +0.000 A 
ATOM      9  C   UNL     1       2.958   6.342  19.431  0.00  0.00    +0.000 A 
ATOM     10  H   UNL     1       3.164   2.095  20.692  0.00  0.00    +0.000 HD
ENDROOT
BRANCH   1  14
ATOM     11  C   UNL     1       0.372  10.741  20.384  0.00  0.00    +0.000 A 
ATOM     12  C   UNL     1       0.202   9.881  21.476  0.00  0.00    +0.000 A 
ATOM     13  C   UNL     1       0.702   8.575  21.445  0.00  0.00    +0.000 A 
ATOM     14  C   UNL     1       1.372   8.078  20.317  0.00  0.00    +0.000 A 
ATOM     15  C   UNL     1       1.539   8.952  19.226  0.00  0.00    +0.000 A 
ATOM     16  C   UNL     1       1.051  10.263  19.259  0.00  0.00    +0.000 A 
BRANCH  11  17
ATOM     17  C   UNL     1      -0.186  12.139  20.415  0.00  0.00    +0.000 C 
BRANCH  17  18
ATOM     18  N   UNL     1      -0.772  12.454  21.709  0.00  0.00    +0.000 NA
ATOM     19  H   UNL     1      -1.780  12.305  21.668  0.00  0.00    +0.000 HD
ATOM     20  H   UNL     1      -0.632  13.444  21.908  0.00  0.00    +0.000 HD
ENDBRANCH  17  18
ENDBRANCH  11  17
ENDBRANCH   1  14
BRANCH   7  21
ATOM     21  C   UNL     1       5.394   4.761  17.726  0.00  0.00    +0.000 A 
ATOM     22  C   UNL     1       5.867   3.889  16.740  0.00  0.00    +0.000 A 
ATOM     23  C   UNL     1       6.818   4.317  15.819  0.00  0.00    +0.000 A 
ATOM     24  C   UNL     1       7.298   5.626  15.869  0.00  0.00    +0.000 A 
ATOM     25  C   UNL     1       6.819   6.527  16.824  0.00  0.00    +0.000 A 
ATOM     26  C   UNL     1       5.877   6.083  17.761  0.00  0.00    +0.000 A 
BRANCH  25  27
ATOM     27  N   UNL     1       7.280   7.864  16.901  0.00  0.00    +0.000 N 
ATOM     28  C   UNL     1       8.120   8.339  17.894  0.00  0.00    +0.000 C 
ATOM     29  O   UNL     1       8.685   7.638  18.726  0.00  0.00    +0.000 OA
ATOM     30  N   UNL     1       8.230   9.724  17.854  0.00  0.00    +0.000 N 
ATOM     31  H   UNL     1       7.243   8.418  16.059  0.00  0.00    +0.000 HD
ATOM     32  H   UNL     1       7.374  10.194  17.593  0.00  0.00    +0.000 HD
BRANCH  30  33
ATOM     33  C   UNL     1       9.079  10.405  18.758  0.00  0.00    +0.000 A 
ATOM     34  C   UNL     1       8.788  10.459  20.128  0.00  0.00    +0.000 A 
ATOM     35  C   UNL     1       9.593  11.194  20.997  0.00  0.00    +0.000 A 
ATOM     36  C   UNL     1      10.692  11.890  20.500  0.00  0.00    +0.000 A 
ATOM     37  C   UNL     1      10.994  11.821  19.139  0.00  0.00    +0.000 A 
ATOM     38 CL   UNL     1      12.325  12.719  18.519  0.00  0.00    +0.000 Cl
ATOM     39  C   UNL     1      10.210  11.059  18.268  0.00  0.00    +0.000 A 
ENDBRANCH  30  33
ENDBRANCH  25  27
ENDBRANCH   7  21
TORSDOF 6
ENDMDL
MODEL 2
REMARK VINA RESULT:      -9.1      1.279      1.739
REMARK  Name = 
REMARK  6 active torsions:
REMARK  status: ('A' for Active; 'I' for Inactive)
REMARK    1  A    between atoms: N_1  and  C_2
REMARK    2  A    between atoms: C_2  and  C_3
REMARK    3  A    between atoms: C_6  and  C_7
REMARK    4  A    between atoms: C_13  and  C_14
REMARK    5  A    between atoms: C_18  and  N_19
REMARK    6  A    between atoms: N_22  and  C_23
REMARK                            x       y       z     vdW  Elec       q    Type
REMARK                         _______ _______ _______ _____ _____    ______ ____
ROOT
ATOM      1  C   UNL     1       1.656   6.355  20.310  0.00  0.00    +0.000 A 
ATOM      2  C   UNL     1       0.972   5.203  20.713  0.00  0.00    +0.000 A 
ATOM      3  N   UNL     1       1.320   3.909  20.471  0.00  0.00    +0.000 NA
ATOM      4  C   UNL     1       2.450   3.806  19.750  0.00  0.00    +0.000 A 
ATOM      5  N   UNL     1       3.030   2.624  19.387  0.00  0.00    +0.000 N 
ATOM      6  C   UNL     1       4.171   2.869  18.662  0.00  0.00    +0.000 A 
ATOM      7  C   UNL     1       4.328   4.244  18.555  0.00  0.00    +0.000 A 
ATOM      8  C   UNL     1       3.237   4.839  19.259  0.00  0.00    +0.000 A 
ATOM      9  C   UNL     1       2.829   6.150  19.566  0.00  0.00    +0.000 A 
ATOM     10  H   UNL     1       2.662   1.719  19.641  0.00  0.00    +0.000 HD
ENDROOT
BRANCH   1  14
ATOM     11  C   UNL     1       0.276  10.331  21.300  0.00  0.00    +0.000 A 
ATOM     12  C   UNL     1       0.977  10.090  20.112  0.00  0.00    +0.000 A 
ATOM     13  C   UNL     1       1.416   8.802  19.787  0.00  0.00    +0.000 A 
ATOM     14  C   UNL     1       1.187   7.716  20.645  0.00  0.00    +0.000 A 
ATOM     15  C   UNL     1       0.479   7.970  21.836  0.00  0.00    +0.000 A 
ATOM     16  C   UNL     1       0.028   9.254  22.157  0.00  0.00    +0.000 A 
BRANCH  11  17
ATOM     17  C   UNL     1      -0.176  11.722  21.655  0.00  0.00    +0.000 C 
BRANCH  17  18
ATOM     18  N   UNL     1      -0.672  11.793  23.021  0.00  0.00    +0.000 NA
ATOM     19  H   UNL     1      -0.579  12.748  23.364  0.00  0.00    +0.000 HD
ATOM     20  H   UNL     1      -0.088  11.209  23.619  0.00  0.00    +0.000 HD
ENDBRANCH  17  18
ENDBRANCH  11  17
ENDBRANCH   1  14
BRANCH   7  21
ATOM     21  C   UNL     1       5.450   4.879  17.876  0.00  0.00    +0.000 A 
ATOM     22  C   UNL     1       5.722   4.581  16.536  0.00  0.00    +0.000 A 
ATOM     23  C   UNL     1       6.823   5.145  15.900  0.00  0.00    +0.000 A 
ATOM     24  C   UNL     1       7.659   6.019  16.594  0.00  0.00    +0.000 A 
ATOM     25  C   UNL     1       7.393   6.358  17.924  0.00  0.00    +0.000 A 
ATOM     26  C   UNL     1       6.294   5.772  18.564  0.00  0.00    +0.000 A 
BRANCH  25  27
ATOM     27  N   UNL     1       8.216   7.246  18.658  0.00  0.00    +0.000 N 
ATOM     28  C   UNL     1       8.275   8.612  18.438  0.00  0.00    +0.000 C 
ATOM     29  O   UNL     1       7.520   9.233  17.699  0.00  0.00    +0.000 OA
ATOM     30  N   UNL     1       9.320   9.200  19.141  0.00  0.00    +0.000 N 
ATOM     31  H   UNL     1       8.549   6.934  19.558  0.00  0.00    +0.000 HD
ATOM     32  H   UNL     1      10.146   8.622  19.203  0.00  0.00    +0.000 HD
BRANCH  30  33
ATOM     33  C   UNL     1       9.525  10.600  19.086  0.00  0.00    +0.000 A 
ATOM     34  C   UNL     1       9.980  11.223  17.917  0.00  0.00    +0.000 A 
ATOM     35  C   UNL     1      10.247  12.591  17.898  0.00  0.00    +0.000 A 
ATOM     36  C   UNL     1      10.070  13.346  19.055  0.00  0.00    +0.000 A 
ATOM     37  C   UNL     1       9.598  12.730  20.215  0.00  0.00    +0.000 A 
ATOM     38 CL   UNL     1       9.425  13.655  21.656  0.00  0.00    +0.000 Cl
ATOM     39  C   UNL     1       9.297  11.365  20.231  0.00  0.00    +0.000 A 
ENDBRANCH  30  33
ENDBRANCH  25  27
ENDBRANCH   7  21
TORSDOF 6
ENDMDL
MODEL 3
REMARK VINA RESULT:      -9.0      0.962      1.253
REMARK  Name = 
REMARK  6 active torsions:
REMARK  status: ('A' for Active; 'I' for Inactive)
REMARK    1  A    between atoms: N_1  and  C_2
REMARK    2  A    between atoms: C_2  and  C_3
REMARK    3  A    between atoms: C_6  and  C_7
REMARK    4  A    between atoms: C_13  and  C_14
REMARK    5  A    between atoms: C_18  and  N_19
REMARK    6  A    between atoms: N_22  and  C_23
REMARK                            x       y       z     vdW  Elec       q    Type
REMARK                         _______ _______ _______ _____ _____    ______ ____
ROOT
ATOM      1  C   UNL     1       1.924   6.889  20.276  0.00  0.00    +0.000 A 
ATOM      2  C   UNL     1       1.334   5.861  21.019  0.00  0.00    +0.000 A 
ATOM      3  N   UNL     1       1.688   4.546  21.034  0.00  0.00    +0.000 NA
ATOM      4  C   UNL     1       2.718   4.281  20.212  0.00  0.00    +0.000 A 
ATOM      5  N   UNL     1       3.282   3.047  20.055  0.00  0.00    +0.000 N 
ATOM      6  C   UNL     1       4.313   3.120  19.147  0.00  0.00    +0.000 A 
ATOM      7  C   UNL     1       4.411   4.433  18.710  0.00  0.00    +0.000 A 
ATOM      8  C   UNL     1       3.402   5.173  19.399  0.00  0.00    +0.000 A 
ATOM      9  C   UNL     1       2.997   6.519  19.450  0.00  0.00    +0.000 A 
ATOM     10  H   UNL     1       2.978   2.225  20.554  0.00  0.00    +0.000 HD
ENDROOT
BRANCH   1  14
ATOM     11  C   UNL     1       0.572  10.991  20.488  0.00  0.00    +0.000 A 
ATOM     12  C   UNL     1       0.653  10.202  21.641  0.00  0.00    +0.000 A 
ATOM     13  C   UNL     1       1.099   8.878  21.575  0.00  0.00    +0.000 A 
ATOM     14  C   UNL     1       1.460   8.291  20.352  0.00  0.00    +0.000 A 
ATOM     15  C   UNL     1       1.377   9.095  19.199  0.00  0.00    +0.000 A 
ATOM     16  C   UNL     1       0.944  10.423  19.265  0.00  0.00    +0.000 A 
BRANCH  11  17
ATOM     17  C   UNL     1       0.073  12.409  20.562  0.00  0.00    +0.000 C 
BRANCH  17  18
ATOM     18  N   UNL     1       0.161  12.938  21.915  0.00  0.00    +0.000 NA
ATOM     19  H   UNL     1       1.107  13.279  22.082  0.00  0.00    +0.000 HD
ATOM     20  H   UNL     1       0.001  12.182  22.580  0.00  0.00    +0.000 HD
ENDBRANCH  17  18
ENDBRANCH  11  17
ENDBRANCH   1  14
BRANCH   7  21
ATOM     21  C   UNL     1       5.417   4.895  17.762  0.00  0.00    +0.000 A 
ATOM     22  C   UNL     1       5.974   4.004  16.839  0.00  0.00    +0.000 A 
ATOM     23  C   UNL     1       6.973   4.429  15.967  0.00  0.00    +0.000 A 
ATOM     24  C   UNL     1       7.416   5.751  16.003  0.00  0.00    +0.000 A 
ATOM     25  C   UNL     1       6.854   6.669  16.894  0.00  0.00    +0.000 A 
ATOM     26  C   UNL     1       5.863   6.230  17.783  0.00  0.00    +0.000 A 
BRANCH  25  27
ATOM     27  N   UNL     1       7.275   8.019  16.956  0.00  0.00    +0.000 N 
ATOM     28  C   UNL     1       8.141   8.520  17.914  0.00  0.00    +0.000 C 
ATOM     29  O   UNL     1       8.762   7.836  18.719  0.00  0.00    +0.000 OA
ATOM     30  N   UNL     1       8.205   9.908  17.873  0.00  0.00    +0.000 N 
ATOM     31  H   UNL     1       7.185   8.573  16.117  0.00  0.00    +0.000 HD
ATOM     32  H   UNL     1       7.324  10.351  17.649  0.00  0.00    +0.000 HD
BRANCH  30  33
ATOM     33  C   UNL     1       9.069  10.614  18.743  0.00  0.00    +0.000 A 
ATOM     34  C   UNL     1      10.392  10.900  18.378  0.00  0.00    +0.000 A 
ATOM     35  C   UNL     1      11.255  11.530  19.272  0.00  0.00    +0.000 A 
ATOM     36  C   UNL     1      10.803  11.872  20.545  0.00  0.00    +0.000 A 
ATOM     37  C   UNL     1       9.481  11.606  20.902  0.00  0.00    +0.000 A 
ATOM     38 CL   UNL     1       8.938  11.986  22.490  0.00  0.00    +0.000 Cl
ATOM     39  C   UNL     1       8.602  11.004  19.998  0.00  0.00    +0.000 A 
ENDBRANCH  30  33
ENDBRANCH  25  27
ENDBRANCH   7  21
TORSDOF 6
ENDMDL
MODEL 4
REMARK VINA RESULT:      -9.0      1.178      1.648
REMARK  Name = 
REMARK  6 active torsions:
REMARK  status: ('A' for Active; 'I' for Inactive)
REMARK    1  A    between atoms: N_1  and  C_2
REMARK    2  A    between atoms: C_2  and  C_3
REMARK    3  A    between atoms: C_6  and  C_7
REMARK    4  A    between atoms: C_13  and  C_14
REMARK    5  A    between atoms: C_18  and  N_19
REMARK    6  A    between atoms: N_22  and  C_23
REMARK                            x       y       z     vdW  Elec       q    Type
REMARK                         _______ _______ _______ _____ _____    ______ ____
ROOT
ATOM      1  C   UNL     1       1.752   7.321  20.069  0.00  0.00    +0.000 A 
ATOM      2  C   UNL     1       1.152   6.378  20.910  0.00  0.00    +0.000 A 
ATOM      3  N   UNL     1       1.523   5.081  21.093  0.00  0.00    +0.000 NA
ATOM      4  C   UNL     1       2.584   4.738  20.342  0.00  0.00    +0.000 A 
ATOM      5  N   UNL     1       3.169   3.504  20.350  0.00  0.00    +0.000 N 
ATOM      6  C   UNL     1       4.228   3.487  19.473  0.00  0.00    +0.000 A 
ATOM      7  C   UNL     1       4.323   4.740  18.885  0.00  0.00    +0.000 A 
ATOM      8  C   UNL     1       3.282   5.540  19.449  0.00  0.00    +0.000 A 
ATOM      9  C   UNL     1       2.857   6.875  19.326  0.00  0.00    +0.000 A 
ATOM     10  H   UNL     1       2.861   2.742  20.935  0.00  0.00    +0.000 HD
ENDROOT
BRANCH   1  14
ATOM     11  C   UNL     1       0.326  11.392  19.768  0.00  0.00    +0.000 A 
ATOM     12  C   UNL     1       0.888  10.745  18.660  0.00  0.00    +0.000 A 
ATOM     13  C   UNL     1       1.341   9.425  18.755  0.00  0.00    +0.000 A 
ATOM     14  C   UNL     1       1.267   8.713  19.962  0.00  0.00    +0.000 A 
ATOM     15  C   UNL     1       0.698   9.374  21.068  0.00  0.00    +0.000 A 
ATOM     16  C   UNL     1       0.232  10.689  20.973  0.00  0.00    +0.000 A 
BRANCH  11  17
ATOM     17  C   UNL     1      -0.142  12.819  19.666  0.00  0.00    +0.000 C 
BRANCH  17  18
ATOM     18  N   UNL     1      -1.065  13.003  18.556  0.00  0.00    +0.000 NA
ATOM     19  H   UNL     1      -0.734  12.470  17.752  0.00  0.00    +0.000 HD
ATOM     20  H   UNL     1      -1.062  13.984  18.277  0.00  0.00    +0.000 HD
ENDBRANCH  17  18
ENDBRANCH  11  17
ENDBRANCH   1  14
BRANCH   7  21
ATOM     21  C   UNL     1       5.353   5.104  17.921  0.00  0.00    +0.000 A 
ATOM     22  C   UNL     1       5.860   4.144  17.038  0.00  0.00    +0.000 A 
ATOM     23  C   UNL     1       6.880   4.474  16.151  0.00  0.00    +0.000 A 
ATOM     24  C   UNL     1       7.397   5.770  16.131  0.00  0.00    +0.000 A 
ATOM     25  C   UNL     1       6.886   6.755  16.980  0.00  0.00    +0.000 A 
ATOM     26  C   UNL     1       5.873   6.412  17.884  0.00  0.00    +0.000 A 
BRANCH  25  27
ATOM     27  N   UNL     1       7.382   8.082  16.984  0.00  0.00    +0.000 N 
ATOM     28  C   UNL     1       8.227   8.592  17.955  0.00  0.00    +0.000 C 
ATOM     29  O   UNL     1       8.766   7.926  18.832  0.00  0.00    +0.000 OA
ATOM     30  N   UNL     1       8.374   9.969  17.836  0.00  0.00    +0.000 N 
ATOM     31  H   UNL     1       7.367   8.587  16.110  0.00  0.00    +0.000 HD
ATOM     32  H   UNL     1       7.533  10.445  17.540  0.00  0.00    +0.000 HD
BRANCH  30  33
ATOM     33  C   UNL     1       9.235  10.679  18.707  0.00  0.00    +0.000 A 
ATOM     34  C   UNL     1      10.565  10.944  18.357  0.00  0.00    +0.000 A 
ATOM     35  C   UNL     1      11.423  11.579  19.254  0.00  0.00    +0.000 A 
ATOM     36  C   UNL     1      10.957  11.945  20.515  0.00  0.00    +0.000 A 
ATOM     37  C   UNL     1       9.627  11.699  20.857  0.00  0.00    +0.000 A 
ATOM     38 CL   UNL     1       9.066  12.110  22.432  0.00  0.00    +0.000 Cl
ATOM     39  C   UNL     1       8.753  11.093  19.950  0.00  0.00    +0.000 A 
ENDBRANCH  30  33
ENDBRANCH  25  27
ENDBRANCH   7  21
TORSDOF 6
ENDMDL
MODEL 5
REMARK VINA RESULT:      -8.9      1.135      1.187
REMARK  Name = 
REMARK  6 active torsions:
REMARK  status: ('A' for Active; 'I' for Inactive)
REMARK    1  A    between atoms: N_1  and  C_2
REMARK    2  A    between atoms: C_2  and  C_3
REMARK    3  A    between atoms: C_6  and  C_7
REMARK    4  A    between atoms: C_13  and  C_14
REMARK    5  A    between atoms: C_18  and  N_19
REMARK    6  A    between atoms: N_22  and  C_23
REMARK                            x       y       z     vdW  Elec       q    Type
REMARK                         _______ _______ _______ _____ _____    ______ ____
ROOT
ATOM      1  C   UNL     1       1.724   6.739  20.337  0.00  0.00    +0.000 A 
ATOM      2  C   UNL     1       1.019   5.610  20.769  0.00  0.00    +0.000 A 
ATOM      3  N   UNL     1       1.343   4.305  20.557  0.00  0.00    +0.000 NA
ATOM      4  C   UNL     1       2.468   4.164  19.836  0.00  0.00    +0.000 A 
ATOM      5  N   UNL     1       3.024   2.963  19.498  0.00  0.00    +0.000 N 
ATOM      6  C   UNL     1       4.168   3.170  18.764  0.00  0.00    +0.000 A 
ATOM      7  C   UNL     1       4.350   4.538  18.625  0.00  0.00    +0.000 A 
ATOM      8  C   UNL     1       3.272   5.170  19.318  0.00  0.00    +0.000 A 
ATOM      9  C   UNL     1       2.891   6.495  19.596  0.00  0.00    +0.000 A 
ATOM     10  H   UNL     1       2.640   2.071  19.774  0.00  0.00    +0.000 HD
ENDROOT
BRANCH   1  14
ATOM     11  C   UNL     1       0.435  10.771  21.220  0.00  0.00    +0.000 A 
ATOM     12  C   UNL     1       0.515   9.806  22.231  0.00  0.00    +0.000 A 
ATOM     13  C   UNL     1       0.940   8.504  21.948  0.00  0.00    +0.000 A 
ATOM     14  C   UNL     1       1.282   8.116  20.643  0.00  0.00    +0.000 A 
ATOM     15  C   UNL     1       1.200   9.096  19.635  0.00  0.00    +0.000 A 
ATOM     16  C   UNL     1       0.787  10.402  19.918  0.00  0.00    +0.000 A 
BRANCH  11  17
ATOM     17  C   UNL     1      -0.043  12.165  21.528  0.00  0.00    +0.000 C 
BRANCH  17  18
ATOM     18  N   UNL     1      -1.090  12.163  22.538  0.00  0.00    +0.000 NA
ATOM     19  H   UNL     1      -1.904  12.662  22.180  0.00  0.00    +0.000 HD
ATOM     20  H   UNL     1      -0.767  12.678  23.356  0.00  0.00    +0.000 HD
ENDBRANCH  17  18
ENDBRANCH  11  17
ENDBRANCH   1  14
BRANCH   7  21
ATOM     21  C   UNL     1       5.482   5.135  17.929  0.00  0.00    +0.000 A 
ATOM     22  C   UNL     1       5.740   4.806  16.594  0.00  0.00    +0.000 A 
ATOM     23  C   UNL     1       6.850   5.333  15.942  0.00  0.00    +0.000 A 
ATOM     24  C   UNL     1       7.708   6.203  16.615  0.00  0.00    +0.000 A 
ATOM     25  C   UNL     1       7.455   6.574  17.938  0.00  0.00    +0.000 A 
ATOM     26  C   UNL     1       6.347   6.024  18.595  0.00  0.00    +0.000 A 
BRANCH  25  27
ATOM     27  N   UNL     1       8.301   7.458  18.651  0.00  0.00    +0.000 N 
ATOM     28  C   UNL     1       8.370   8.822  18.420  0.00  0.00    +0.000 C 
ATOM     29  O   UNL     1       7.608   9.446  17.690  0.00  0.00    +0.000 OA
ATOM     30  N   UNL     1       9.434   9.405  19.099  0.00  0.00    +0.000 N 
ATOM     31  H   UNL     1       8.647   7.150  19.548  0.00  0.00    +0.000 HD
ATOM     32  H   UNL     1      10.255   8.818  19.151  0.00  0.00    +0.000 HD
BRANCH  30  33
ATOM     33  C   UNL     1       9.652  10.801  19.031  0.00  0.00    +0.000 A 
ATOM     34  C   UNL     1       9.120  11.668  19.995  0.00  0.00    +0.000 A 
ATOM     35  C   UNL     1       9.280  13.047  19.876  0.00  0.00    +0.000 A 
ATOM     36  C   UNL     1       9.966  13.572  18.784  0.00  0.00    +0.000 A 
ATOM     37  C   UNL     1      10.513  12.709  17.834  0.00  0.00    +0.000 A 
ATOM     38 CL   UNL     1      11.320  13.361  16.460  0.00  0.00    +0.000 Cl
ATOM     39  C   UNL     1      10.385  11.324  17.964  0.00  0.00    +0.000 A 
ENDBRANCH  30  33
ENDBRANCH  25  27
ENDBRANCH   7  21
TORSDOF 6
ENDMDL
MODEL 6
REMARK VINA RESULT:      -8.8      5.207      9.658
REMARK  Name = 
REMARK  6 active torsions:
REMARK  status: ('A' for Active; 'I' for Inactive)
REMARK    1  A    between atoms: N_1  and  C_2
REMARK    2  A    between atoms: C_2  and  C_3
REMARK    3  A    between atoms: C_6  and  C_7
REMARK    4  A    between atoms: C_13  and  C_14
REMARK    5  A    between atoms: C_18  and  N_19
REMARK    6  A    between atoms: N_22  and  C_23
REMARK                            x       y       z     vdW  Elec       q    Type
REMARK                         _______ _______ _______ _____ _____    ______ ____
ROOT
ATOM      1  C   UNL     1       4.625   4.348  17.631  0.00  0.00    +0.000 A 
ATOM      2  C   UNL     1       4.556   3.136  18.327  0.00  0.00    +0.000 A 
ATOM      3  N   UNL     1       3.818   2.865  19.438  0.00  0.00    +0.000 NA
ATOM      4  C   UNL     1       3.113   3.928  19.861  0.00  0.00    +0.000 A 
ATOM      5  N   UNL     1       2.276   3.920  20.941  0.00  0.00    +0.000 N 
ATOM      6  C   UNL     1       1.710   5.163  21.098  0.00  0.00    +0.000 A 
ATOM      7  C   UNL     1       2.196   5.990  20.096  0.00  0.00    +0.000 A 
ATOM      8  C   UNL     1       3.081   5.198  19.302  0.00  0.00    +0.000 A 
ATOM      9  C   UNL     1       3.851   5.401  18.142  0.00  0.00    +0.000 A 
ATOM     10  H   UNL     1       2.105   3.105  21.511  0.00  0.00    +0.000 HD
ENDROOT
BRANCH   1  14
ATOM     11  C   UNL     1       7.049   4.849  14.086  0.00  0.00    +0.000 A 
ATOM     12  C   UNL     1       7.481   5.337  15.324  0.00  0.00    +0.000 A 
ATOM     13  C   UNL     1       6.701   5.168  16.473  0.00  0.00    +0.000 A 
ATOM     14  C   UNL     1       5.456   4.522  16.421  0.00  0.00    +0.000 A 
ATOM     15  C   UNL     1       5.034   4.033  15.170  0.00  0.00    +0.000 A 
ATOM     16  C   UNL     1       5.818   4.189  14.022  0.00  0.00    +0.000 A 
BRANCH  11  17
ATOM     17  C   UNL     1       7.883   5.051  12.849  0.00  0.00    +0.000 C 
BRANCH  17  18
ATOM     18  N   UNL     1       8.980   5.977  13.088  0.00  0.00    +0.000 NA
ATOM     19  H   UNL     1       8.642   6.933  12.986  0.00  0.00    +0.000 HD
ATOM     20  H   UNL     1       9.693   5.842  12.372  0.00  0.00    +0.000 HD
ENDBRANCH  17  18
ENDBRANCH  11  17
ENDBRANCH   1  14
BRANCH   7  21
ATOM     21  C   UNL     1       1.791   7.379  19.927  0.00  0.00    +0.000 A 
ATOM     22  C   UNL     1       2.012   8.033  18.710  0.00  0.00    +0.000 A 
ATOM     23  C   UNL     1       1.675   9.375  18.561  0.00  0.00    +0.000 A 
ATOM     24  C   UNL     1       1.103  10.073  19.624  0.00  0.00    +0.000 A 
ATOM     25  C   UNL     1       0.841   9.436  20.840  0.00  0.00    +0.000 A 
ATOM     26  C   UNL     1       1.202   8.090  20.990  0.00  0.00    +0.000 A 
BRANCH  25  27
ATOM     27  N   UNL     1       0.257  10.111  21.939  0.00  0.00    +0.000 N 
ATOM     28  C   UNL     1      -0.749  11.056  21.824  0.00  0.00    +0.000 C 
ATOM     29  O   UNL     1      -1.357  11.305  20.789  0.00  0.00    +0.000 OA
ATOM     30  N   UNL     1      -0.974  11.715  23.027  0.00  0.00    +0.000 N 
ATOM     31  H   UNL     1       0.360   9.691  22.851  0.00  0.00    +0.000 HD
ATOM     32  H   UNL     1      -0.136  11.875  23.568  0.00  0.00    +0.000 HD
BRANCH  30  33
ATOM     33  C   UNL     1      -1.996  12.688  23.133  0.00  0.00    +0.000 A 
ATOM     34  C   UNL     1      -1.729  14.048  22.925  0.00  0.00    +0.000 A 
ATOM     35  C   UNL     1      -2.727  15.004  23.104  0.00  0.00    +0.000 A 
ATOM     36  C   UNL     1      -4.001  14.607  23.503  0.00  0.00    +0.000 A 
ATOM     37  C   UNL     1      -4.273  13.251  23.691  0.00  0.00    +0.000 A 
ATOM     38 CL   UNL     1      -5.835  12.767  24.230  0.00  0.00    +0.000 Cl
ATOM     39  C   UNL     1      -3.286  12.285  23.481  0.00  0.00    +0.000 A 
ENDBRANCH  30  33
ENDBRANCH  25  27
ENDBRANCH   7  21
TORSDOF 6
ENDMDL
MODEL 7
REMARK VINA RESULT:      -8.7      4.959      9.540
REMARK  Name = 
REMARK  6 active torsions:
REMARK  status: ('A' for Active; 'I' for Inactive)
REMARK    1  A    between atoms: N_1  and  C_2
REMARK    2  A    between atoms: C_2  and  C_3
REMARK    3  A    between atoms: C_6  and  C_7
REMARK    4  A    between atoms: C_13  and  C_14
REMARK    5  A    between atoms: C_18  and  N_19
REMARK    6  A    between atoms: N_22  and  C_23
REMARK                            x       y       z     vdW  Elec       q    Type
REMARK                         _______ _______ _______ _____ _____    ______ ____
ROOT
ATOM      1  C   UNL     1       4.540   4.527  17.516  0.00  0.00    +0.000 A 
ATOM      2  C   UNL     1       4.417   3.340  18.246  0.00  0.00    +0.000 A 
ATOM      3  N   UNL     1       3.655   3.129  19.354  0.00  0.00    +0.000 NA
ATOM      4  C   UNL     1       2.985   4.230  19.736  0.00  0.00    +0.000 A 
ATOM      5  N   UNL     1       2.135   4.285  20.804  0.00  0.00    +0.000 N 
ATOM      6  C   UNL     1       1.613   5.552  20.917  0.00  0.00    +0.000 A 
ATOM      7  C   UNL     1       2.143   6.330  19.898  0.00  0.00    +0.000 A 
ATOM      8  C   UNL     1       3.008   5.483  19.139  0.00  0.00    +0.000 A 
ATOM      9  C   UNL     1       3.799   5.623  17.985  0.00  0.00    +0.000 A 
ATOM     10  H   UNL     1       1.926   3.494  21.395  0.00  0.00    +0.000 HD
ENDROOT
BRANCH   1  14
ATOM     11  C   UNL     1       7.027   4.832  13.992  0.00  0.00    +0.000 A 
ATOM     12  C   UNL     1       7.388   5.474  15.182  0.00  0.00    +0.000 A 
ATOM     13  C   UNL     1       6.588   5.369  16.325  0.00  0.00    +0.000 A 
ATOM     14  C   UNL     1       5.393   4.634  16.313  0.00  0.00    +0.000 A 
ATOM     15  C   UNL     1       5.041   3.991  15.111  0.00  0.00    +0.000 A 
ATOM     16  C   UNL     1       5.846   4.084  13.970  0.00  0.00    +0.000 A 
BRANCH  11  17
ATOM     17  C   UNL     1       7.882   4.965  12.759  0.00  0.00    +0.000 C 
BRANCH  17  18
ATOM     18  N   UNL     1       8.913   5.977  12.929  0.00  0.00    +0.000 NA
ATOM     19  H   UNL     1       8.523   6.894  12.714  0.00  0.00    +0.000 HD
ATOM     20  H   UNL     1       9.658   5.811  12.253  0.00  0.00    +0.000 HD
ENDBRANCH  17  18
ENDBRANCH  11  17
ENDBRANCH   1  14
BRANCH   7  21
ATOM     21  C   UNL     1       1.792   7.728  19.683  0.00  0.00    +0.000 A 
ATOM     22  C   UNL     1       1.965   8.310  18.422  0.00  0.00    +0.000 A 
ATOM     23  C   UNL     1       1.681   9.658  18.226  0.00  0.00    +0.000 A 
ATOM     24  C   UNL     1       1.211  10.434  19.285  0.00  0.00    +0.000 A 
ATOM     25  C   UNL     1       0.999   9.870  20.546  0.00  0.00    +0.000 A 
ATOM     26  C   UNL     1       1.306   8.518  20.742  0.00  0.00    +0.000 A 
BRANCH  25  27
ATOM     27  N   UNL     1       0.518  10.626  21.642  0.00  0.00    +0.000 N 
ATOM     28  C   UNL     1      -0.703  11.279  21.660  0.00  0.00    +0.000 C 
ATOM     29  O   UNL     1      -1.573  11.156  20.804  0.00  0.00    +0.000 OA
ATOM     30  N   UNL     1      -0.820  12.120  22.760  0.00  0.00    +0.000 N 
ATOM     31  H   UNL     1       0.931  10.450  22.546  0.00  0.00    +0.000 HD
ATOM     32  H   UNL     1       0.045  12.575  23.020  0.00  0.00    +0.000 HD
BRANCH  30  33
ATOM     33  C   UNL     1      -2.013  12.846  22.987  0.00  0.00    +0.000 A 
ATOM     34  C   UNL     1      -3.121  12.248  23.602  0.00  0.00    +0.000 A 
ATOM     35  C   UNL     1      -4.316  12.951  23.753  0.00  0.00    +0.000 A 
ATOM     36  C   UNL     1      -4.414  14.257  23.280  0.00  0.00    +0.000 A 
ATOM     37  C   UNL     1      -3.305  14.860  22.685  0.00  0.00    +0.000 A 
ATOM     38 CL   UNL     1      -3.442  16.458  22.058  0.00  0.00    +0.000 Cl
ATOM     39  C   UNL     1      -2.095  14.172  22.560  0.00  0.00    +0.000 A 
ENDBRANCH  30  33
ENDBRANCH  25  27
ENDBRANCH   7  21
TORSDOF 6
ENDMDL
MODEL 8
REMARK VINA RESULT:      -8.7      3.735      7.158
REMARK  Name = 
REMARK  6 active torsions:
REMARK  status: ('A' for Active; 'I' for Inactive)
REMARK    1  A    between atoms: N_1  and  C_2
REMARK    2  A    between atoms: C_2  and  C_3
REMARK    3  A    between atoms: C_6  and  C_7
REMARK    4  A    between atoms: C_13  and  C_14
REMARK    5  A    between atoms: C_18  and  N_19
REMARK    6  A    between atoms: N_22  and  C_23
REMARK                            x       y       z     vdW  Elec       q    Type
REMARK                         _______ _______ _______ _____ _____    ______ ____
ROOT
ATOM      1  C   UNL     1       2.802   6.555  18.904  0.00  0.00    +0.000 A 
ATOM      2  C   UNL     1       2.534   5.760  20.023  0.00  0.00    +0.000 A 
ATOM      3  N   UNL     1       1.740   6.071  21.085  0.00  0.00    +0.000 NA
ATOM      4  C   UNL     1       1.198   7.297  20.980  0.00  0.00    +0.000 A 
ATOM      5  N   UNL     1       0.347   7.846  21.898  0.00  0.00    +0.000 N 
ATOM      6  C   UNL     1      -0.026   9.105  21.491  0.00  0.00    +0.000 A 
ATOM      7  C   UNL     1       0.603   9.372  20.283  0.00  0.00    +0.000 A 
ATOM      8  C   UNL     1       1.372   8.214  19.954  0.00  0.00    +0.000 A 
ATOM      9  C   UNL     1       2.188   7.817  18.879  0.00  0.00    +0.000 A 
ATOM     10  H   UNL     1       0.042   7.369  22.734  0.00  0.00    +0.000 HD
ENDROOT
BRANCH   1  14
ATOM     11  C   UNL     1       5.354   5.222  15.678  0.00  0.00    +0.000 A 
ATOM     12  C   UNL     1       5.271   6.578  16.013  0.00  0.00    +0.000 A 
ATOM     13  C   UNL     1       4.452   7.009  17.062  0.00  0.00    +0.000 A 
ATOM     14  C   UNL     1       3.675   6.103  17.800  0.00  0.00    +0.000 A 
ATOM     15  C   UNL     1       3.768   4.741  17.455  0.00  0.00    +0.000 A 
ATOM     16  C   UNL     1       4.596   4.306  16.415  0.00  0.00    +0.000 A 
BRANCH  11  17
ATOM     17  C   UNL     1       6.221   4.766  14.535  0.00  0.00    +0.000 C 
BRANCH  17  18
ATOM     18  N   UNL     1       7.500   5.459  14.523  0.00  0.00    +0.000 NA
ATOM     19  H   UNL     1       7.364   6.422  14.827  0.00  0.00    +0.000 HD
ATOM     20  H   UNL     1       7.849   5.501  13.566  0.00  0.00    +0.000 HD
ENDBRANCH  17  18
ENDBRANCH  11  17
ENDBRANCH   1  14
BRANCH   7  21
ATOM     21  C   UNL     1       0.418  10.607  19.532  0.00  0.00    +0.000 A 
ATOM     22  C   UNL     1      -0.866  11.129  19.342  0.00  0.00    +0.000 A 
ATOM     23  C   UNL     1      -1.052  12.279  18.581  0.00  0.00    +0.000 A 
ATOM     24  C   UNL     1       0.045  12.924  18.011  0.00  0.00    +0.000 A 
ATOM     25  C   UNL     1       1.341  12.442  18.212  0.00  0.00    +0.000 A 
ATOM     26  C   UNL     1       1.520  11.273  18.963  0.00  0.00    +0.000 A 
BRANCH  25  27
ATOM     27  N   UNL     1       2.479  13.075  17.654  0.00  0.00    +0.000 N 
ATOM     28  C   UNL     1       3.390  13.820  18.384  0.00  0.00    +0.000 C 
ATOM     29  O   UNL     1       3.410  13.894  19.608  0.00  0.00    +0.000 OA
ATOM     30  N   UNL     1       4.273  14.505  17.557  0.00  0.00    +0.000 N 
ATOM     31  H   UNL     1       2.807  12.738  16.761  0.00  0.00    +0.000 HD
ATOM     32  H   UNL     1       3.853  14.842  16.702  0.00  0.00    +0.000 HD
BRANCH  30  33
ATOM     33  C   UNL     1       5.312  15.290  18.110  0.00  0.00    +0.000 A 
ATOM     34  C   UNL     1       5.050  16.538  18.690  0.00  0.00    +0.000 A 
ATOM     35  C   UNL     1       6.091  17.335  19.164  0.00  0.00    +0.000 A 
ATOM     36  C   UNL     1       7.407  16.891  19.052  0.00  0.00    +0.000 A 
ATOM     37  C   UNL     1       7.667  15.640  18.492  0.00  0.00    +0.000 A 
ATOM     38 CL   UNL     1       9.297  15.114  18.311  0.00  0.00    +0.000 Cl
ATOM     39  C   UNL     1       6.626  14.823  18.045  0.00  0.00    +0.000 A 
ENDBRANCH  30  33
ENDBRANCH  25  27
ENDBRANCH   7  21
TORSDOF 6
ENDMDL
MODEL 9
REMARK VINA RESULT:      -8.6      3.336      7.417
REMARK  Name = 
REMARK  6 active torsions:
REMARK  status: ('A' for Active; 'I' for Inactive)
REMARK    1  A    between atoms: N_1  and  C_2
REMARK    2  A    between atoms: C_2  and  C_3
REMARK    3  A    between atoms: C_6  and  C_7
REMARK    4  A    between atoms: C_13  and  C_14
REMARK    5  A    between atoms: C_18  and  N_19
REMARK    6  A    between atoms: N_22  and  C_23
REMARK                            x       y       z     vdW  Elec       q    Type
REMARK                         _______ _______ _______ _____ _____    ______ ____
ROOT
ATOM      1  C   UNL     1       0.754  10.361  19.010  0.00  0.00    +0.000 A 
ATOM      2  C   UNL     1      -0.640  10.392  19.116  0.00  0.00    +0.000 A 
ATOM      3  N   UNL     1      -1.441  11.492  19.149  0.00  0.00    +0.000 NA
ATOM      4  C   UNL     1      -0.743  12.639  19.080  0.00  0.00    +0.000 A 
ATOM      5  N   UNL     1      -1.303  13.885  19.075  0.00  0.00    +0.000 N 
ATOM      6  C   UNL     1      -0.315  14.838  18.992  0.00  0.00    +0.000 A 
ATOM      7  C   UNL     1       0.910  14.188  18.946  0.00  0.00    +0.000 A 
ATOM      8  C   UNL     1       0.634  12.786  18.991  0.00  0.00    +0.000 A 
ATOM      9  C   UNL     1       1.398  11.606  18.938  0.00  0.00    +0.000 A 
ATOM     10  H   UNL     1      -2.297  14.052  19.110  0.00  0.00    +0.000 HD
ENDROOT
BRANCH   1  14
ATOM     11  C   UNL     1       2.994   6.665  18.876  0.00  0.00    +0.000 A 
ATOM     12  C   UNL     1       2.242   7.007  20.006  0.00  0.00    +0.000 A 
ATOM     13  C   UNL     1       1.510   8.199  20.047  0.00  0.00    +0.000 A 
ATOM     14  C   UNL     1       1.520   9.097  18.968  0.00  0.00    +0.000 A 
ATOM     15  C   UNL     1       2.278   8.740  17.836  0.00  0.00    +0.000 A 
ATOM     16  C   UNL     1       3.000   7.543  17.788  0.00  0.00    +0.000 A 
BRANCH  11  17
ATOM     17  C   UNL     1       3.796   5.391  18.846  0.00  0.00    +0.000 C 
BRANCH  17  18
ATOM     18  N   UNL     1       3.624   4.679  17.588  0.00  0.00    +0.000 NA
ATOM     19  H   UNL     1       3.551   5.353  16.827  0.00  0.00    +0.000 HD
ATOM     20  H   UNL     1       2.743   4.168  17.611  0.00  0.00    +0.000 HD
ENDBRANCH  17  18
ENDBRANCH  11  17
ENDBRANCH   1  14
BRANCH   7  21
ATOM     21  C   UNL     1       2.187  14.878  18.825  0.00  0.00    +0.000 A 
ATOM     22  C   UNL     1       2.312  16.205  19.252  0.00  0.00    +0.000 A 
ATOM     23  C   UNL     1       3.515  16.885  19.089  0.00  0.00    +0.000 A 
ATOM     24  C   UNL     1       4.608  16.242  18.507  0.00  0.00    +0.000 A 
ATOM     25  C   UNL     1       4.519  14.908  18.101  0.00  0.00    +0.000 A 
ATOM     26  C   UNL     1       3.300  14.235  18.250  0.00  0.00    +0.000 A 
BRANCH  25  27
ATOM     27  N   UNL     1       5.609  14.222  17.512  0.00  0.00    +0.000 N 
ATOM     28  C   UNL     1       6.837  14.042  18.126  0.00  0.00    +0.000 C 
ATOM     29  O   UNL     1       7.078  14.312  19.298  0.00  0.00    +0.000 OA
ATOM     30  N   UNL     1       7.784  13.537  17.243  0.00  0.00    +0.000 N 
ATOM     31  H   UNL     1       5.405  13.591  16.751  0.00  0.00    +0.000 HD
ATOM     32  H   UNL     1       7.693  13.891  16.301  0.00  0.00    +0.000 HD
BRANCH  30  33
ATOM     33  C   UNL     1       9.094  13.238  17.687  0.00  0.00    +0.000 A 
ATOM     34  C   UNL     1       9.508  11.915  17.890  0.00  0.00    +0.000 A 
ATOM     35  C   UNL     1      10.777  11.637  18.398  0.00  0.00    +0.000 A 
ATOM     36  C   UNL     1      11.639  12.685  18.716  0.00  0.00    +0.000 A 
ATOM     37  C   UNL     1      11.234  14.002  18.495  0.00  0.00    +0.000 A 
ATOM     38 CL   UNL     1      12.282  15.295  18.932  0.00  0.00    +0.000 Cl
ATOM     39  C   UNL     1       9.977  14.285  17.955  0.00  0.00    +0.000 A 
ENDBRANCH  30  33
ENDBRANCH  25  27
ENDBRANCH   7  21
TORSDOF 6
ENDMDL
