MODEL 1
REMARK VINA RESULT:      -7.3      0.000      0.000
REMARK  Name = 
REMARK  11 active torsions:
REMARK  status: ('A' for Active; 'I' for Inactive)
REMARK    1  A    between atoms: C_1  and  O_2
REMARK    2  A    between atoms: O_2  and  C_3
REMARK    3  A    between atoms: C_9  and  C_10
REMARK    4  A    between atoms: C_10  and  C_11
REMARK    5  A    between atoms: C_11  and  N_12
REMARK    6  A    between atoms: C_13  and  C_15
REMARK    7  A    between atoms: C_15  and  C_16
REMARK    8  A    between atoms: C_16  and  C_17
REMARK    9  A    between atoms: C_17  and  C_18
REMARK   10  A    between atoms: C_18  and  C_19
REMARK   11  A    between atoms: N_21  and  O_22
REMARK                            x       y       z     vdW  Elec       q    Type
REMARK                         _______ _______ _______ _____ _____    ______ ____
ROOT
ATOM      1  C   UNL     1       4.768   5.751  18.165  0.00  0.00    +0.000 C 
ENDROOT
BRANCH   1   2
ATOM      2  N   UNL     1       4.035   5.237  19.304  0.00  0.00    +0.000 N 
ATOM      3  C   UNL     1       2.798   5.757  19.617  0.00  0.00    +0.000 C 
ATOM      4  O   UNL     1       2.276   6.678  18.996  0.00  0.00    +0.000 OA
ATOM      5  H   UNL     1       4.358   4.391  19.759  0.00  0.00    +0.000 HD
BRANCH   3   6
ATOM      6  C   UNL     1       2.099   5.074  20.768  0.00  0.00    +0.000 C 
BRANCH   6   7
ATOM      7  C   UNL     1       0.929   4.212  20.301  0.00  0.00    +0.000 C 
BRANCH   7   8
ATOM      8  C   UNL     1       1.192   3.519  18.959  0.00  0.00    +0.000 C 
BRANCH   8   9
ATOM      9  C   UNL     1       1.616   2.063  19.087  0.00  0.00    +0.000 C 
BRANCH   9  10
ATOM     10  C   UNL     1       3.107   1.867  18.887  0.00  0.00    +0.000 C 
ATOM     11  O   UNL     1       3.630   1.603  17.814  0.00  0.00    +0.000 OA
ATOM     12  N   UNL     1       3.827   2.079  20.035  0.00  0.00    +0.000 N 
ATOM     13  H   UNL     1       3.443   2.088  20.967  0.00  0.00    +0.000 HD
BRANCH  12  14
ATOM     14  O   UNL     1       5.220   1.918  19.929  0.00  0.00    +0.000 OA
ATOM     15  H   UNL     1       5.310   1.384  19.102  0.00  0.00    +0.000 HD
ENDBRANCH  12  14
ENDBRANCH   9  10
ENDBRANCH   8   9
ENDBRANCH   7   8
ENDBRANCH   6   7
ENDBRANCH   3   6
ENDBRANCH   1   2
BRANCH   1  16
ATOM     16  C   UNL     1       4.680   4.890  16.905  0.00  0.00    +0.000 C 
BRANCH  16  23
ATOM     17  C   UNL     1       5.530   3.476  12.488  0.00  0.00    +0.000 A 
ATOM     18  C   UNL     1       6.760   3.928  12.013  0.00  0.00    +0.000 A 
ATOM     19  C   UNL     1       7.609   4.690  12.826  0.00  0.00    +0.000 A 
ATOM     20  C   UNL     1       7.174   4.990  14.122  0.00  0.00    +0.000 A 
ATOM     21  N   UNL     1       7.805   5.685  15.124  0.00  0.00    +0.000 N 
ATOM     22  C   UNL     1       7.005   5.746  16.232  0.00  0.00    +0.000 A 
ATOM     23  C   UNL     1       5.824   5.082  15.957  0.00  0.00    +0.000 A 
ATOM     24  C   UNL     1       5.935   4.586  14.616  0.00  0.00    +0.000 A 
ATOM     25  C   UNL     1       5.099   3.824  13.775  0.00  0.00    +0.000 A 
ATOM     26  H   UNL     1       8.733   6.078  15.052  0.00  0.00    +0.000 HD
BRANCH  17  28
ATOM     27  C   UNL     1       3.794   3.445  10.849  0.00  0.00    +0.000 C 
ATOM     28  O   UNL     1       4.623   2.740  11.769  0.00  0.00    +0.000 OA
ENDBRANCH  17  28
ENDBRANCH  16  23
ENDBRANCH   1  16
TORSDOF 10
ENDMDL
MODEL 2
REMARK VINA RESULT:      -7.3      2.092      7.105
REMARK  Name = 
REMARK  11 active torsions:
REMARK  status: ('A' for Active; 'I' for Inactive)
REMARK    1  A    between atoms: C_1  and  O_2
REMARK    2  A    between atoms: O_2  and  C_3
REMARK    3  A    between atoms: C_9  and  C_10
REMARK    4  A    between atoms: C_10  and  C_11
REMARK    5  A    between atoms: C_11  and  N_12
REMARK    6  A    between atoms: C_13  and  C_15
REMARK    7  A    between atoms: C_15  and  C_16
REMARK    8  A    between atoms: C_16  and  C_17
REMARK    9  A    between atoms: C_17  and  C_18
REMARK   10  A    between atoms: C_18  and  C_19
REMARK   11  A    between atoms: N_21  and  O_22
REMARK                            x       y       z     vdW  Elec       q    Type
REMARK                         _______ _______ _______ _____ _____    ______ ____
ROOT
ATOM      1  C   UNL     1       3.764   1.901  18.074  0.00  0.00    +0.000 C 
ENDROOT
BRANCH   1   2
ATOM      2  N   UNL     1       4.560   2.890  17.378  0.00  0.00    +0.000 N 
ATOM      3  C   UNL     1       5.386   3.733  18.089  0.00  0.00    +0.000 C 
ATOM      4  O   UNL     1       5.466   3.725  19.314  0.00  0.00    +0.000 OA
ATOM      5  H   UNL     1       4.634   2.843  16.368  0.00  0.00    +0.000 HD
BRANCH   3   6
ATOM      6  C   UNL     1       6.231   4.654  17.241  0.00  0.00    +0.000 C 
BRANCH   6   7
ATOM      7  C   UNL     1       5.382   5.636  16.439  0.00  0.00    +0.000 C 
BRANCH   7   8
ATOM      8  C   UNL     1       5.160   5.194  14.988  0.00  0.00    +0.000 C 
BRANCH   8   9
ATOM      9  C   UNL     1       6.143   4.136  14.507  0.00  0.00    +0.000 C 
BRANCH   9  10
ATOM     10  C   UNL     1       7.087   4.657  13.439  0.00  0.00    +0.000 C 
ATOM     11  O   UNL     1       7.005   4.379  12.251  0.00  0.00    +0.000 OA
ATOM     12  N   UNL     1       8.017   5.533  13.938  0.00  0.00    +0.000 N 
ATOM     13  H   UNL     1       8.259   5.630  14.912  0.00  0.00    +0.000 HD
BRANCH  12  14
ATOM     14  O   UNL     1       8.929   6.062  13.006  0.00  0.00    +0.000 OA
ATOM     15  H   UNL     1       8.837   7.036  13.147  0.00  0.00    +0.000 HD
ENDBRANCH  12  14
ENDBRANCH   9  10
ENDBRANCH   8   9
ENDBRANCH   7   8
ENDBRANCH   6   7
ENDBRANCH   3   6
ENDBRANCH   1   2
BRANCH   1  16
ATOM     16  C   UNL     1       2.264   2.194  18.108  0.00  0.00    +0.000 C 
BRANCH  16  23
ATOM     17  C   UNL     1       2.390   6.841  18.904  0.00  0.00    +0.000 A 
ATOM     18  C   UNL     1       1.854   7.181  20.145  0.00  0.00    +0.000 A 
ATOM     19  C   UNL     1       1.376   6.196  21.018  0.00  0.00    +0.000 A 
ATOM     20  C   UNL     1       1.445   4.863  20.596  0.00  0.00    +0.000 A 
ATOM     21  N   UNL     1       1.079   3.712  21.250  0.00  0.00    +0.000 N 
ATOM     22  C   UNL     1       1.314   2.623  20.455  0.00  0.00    +0.000 A 
ATOM     23  C   UNL     1       1.841   3.062  19.255  0.00  0.00    +0.000 A 
ATOM     24  C   UNL     1       1.939   4.490  19.348  0.00  0.00    +0.000 A 
ATOM     25  C   UNL     1       2.409   5.503  18.487  0.00  0.00    +0.000 A 
ATOM     26  H   UNL     1       0.706   3.680  22.188  0.00  0.00    +0.000 HD
BRANCH  17  28
ATOM     27  C   UNL     1       2.253   9.013  17.923  0.00  0.00    +0.000 C 
ATOM     28  O   UNL     1       2.867   7.728  17.974  0.00  0.00    +0.000 OA
ENDBRANCH  17  28
ENDBRANCH  16  23
ENDBRANCH   1  16
TORSDOF 10
ENDMDL
MODEL 3
REMARK VINA RESULT:      -7.2      1.150      1.482
REMARK  Name = 
REMARK  11 active torsions:
REMARK  status: ('A' for Active; 'I' for Inactive)
REMARK    1  A    between atoms: C_1  and  O_2
REMARK    2  A    between atoms: O_2  and  C_3
REMARK    3  A    between atoms: C_9  and  C_10
REMARK    4  A    between atoms: C_10  and  C_11
REMARK    5  A    between atoms: C_11  and  N_12
REMARK    6  A    between atoms: C_13  and  C_15
REMARK    7  A    between atoms: C_15  and  C_16
REMARK    8  A    between atoms: C_16  and  C_17
REMARK    9  A    between atoms: C_17  and  C_18
REMARK   10  A    between atoms: C_18  and  C_19
REMARK   11  A    between atoms: N_21  and  O_22
REMARK                            x       y       z     vdW  Elec       q    Type
REMARK                         _______ _______ _______ _____ _____    ______ ____
ROOT
ATOM      1  C   UNL     1       3.931   5.412  17.413  0.00  0.00    +0.000 C 
ENDROOT
BRANCH   1   2
ATOM      2  N   UNL     1       3.118   5.019  18.546  0.00  0.00    +0.000 N 
ATOM      3  C   UNL     1       2.568   5.982  19.364  0.00  0.00    +0.000 C 
ATOM      4  O   UNL     1       2.757   7.185  19.213  0.00  0.00    +0.000 OA
ATOM      5  H   UNL     1       2.820   4.054  18.630  0.00  0.00    +0.000 HD
BRANCH   3   6
ATOM      6  C   UNL     1       1.667   5.447  20.452  0.00  0.00    +0.000 C 
BRANCH   6   7
ATOM      7  C   UNL     1       2.439   4.636  21.489  0.00  0.00    +0.000 C 
BRANCH   7   8
ATOM      8  C   UNL     1       2.387   3.126  21.230  0.00  0.00    +0.000 C 
BRANCH   8   9
ATOM      9  C   UNL     1       1.057   2.638  20.676  0.00  0.00    +0.000 C 
BRANCH   9  10
ATOM     10  C   UNL     1       1.145   2.224  19.219  0.00  0.00    +0.000 C 
ATOM     11  O   UNL     1       0.209   2.263  18.433  0.00  0.00    +0.000 OA
ATOM     12  N   UNL     1       2.413   1.854  18.850  0.00  0.00    +0.000 N 
ATOM     13  H   UNL     1       3.154   1.606  19.488  0.00  0.00    +0.000 HD
BRANCH  12  14
ATOM     14  O   UNL     1       2.576   1.459  17.510  0.00  0.00    +0.000 OA
ATOM     15  H   UNL     1       3.548   1.573  17.371  0.00  0.00    +0.000 HD
ENDBRANCH  12  14
ENDBRANCH   9  10
ENDBRANCH   8   9
ENDBRANCH   7   8
ENDBRANCH   6   7
ENDBRANCH   3   6
ENDBRANCH   1   2
BRANCH   1  16
ATOM     16  C   UNL     1       4.590   4.253  16.665  0.00  0.00    +0.000 C 
BRANCH  16  23
ATOM     17  C   UNL     1       5.756   3.341  12.188  0.00  0.00    +0.000 A 
ATOM     18  C   UNL     1       6.932   3.984  11.804  0.00  0.00    +0.000 A 
ATOM     19  C   UNL     1       7.649   4.775  12.711  0.00  0.00    +0.000 A 
ATOM     20  C   UNL     1       7.138   4.905  14.008  0.00  0.00    +0.000 A 
ATOM     21  N   UNL     1       7.642   5.586  15.089  0.00  0.00    +0.000 N 
ATOM     22  C   UNL     1       6.805   5.451  16.163  0.00  0.00    +0.000 A 
ATOM     23  C   UNL     1       5.729   4.669  15.785  0.00  0.00    +0.000 A 
ATOM     24  C   UNL     1       5.946   4.307  14.414  0.00  0.00    +0.000 A 
ATOM     25  C   UNL     1       5.243   3.520  13.480  0.00  0.00    +0.000 A 
ATOM     26  H   UNL     1       8.512   6.098  15.088  0.00  0.00    +0.000 HD
BRANCH  17  28
ATOM     27  C   UNL     1       3.792   3.152  10.843  0.00  0.00    +0.000 C 
ATOM     28  O   UNL     1       4.975   2.561  11.374  0.00  0.00    +0.000 OA
ENDBRANCH  17  28
ENDBRANCH  16  23
ENDBRANCH   1  16
TORSDOF 10
ENDMDL
MODEL 4
REMARK VINA RESULT:      -7.2      4.950      8.807
REMARK  Name = 
REMARK  11 active torsions:
REMARK  status: ('A' for Active; 'I' for Inactive)
REMARK    1  A    between atoms: C_1  and  O_2
REMARK    2  A    between atoms: O_2  and  C_3
REMARK    3  A    between atoms: C_9  and  C_10
REMARK    4  A    between atoms: C_10  and  C_11
REMARK    5  A    between atoms: C_11  and  N_12
REMARK    6  A    between atoms: C_13  and  C_15
REMARK    7  A    between atoms: C_15  and  C_16
REMARK    8  A    between atoms: C_16  and  C_17
REMARK    9  A    between atoms: C_17  and  C_18
REMARK   10  A    between atoms: C_18  and  C_19
REMARK   11  A    between atoms: N_21  and  O_22
REMARK                            x       y       z     vdW  Elec       q    Type
REMARK                         _______ _______ _______ _____ _____    ______ ____
ROOT
ATOM      1  C   UNL     1       4.849   6.344  16.531  0.00  0.00    +0.000 C 
ENDROOT
BRANCH   1   2
ATOM      2  N   UNL     1       5.813   6.875  17.473  0.00  0.00    +0.000 N 
ATOM      3  C   UNL     1       7.161   6.798  17.195  0.00  0.00    +0.000 C 
ATOM      4  O   UNL     1       7.613   6.260  16.188  0.00  0.00    +0.000 OA
ATOM      5  H   UNL     1       5.488   7.447  18.244  0.00  0.00    +0.000 HD
BRANCH   3   6
ATOM      6  C   UNL     1       8.055   7.469  18.210  0.00  0.00    +0.000 C 
BRANCH   6   7
ATOM      7  C   UNL     1       8.218   8.961  17.935  0.00  0.00    +0.000 C 
BRANCH   7   8
ATOM      8  C   UNL     1       9.072   9.676  18.989  0.00  0.00    +0.000 C 
BRANCH   8   9
ATOM      9  C   UNL     1       9.185  11.179  18.777  0.00  0.00    +0.000 C 
BRANCH   9  10
ATOM     10  C   UNL     1      10.624  11.647  18.653  0.00  0.00    +0.000 C 
ATOM     11  O   UNL     1      11.385  11.794  19.598  0.00  0.00    +0.000 OA
ATOM     12  N   UNL     1      11.008  11.832  17.349  0.00  0.00    +0.000 N 
ATOM     13  H   UNL     1      10.380  11.929  16.567  0.00  0.00    +0.000 HD
BRANCH  12  14
ATOM     14  O   UNL     1      12.332  12.264  17.153  0.00  0.00    +0.000 OA
ATOM     15  H   UNL     1      12.352  13.121  17.645  0.00  0.00    +0.000 HD
ENDBRANCH  12  14
ENDBRANCH   9  10
ENDBRANCH   8   9
ENDBRANCH   7   8
ENDBRANCH   6   7
ENDBRANCH   3   6
ENDBRANCH   1   2
BRANCH   1  16
ATOM     16  C   UNL     1       3.955   5.236  17.085  0.00  0.00    +0.000 C 
BRANCH  16  23
ATOM     17  C   UNL     1       1.605   8.947  18.802  0.00  0.00    +0.000 A 
ATOM     18  C   UNL     1       1.223   8.764  20.130  0.00  0.00    +0.000 A 
ATOM     19  C   UNL     1       1.559   7.594  20.822  0.00  0.00    +0.000 A 
ATOM     20  C   UNL     1       2.280   6.613  20.131  0.00  0.00    +0.000 A 
ATOM     21  N   UNL     1       2.758   5.401  20.566  0.00  0.00    +0.000 N 
ATOM     22  C   UNL     1       3.403   4.756  19.547  0.00  0.00    +0.000 A 
ATOM     23  C   UNL     1       3.350   5.554  18.419  0.00  0.00    +0.000 A 
ATOM     24  C   UNL     1       2.646   6.746  18.793  0.00  0.00    +0.000 A 
ATOM     25  C   UNL     1       2.291   7.932  18.120  0.00  0.00    +0.000 A 
ATOM     26  H   UNL     1       2.657   5.050  21.507  0.00  0.00    +0.000 HD
BRANCH  17  28
ATOM     27  C   UNL     1       0.412  11.003  18.583  0.00  0.00    +0.000 C 
ATOM     28  O   UNL     1       1.312  10.044  18.034  0.00  0.00    +0.000 OA
ENDBRANCH  17  28
ENDBRANCH  16  23
ENDBRANCH   1  16
TORSDOF 10
ENDMDL
MODEL 5
REMARK VINA RESULT:      -7.2      1.104      2.966
REMARK  Name = 
REMARK  11 active torsions:
REMARK  status: ('A' for Active; 'I' for Inactive)
REMARK    1  A    between atoms: C_1  and  O_2
REMARK    2  A    between atoms: O_2  and  C_3
REMARK    3  A    between atoms: C_9  and  C_10
REMARK    4  A    between atoms: C_10  and  C_11
REMARK    5  A    between atoms: C_11  and  N_12
REMARK    6  A    between atoms: C_13  and  C_15
REMARK    7  A    between atoms: C_15  and  C_16
REMARK    8  A    between atoms: C_16  and  C_17
REMARK    9  A    between atoms: C_17  and  C_18
REMARK   10  A    between atoms: C_18  and  C_19
REMARK   11  A    between atoms: N_21  and  O_22
REMARK                            x       y       z     vdW  Elec       q    Type
REMARK                         _______ _______ _______ _____ _____    ______ ____
ROOT
ATOM      1  C   UNL     1       4.646   3.572  17.494  0.00  0.00    +0.000 C 
ENDROOT
BRANCH   1   2
ATOM      2  N   UNL     1       3.370   3.074  17.965  0.00  0.00    +0.000 N 
ATOM      3  C   UNL     1       3.313   2.286  19.094  0.00  0.00    +0.000 C 
ATOM      4  O   UNL     1       4.306   1.938  19.725  0.00  0.00    +0.000 OA
ATOM      5  H   UNL     1       2.516   3.445  17.564  0.00  0.00    +0.000 HD
BRANCH   3   6
ATOM      6  C   UNL     1       1.918   1.909  19.532  0.00  0.00    +0.000 C 
BRANCH   6   7
ATOM      7  C   UNL     1       1.559   2.510  20.888  0.00  0.00    +0.000 C 
BRANCH   7   8
ATOM      8  C   UNL     1       1.117   3.975  20.797  0.00  0.00    +0.000 C 
BRANCH   8   9
ATOM      9  C   UNL     1       2.250   4.976  20.975  0.00  0.00    +0.000 C 
BRANCH   9  10
ATOM     10  C   UNL     1       2.193   6.111  19.969  0.00  0.00    +0.000 C 
ATOM     11  O   UNL     1       2.344   5.972  18.763  0.00  0.00    +0.000 OA
ATOM     12  N   UNL     1       1.890   7.316  20.549  0.00  0.00    +0.000 N 
ATOM     13  H   UNL     1       1.964   7.522  21.533  0.00  0.00    +0.000 HD
BRANCH  12  14
ATOM     14  O   UNL     1       1.817   8.419  19.678  0.00  0.00    +0.000 OA
ATOM     15  H   UNL     1       1.079   8.948  20.066  0.00  0.00    +0.000 HD
ENDBRANCH  12  14
ENDBRANCH   9  10
ENDBRANCH   8   9
ENDBRANCH   7   8
ENDBRANCH   6   7
ENDBRANCH   3   6
ENDBRANCH   1   2
BRANCH   1  16
ATOM     16  C   UNL     1       4.559   4.793  16.579  0.00  0.00    +0.000 C 
BRANCH  16  23
ATOM     17  C   UNL     1       5.584   3.355  12.207  0.00  0.00    +0.000 A 
ATOM     18  C   UNL     1       6.841   3.788  11.787  0.00  0.00    +0.000 A 
ATOM     19  C   UNL     1       7.664   4.539  12.635  0.00  0.00    +0.000 A 
ATOM     20  C   UNL     1       7.176   4.849  13.910  0.00  0.00    +0.000 A 
ATOM     21  N   UNL     1       7.773   5.538  14.938  0.00  0.00    +0.000 N 
ATOM     22  C   UNL     1       6.924   5.614  16.009  0.00  0.00    +0.000 A 
ATOM     23  C   UNL     1       5.747   4.966  15.682  0.00  0.00    +0.000 A 
ATOM     24  C   UNL     1       5.911   4.465  14.349  0.00  0.00    +0.000 A 
ATOM     25  C   UNL     1       5.102   3.713  13.473  0.00  0.00    +0.000 A 
ATOM     26  H   UNL     1       8.708   5.917  14.906  0.00  0.00    +0.000 HD
BRANCH  17  28
ATOM     27  C   UNL     1       3.633   3.345  10.831  0.00  0.00    +0.000 C 
ATOM     28  O   UNL     1       4.699   2.631  11.450  0.00  0.00    +0.000 OA
ENDBRANCH  17  28
ENDBRANCH  16  23
ENDBRANCH   1  16
TORSDOF 10
ENDMDL
MODEL 6
REMARK VINA RESULT:      -7.1      2.275      7.065
REMARK  Name = 
REMARK  11 active torsions:
REMARK  status: ('A' for Active; 'I' for Inactive)
REMARK    1  A    between atoms: C_1  and  O_2
REMARK    2  A    between atoms: O_2  and  C_3
REMARK    3  A    between atoms: C_9  and  C_10
REMARK    4  A    between atoms: C_10  and  C_11
REMARK    5  A    between atoms: C_11  and  N_12
REMARK    6  A    between atoms: C_13  and  C_15
REMARK    7  A    between atoms: C_15  and  C_16
REMARK    8  A    between atoms: C_16  and  C_17
REMARK    9  A    between atoms: C_17  and  C_18
REMARK   10  A    between atoms: C_18  and  C_19
REMARK   11  A    between atoms: N_21  and  O_22
REMARK                            x       y       z     vdW  Elec       q    Type
REMARK                         _______ _______ _______ _____ _____    ______ ____
ROOT
ATOM      1  C   UNL     1       4.443   7.275  17.313  0.00  0.00    +0.000 C 
ENDROOT
BRANCH   1   2
ATOM      2  N   UNL     1       4.776   6.097  16.538  0.00  0.00    +0.000 N 
ATOM      3  C   UNL     1       6.018   5.515  16.672  0.00  0.00    +0.000 C 
ATOM      4  O   UNL     1       6.899   5.963  17.400  0.00  0.00    +0.000 OA
ATOM      5  H   UNL     1       4.043   5.613  16.034  0.00  0.00    +0.000 HD
BRANCH   3   6
ATOM      6  C   UNL     1       6.208   4.243  15.881  0.00  0.00    +0.000 C 
BRANCH   6   7
ATOM      7  C   UNL     1       6.682   4.518  14.456  0.00  0.00    +0.000 C 
BRANCH   7   8
ATOM      8  C   UNL     1       5.784   3.880  13.390  0.00  0.00    +0.000 C 
BRANCH   8   9
ATOM      9  C   UNL     1       6.544   3.310  12.201  0.00  0.00    +0.000 C 
BRANCH   9  10
ATOM     10  C   UNL     1       5.826   2.141  11.552  0.00  0.00    +0.000 C 
ATOM     11  O   UNL     1       4.662   2.168  11.177  0.00  0.00    +0.000 OA
ATOM     12  N   UNL     1       6.643   1.054  11.370  0.00  0.00    +0.000 N 
ATOM     13  H   UNL     1       7.523   0.904  11.839  0.00  0.00    +0.000 HD
BRANCH  12  14
ATOM     14  O   UNL     1       6.048  -0.071  10.771  0.00  0.00    +0.000 OA
ATOM     15  H   UNL     1       5.202   0.299  10.417  0.00  0.00    +0.000 HD
ENDBRANCH  12  14
ENDBRANCH   9  10
ENDBRANCH   8   9
ENDBRANCH   7   8
ENDBRANCH   6   7
ENDBRANCH   3   6
ENDBRANCH   1   2
BRANCH   1  16
ATOM     16  C   UNL     1       2.949   7.467  17.575  0.00  0.00    +0.000 C 
BRANCH  16  23
ATOM     17  C   UNL     1       2.101   3.032  18.935  0.00  0.00    +0.000 A 
ATOM     18  C   UNL     1       1.673   2.956  20.259  0.00  0.00    +0.000 A 
ATOM     19  C   UNL     1       1.509   4.113  21.030  0.00  0.00    +0.000 A 
ATOM     20  C   UNL     1       1.800   5.344  20.429  0.00  0.00    +0.000 A 
ATOM     21  N   UNL     1       1.703   6.617  20.936  0.00  0.00    +0.000 N 
ATOM     22  C   UNL     1       2.103   7.529  19.998  0.00  0.00    +0.000 A 
ATOM     23  C   UNL     1       2.472   6.848  18.853  0.00  0.00    +0.000 A 
ATOM     24  C   UNL     1       2.266   5.454  19.121  0.00  0.00    +0.000 A 
ATOM     25  C   UNL     1       2.427   4.272  18.369  0.00  0.00    +0.000 A 
ATOM     26  H   UNL     1       1.370   6.840  21.863  0.00  0.00    +0.000 HD
BRANCH  17  28
ATOM     27  C   UNL     1       3.659   1.632  17.788  0.00  0.00    +0.000 C 
ATOM     28  O   UNL     1       2.309   1.961  18.104  0.00  0.00    +0.000 OA
ENDBRANCH  17  28
ENDBRANCH  16  23
ENDBRANCH   1  16
TORSDOF 10
ENDMDL
MODEL 7
REMARK VINA RESULT:      -7.0      5.269      9.136
REMARK  Name = 
REMARK  11 active torsions:
REMARK  status: ('A' for Active; 'I' for Inactive)
REMARK    1  A    between atoms: C_1  and  O_2
REMARK    2  A    between atoms: O_2  and  C_3
REMARK    3  A    between atoms: C_9  and  C_10
REMARK    4  A    between atoms: C_10  and  C_11
REMARK    5  A    between atoms: C_11  and  N_12
REMARK    6  A    between atoms: C_13  and  C_15
REMARK    7  A    between atoms: C_15  and  C_16
REMARK    8  A    between atoms: C_16  and  C_17
REMARK    9  A    between atoms: C_17  and  C_18
REMARK   10  A    between atoms: C_18  and  C_19
REMARK   11  A    between atoms: N_21  and  O_22
REMARK                            x       y       z     vdW  Elec       q    Type
REMARK                         _______ _______ _______ _____ _____    ______ ____
ROOT
ATOM      1  C   UNL     1       6.257   5.862  16.885  0.00  0.00    +0.000 C 
ENDROOT
BRANCH   1   2
ATOM      2  N   UNL     1       6.679   7.247  16.913  0.00  0.00    +0.000 N 
ATOM      3  C   UNL     1       7.639   7.655  17.814  0.00  0.00    +0.000 C 
ATOM      4  O   UNL     1       8.149   6.907  18.642  0.00  0.00    +0.000 OA
ATOM      5  H   UNL     1       6.392   7.867  16.164  0.00  0.00    +0.000 HD
BRANCH   3   6
ATOM      6  C   UNL     1       8.057   9.101  17.680  0.00  0.00    +0.000 C 
BRANCH   6   7
ATOM      7  C   UNL     1       8.935   9.555  18.843  0.00  0.00    +0.000 C 
BRANCH   7   8
ATOM      8  C   UNL     1       9.306  11.041  18.771  0.00  0.00    +0.000 C 
BRANCH   8   9
ATOM      9  C   UNL     1      10.410  11.356  17.772  0.00  0.00    +0.000 C 
BRANCH   9  10
ATOM     10  C   UNL     1      10.752  12.833  17.724  0.00  0.00    +0.000 C 
ATOM     11  O   UNL     1      11.853  13.296  17.989  0.00  0.00    +0.000 OA
ATOM     12  N   UNL     1       9.705  13.604  17.286  0.00  0.00    +0.000 N 
ATOM     13  H   UNL     1       8.741  13.311  17.258  0.00  0.00    +0.000 HD
BRANCH  12  14
ATOM     14  O   UNL     1       9.947  14.988  17.211  0.00  0.00    +0.000 OA
ATOM     15  H   UNL     1       9.325  15.349  17.889  0.00  0.00    +0.000 HD
ENDBRANCH  12  14
ENDBRANCH   9  10
ENDBRANCH   8   9
ENDBRANCH   7   8
ENDBRANCH   6   7
ENDBRANCH   3   6
ENDBRANCH   1   2
BRANCH   1  16
ATOM     16  C   UNL     1       4.749   5.654  16.747  0.00  0.00    +0.000 C 
BRANCH  16  23
ATOM     17  C   UNL     1       1.868   8.892  18.605  0.00  0.00    +0.000 A 
ATOM     18  C   UNL     1       1.396   8.523  19.863  0.00  0.00    +0.000 A 
ATOM     19  C   UNL     1       1.799   7.321  20.459  0.00  0.00    +0.000 A 
ATOM     20  C   UNL     1       2.680   6.502  19.743  0.00  0.00    +0.000 A 
ATOM     21  N   UNL     1       3.249   5.302  20.094  0.00  0.00    +0.000 N 
ATOM     22  C   UNL     1       4.046   4.845  19.080  0.00  0.00    +0.000 A 
ATOM     23  C   UNL     1       4.001   5.756  18.041  0.00  0.00    +0.000 A 
ATOM     24  C   UNL     1       3.142   6.822  18.468  0.00  0.00    +0.000 A 
ATOM     25  C   UNL     1       2.716   8.036  17.890  0.00  0.00    +0.000 A 
ATOM     26  H   UNL     1       3.108   4.838  20.979  0.00  0.00    +0.000 HD
BRANCH  17  28
ATOM     27  C   UNL     1       0.987  11.109  18.698  0.00  0.00    +0.000 C 
ATOM     28  O   UNL     1       1.522  10.035  17.930  0.00  0.00    +0.000 OA
ENDBRANCH  17  28
ENDBRANCH  16  23
ENDBRANCH   1  16
TORSDOF 10
ENDMDL
MODEL 8
REMARK VINA RESULT:      -7.0      1.833      2.879
REMARK  Name = 
REMARK  11 active torsions:
REMARK  status: ('A' for Active; 'I' for Inactive)
REMARK    1  A    between atoms: C_1  and  O_2
REMARK    2  A    between atoms: O_2  and  C_3
REMARK    3  A    between atoms: C_9  and  C_10
REMARK    4  A    between atoms: C_10  and  C_11
REMARK    5  A    between atoms: C_11  and  N_12
REMARK    6  A    between atoms: C_13  and  C_15
REMARK    7  A    between atoms: C_15  and  C_16
REMARK    8  A    between atoms: C_16  and  C_17
REMARK    9  A    between atoms: C_17  and  C_18
REMARK   10  A    between atoms: C_18  and  C_19
REMARK   11  A    between atoms: N_21  and  O_22
REMARK                            x       y       z     vdW  Elec       q    Type
REMARK                         _______ _______ _______ _____ _____    ______ ____
ROOT
ATOM      1  C   UNL     1       3.748   3.686  16.808  0.00  0.00    +0.000 C 
ENDROOT
BRANCH   1   2
ATOM      2  N   UNL     1       2.893   2.965  17.729  0.00  0.00    +0.000 N 
ATOM      3  C   UNL     1       1.559   3.295  17.831  0.00  0.00    +0.000 C 
ATOM      4  O   UNL     1       1.040   4.212  17.201  0.00  0.00    +0.000 OA
ATOM      5  H   UNL     1       3.239   2.117  18.164  0.00  0.00    +0.000 HD
BRANCH   3   6
ATOM      6  C   UNL     1       0.758   2.410  18.756  0.00  0.00    +0.000 C 
BRANCH   6   7
ATOM      7  C   UNL     1       1.177   2.575  20.215  0.00  0.00    +0.000 C 
BRANCH   7   8
ATOM      8  C   UNL     1       1.036   4.015  20.721  0.00  0.00    +0.000 C 
BRANCH   8   9
ATOM      9  C   UNL     1       2.360   4.683  21.064  0.00  0.00    +0.000 C 
BRANCH   9  10
ATOM     10  C   UNL     1       2.670   5.864  20.164  0.00  0.00    +0.000 C 
ATOM     11  O   UNL     1       3.482   5.841  19.249  0.00  0.00    +0.000 OA
ATOM     12  N   UNL     1       1.894   6.960  20.443  0.00  0.00    +0.000 N 
ATOM     13  H   UNL     1       1.376   7.102  21.297  0.00  0.00    +0.000 HD
BRANCH  12  14
ATOM     14  O   UNL     1       2.122   8.097  19.647  0.00  0.00    +0.000 OA
ATOM     15  H   UNL     1       2.676   8.663  20.239  0.00  0.00    +0.000 HD
ENDBRANCH  12  14
ENDBRANCH   9  10
ENDBRANCH   8   9
ENDBRANCH   7   8
ENDBRANCH   6   7
ENDBRANCH   3   6
ENDBRANCH   1   2
BRANCH   1  16
ATOM     16  C   UNL     1       5.242   3.404  16.965  0.00  0.00    +0.000 C 
BRANCH  16  23
ATOM     17  C   UNL     1       6.091   3.306  12.328  0.00  0.00    +0.000 A 
ATOM     18  C   UNL     1       6.990   4.295  11.932  0.00  0.00    +0.000 A 
ATOM     19  C   UNL     1       7.560   5.167  12.869  0.00  0.00    +0.000 A 
ATOM     20  C   UNL     1       7.186   5.017  14.209  0.00  0.00    +0.000 A 
ATOM     21  N   UNL     1       7.602   5.706  15.322  0.00  0.00    +0.000 N 
ATOM     22  C   UNL     1       6.966   5.231  16.436  0.00  0.00    +0.000 A 
ATOM     23  C   UNL     1       6.112   4.213  16.053  0.00  0.00    +0.000 A 
ATOM     24  C   UNL     1       6.261   4.065  14.634  0.00  0.00    +0.000 A 
ATOM     25  C   UNL     1       5.700   3.204  13.670  0.00  0.00    +0.000 A 
ATOM     26  H   UNL     1       8.291   6.445  15.314  0.00  0.00    +0.000 HD
BRANCH  17  28
ATOM     27  C   UNL     1       6.123   1.175  11.252  0.00  0.00    +0.000 C 
ATOM     28  O   UNL     1       5.467   2.418  11.489  0.00  0.00    +0.000 OA
ENDBRANCH  17  28
ENDBRANCH  16  23
ENDBRANCH   1  16
TORSDOF 10
ENDMDL
MODEL 9
REMARK VINA RESULT:      -7.0      1.031      1.353
REMARK  Name = 
REMARK  11 active torsions:
REMARK  status: ('A' for Active; 'I' for Inactive)
REMARK    1  A    between atoms: C_1  and  O_2
REMARK    2  A    between atoms: O_2  and  C_3
REMARK    3  A    between atoms: C_9  and  C_10
REMARK    4  A    between atoms: C_10  and  C_11
REMARK    5  A    between atoms: C_11  and  N_12
REMARK    6  A    between atoms: C_13  and  C_15
REMARK    7  A    between atoms: C_15  and  C_16
REMARK    8  A    between atoms: C_16  and  C_17
REMARK    9  A    between atoms: C_17  and  C_18
REMARK   10  A    between atoms: C_18  and  C_19
REMARK   11  A    between atoms: N_21  and  O_22
REMARK                            x       y       z     vdW  Elec       q    Type
REMARK                         _______ _______ _______ _____ _____    ______ ____
ROOT
ATOM      1  C   UNL     1       3.712   5.526  17.547  0.00  0.00    +0.000 C 
ENDROOT
BRANCH   1   2
ATOM      2  N   UNL     1       2.576   5.123  18.350  0.00  0.00    +0.000 N 
ATOM      3  C   UNL     1       2.321   5.756  19.548  0.00  0.00    +0.000 C 
ATOM      4  O   UNL     1       3.036   6.641  20.009  0.00  0.00    +0.000 OA
ATOM      5  H   UNL     1       1.883   4.501  17.950  0.00  0.00    +0.000 HD
BRANCH   3   6
ATOM      6  C   UNL     1       1.057   5.308  20.243  0.00  0.00    +0.000 C 
BRANCH   6   7
ATOM      7  C   UNL     1       1.077   3.817  20.566  0.00  0.00    +0.000 C 
BRANCH   7   8
ATOM      8  C   UNL     1       2.060   3.458  21.686  0.00  0.00    +0.000 C 
BRANCH   8   9
ATOM      9  C   UNL     1       2.918   2.237  21.389  0.00  0.00    +0.000 C 
BRANCH   9  10
ATOM     10  C   UNL     1       3.470   2.239  19.975  0.00  0.00    +0.000 C 
ATOM     11  O   UNL     1       4.494   2.812  19.635  0.00  0.00    +0.000 OA
ATOM     12  N   UNL     1       2.725   1.470  19.117  0.00  0.00    +0.000 N 
ATOM     13  H   UNL     1       1.781   1.158  19.287  0.00  0.00    +0.000 HD
BRANCH  12  14
ATOM     14  O   UNL     1       3.175   1.419  17.785  0.00  0.00    +0.000 OA
ATOM     15  H   UNL     1       4.151   1.543  17.886  0.00  0.00    +0.000 HD
ENDBRANCH  12  14
ENDBRANCH   9  10
ENDBRANCH   8   9
ENDBRANCH   7   8
ENDBRANCH   6   7
ENDBRANCH   3   6
ENDBRANCH   1   2
BRANCH   1  16
ATOM     16  C   UNL     1       4.323   4.412  16.698  0.00  0.00    +0.000 C 
BRANCH  16  23
ATOM     17  C   UNL     1       5.903   3.473  12.355  0.00  0.00    +0.000 A 
ATOM     18  C   UNL     1       7.100   4.129  12.072  0.00  0.00    +0.000 A 
ATOM     19  C   UNL     1       7.721   4.938  13.031  0.00  0.00    +0.000 A 
ATOM     20  C   UNL     1       7.093   5.074  14.275  0.00  0.00    +0.000 A 
ATOM     21  N   UNL     1       7.487   5.772  15.390  0.00  0.00    +0.000 N 
ATOM     22  C   UNL     1       6.558   5.635  16.385  0.00  0.00    +0.000 A 
ATOM     23  C   UNL     1       5.532   4.835  15.920  0.00  0.00    +0.000 A 
ATOM     24  C   UNL     1       5.877   4.463  14.578  0.00  0.00    +0.000 A 
ATOM     25  C   UNL     1       5.272   3.658  13.592  0.00  0.00    +0.000 A 
ATOM     26  H   UNL     1       8.347   6.297  15.463  0.00  0.00    +0.000 HD
BRANCH  17  28
ATOM     27  C   UNL     1       3.887   3.079  11.136  0.00  0.00    +0.000 C 
ATOM     28  O   UNL     1       5.209   2.674  11.482  0.00  0.00    +0.000 OA
ENDBRANCH  17  28
ENDBRANCH  16  23
ENDBRANCH   1  16
TORSDOF 10
ENDMDL
