MODEL 1
REMARK VINA RESULT:      -7.1      0.000      0.000
REMARK  Name = 
REMARK  5 active torsions:
REMARK  status: ('A' for Active; 'I' for Inactive)
REMARK    1  A    between atoms: C_1  and  N_2
REMARK    2  A    between atoms: C_3  and  C_4
REMARK    3  A    between atoms: C_4  and  N_5
REMARK    4  A    between atoms: C_10  and  C_11
REMARK    5  A    between atoms: C_19  and  C_20
REMARK                            x       y       z     vdW  Elec       q    Type
REMARK                         _______ _______ _______ _____ _____    ______ ____
ROOT
ATOM      1  N   UNL     1       2.595   6.518  20.429  0.00  0.00    +0.000 N 
ATOM      2  C   UNL     1       2.002   7.672  19.899  0.00  0.00    +0.000 A 
ATOM      3  C   UNL     1       2.219   8.126  18.593  0.00  0.00    +0.000 A 
ATOM      4  N   UNL     1       1.629   9.224  18.064  0.00  0.00    +0.000 NA
ATOM      5  C   UNL     1       0.815   9.892  18.915  0.00  0.00    +0.000 A 
ATOM      6  C   UNL     1       0.612   9.493  20.233  0.00  0.00    +0.000 A 
ATOM      7  N   UNL     1       1.212   8.377  20.737  0.00  0.00    +0.000 NA
ATOM      8  H   UNL     1       2.113   6.361  21.315  0.00  0.00    +0.000 HD
ENDROOT
BRANCH   6   9
ATOM      9  C   UNL     1      -0.204  10.252  21.188  0.00  0.00    +0.000 A 
ATOM     10  C   UNL     1      -0.447   9.970  22.522  0.00  0.00    +0.000 A 
ATOM     11  C   UNL     1      -1.279  10.941  23.154  0.00  0.00    +0.000 A 
ATOM     12  C   UNL     1      -1.669  11.929  22.279  0.00  0.00    +0.000 A 
ATOM     13  S   UNL     1      -1.025  11.688  20.716  0.00  0.00    +0.000 S 
ENDBRANCH   6   9
BRANCH   1  14
ATOM     14  C   UNL     1       2.557   5.349  19.551  0.00  0.00    +0.000 C 
BRANCH  14  17
ATOM     15  C   UNL     1       2.798   3.487  17.020  0.00  0.00    +0.000 C 
ATOM     16  N   UNL     1       3.828   4.321  17.577  0.00  0.00    +0.000 N 
ATOM     17  C   UNL     1       3.750   5.150  18.671  0.00  0.00    +0.000 A 
ATOM     18  N   UNL     1       4.936   5.687  18.876  0.00  0.00    +0.000 NA
ATOM     19  N   UNL     1       5.796   5.213  17.921  0.00  0.00    +0.000 NA
ATOM     20  C   UNL     1       5.122   4.405  17.130  0.00  0.00    +0.000 A 
BRANCH  20  21
ATOM     21  C   UNL     1       5.733   3.716  15.916  0.00  0.00    +0.000 C 
ATOM     22  C   UNL     1       5.505   4.372  14.566  0.00  0.00    +0.000 C 
ATOM     23  C   UNL     1       6.861   4.410  15.177  0.00  0.00    +0.000 C 
ENDBRANCH  20  21
ENDBRANCH  14  17
ENDBRANCH   1  14
TORSDOF 4
ENDMDL
MODEL 2
REMARK VINA RESULT:      -7.0      1.862      2.951
REMARK  Name = 
REMARK  5 active torsions:
REMARK  status: ('A' for Active; 'I' for Inactive)
REMARK    1  A    between atoms: C_1  and  N_2
REMARK    2  A    between atoms: C_3  and  C_4
REMARK    3  A    between atoms: C_4  and  N_5
REMARK    4  A    between atoms: C_10  and  C_11
REMARK    5  A    between atoms: C_19  and  C_20
REMARK                            x       y       z     vdW  Elec       q    Type
REMARK                         _______ _______ _______ _____ _____    ______ ____
ROOT
ATOM      1  N   UNL     1       4.218   6.851  17.594  0.00  0.00    +0.000 N 
ATOM      2  C   UNL     1       3.356   6.578  18.664  0.00  0.00    +0.000 A 
ATOM      3  C   UNL     1       3.163   5.300  19.200  0.00  0.00    +0.000 A 
ATOM      4  N   UNL     1       2.354   5.033  20.252  0.00  0.00    +0.000 NA
ATOM      5  C   UNL     1       1.698   6.109  20.747  0.00  0.00    +0.000 A 
ATOM      6  C   UNL     1       1.832   7.386  20.209  0.00  0.00    +0.000 A 
ATOM      7  N   UNL     1       2.662   7.629  19.156  0.00  0.00    +0.000 NA
ATOM      8  H   UNL     1       4.273   7.870  17.557  0.00  0.00    +0.000 HD
ENDROOT
BRANCH   6   9
ATOM      9  C   UNL     1       1.067   8.545  20.685  0.00  0.00    +0.000 A 
ATOM     10  C   UNL     1       0.533   8.762  21.944  0.00  0.00    +0.000 A 
ATOM     11  C   UNL     1      -0.140  10.014  22.055  0.00  0.00    +0.000 A 
ATOM     12  C   UNL     1      -0.122  10.713  20.871  0.00  0.00    +0.000 A 
ATOM     13  S   UNL     1       0.710   9.866  19.643  0.00  0.00    +0.000 S 
ENDBRANCH   6   9
BRANCH   1  14
ATOM     14  C   UNL     1       5.533   6.218  17.688  0.00  0.00    +0.000 C 
BRANCH  14  17
ATOM     15  C   UNL     1       4.430   3.792  16.005  0.00  0.00    +0.000 C 
ATOM     16  N   UNL     1       5.587   4.592  15.707  0.00  0.00    +0.000 N 
ATOM     17  C   UNL     1       6.085   5.660  16.414  0.00  0.00    +0.000 A 
ATOM     18  N   UNL     1       7.192   6.071  15.829  0.00  0.00    +0.000 NA
ATOM     19  N   UNL     1       7.427   5.274  14.740  0.00  0.00    +0.000 NA
ATOM     20  C   UNL     1       6.450   4.397  14.658  0.00  0.00    +0.000 A 
BRANCH  20  21
ATOM     21  C   UNL     1       6.339   3.365  13.543  0.00  0.00    +0.000 C 
ATOM     22  C   UNL     1       5.329   3.645  12.444  0.00  0.00    +0.000 C 
ATOM     23  C   UNL     1       6.783   3.752  12.146  0.00  0.00    +0.000 C 
ENDBRANCH  20  21
ENDBRANCH  14  17
ENDBRANCH   1  14
TORSDOF 4
ENDMDL
MODEL 3
REMARK VINA RESULT:      -6.8      2.767      7.982
REMARK  Name = 
REMARK  5 active torsions:
REMARK  status: ('A' for Active; 'I' for Inactive)
REMARK    1  A    between atoms: C_1  and  N_2
REMARK    2  A    between atoms: C_3  and  C_4
REMARK    3  A    between atoms: C_4  and  N_5
REMARK    4  A    between atoms: C_10  and  C_11
REMARK    5  A    between atoms: C_19  and  C_20
REMARK                            x       y       z     vdW  Elec       q    Type
REMARK                         _______ _______ _______ _____ _____    ______ ____
ROOT
ATOM      1  N   UNL     1       2.228   7.533  20.786  0.00  0.00    +0.000 N 
ATOM      2  C   UNL     1       2.196   6.334  20.062  0.00  0.00    +0.000 A 
ATOM      3  C   UNL     1       1.324   5.277  20.347  0.00  0.00    +0.000 A 
ATOM      4  N   UNL     1       1.268   4.127  19.634  0.00  0.00    +0.000 NA
ATOM      5  C   UNL     1       2.159   4.049  18.617  0.00  0.00    +0.000 A 
ATOM      6  C   UNL     1       3.070   5.063  18.335  0.00  0.00    +0.000 A 
ATOM      7  N   UNL     1       3.098   6.216  19.063  0.00  0.00    +0.000 NA
ATOM      8  H   UNL     1       2.826   8.153  20.239  0.00  0.00    +0.000 HD
ENDROOT
BRANCH   6   9
ATOM      9  C   UNL     1       4.093   4.959  17.287  0.00  0.00    +0.000 A 
ATOM     10  C   UNL     1       4.557   3.818  16.652  0.00  0.00    +0.000 A 
ATOM     11  C   UNL     1       5.549   4.094  15.667  0.00  0.00    +0.000 A 
ATOM     12  C   UNL     1       5.835   5.438  15.590  0.00  0.00    +0.000 A 
ATOM     13  S   UNL     1       4.903   6.353  16.690  0.00  0.00    +0.000 S 
ENDBRANCH   6   9
BRANCH   1  14
ATOM     14  C   UNL     1       0.916   8.117  21.066  0.00  0.00    +0.000 C 
BRANCH  14  17
ATOM     15  C   UNL     1       0.936   9.728  18.357  0.00  0.00    +0.000 C 
ATOM     16  N   UNL     1       0.825  10.272  19.683  0.00  0.00    +0.000 N 
ATOM     17  C   UNL     1       0.803   9.596  20.880  0.00  0.00    +0.000 A 
ATOM     18  N   UNL     1       0.749  10.477  21.858  0.00  0.00    +0.000 NA
ATOM     19  N   UNL     1       0.738  11.732  21.311  0.00  0.00    +0.000 NA
ATOM     20  C   UNL     1       0.765  11.606  20.001  0.00  0.00    +0.000 A 
BRANCH  20  21
ATOM     21  C   UNL     1       0.718  12.789  19.042  0.00  0.00    +0.000 C 
ATOM     22  C   UNL     1      -0.606  13.063  18.351  0.00  0.00    +0.000 C 
ATOM     23  C   UNL     1      -0.128  13.992  19.411  0.00  0.00    +0.000 C 
ENDBRANCH  20  21
ENDBRANCH  14  17
ENDBRANCH   1  14
TORSDOF 4
ENDMDL
MODEL 4
REMARK VINA RESULT:      -6.8      0.836      1.122
REMARK  Name = 
REMARK  5 active torsions:
REMARK  status: ('A' for Active; 'I' for Inactive)
REMARK    1  A    between atoms: C_1  and  N_2
REMARK    2  A    between atoms: C_3  and  C_4
REMARK    3  A    between atoms: C_4  and  N_5
REMARK    4  A    between atoms: C_10  and  C_11
REMARK    5  A    between atoms: C_19  and  C_20
REMARK                            x       y       z     vdW  Elec       q    Type
REMARK                         _______ _______ _______ _____ _____    ______ ____
ROOT
ATOM      1  N   UNL     1       2.463   6.702  20.424  0.00  0.00    +0.000 N 
ATOM      2  C   UNL     1       2.025   7.774  19.635  0.00  0.00    +0.000 A 
ATOM      3  C   UNL     1       2.465   8.006  18.327  0.00  0.00    +0.000 A 
ATOM      4  N   UNL     1       2.027   9.024  17.549  0.00  0.00    +0.000 NA
ATOM      5  C   UNL     1       1.133   9.847  18.146  0.00  0.00    +0.000 A 
ATOM      6  C   UNL     1       0.709   9.671  19.461  0.00  0.00    +0.000 A 
ATOM      7  N   UNL     1       1.159   8.631  20.219  0.00  0.00    +0.000 NA
ATOM      8  H   UNL     1       1.843   6.705  21.235  0.00  0.00    +0.000 HD
ENDROOT
BRANCH   6   9
ATOM      9  C   UNL     1      -0.197  10.600  20.146  0.00  0.00    +0.000 A 
ATOM     10  C   UNL     1      -1.131  11.457  19.586  0.00  0.00    +0.000 A 
ATOM     11  C   UNL     1      -1.852  12.207  20.560  0.00  0.00    +0.000 A 
ATOM     12  C   UNL     1      -1.436  11.921  21.840  0.00  0.00    +0.000 A 
ATOM     13  S   UNL     1      -0.194  10.748  21.859  0.00  0.00    +0.000 S 
ENDBRANCH   6   9
BRANCH   1  14
ATOM     14  C   UNL     1       2.491   5.409  19.740  0.00  0.00    +0.000 C 
BRANCH  14  17
ATOM     15  C   UNL     1       2.661   3.806  17.032  0.00  0.00    +0.000 C 
ATOM     16  N   UNL     1       3.752   4.415  17.743  0.00  0.00    +0.000 N 
ATOM     17  C   UNL     1       3.708   5.127  18.918  0.00  0.00    +0.000 A 
ATOM     18  N   UNL     1       4.939   5.458  19.255  0.00  0.00    +0.000 NA
ATOM     19  N   UNL     1       5.795   4.964  18.307  0.00  0.00    +0.000 NA
ATOM     20  C   UNL     1       5.077   4.352  17.389  0.00  0.00    +0.000 A 
BRANCH  20  21
ATOM     21  C   UNL     1       5.676   3.710  16.144  0.00  0.00    +0.000 C 
ATOM     22  C   UNL     1       5.525   4.469  14.838  0.00  0.00    +0.000 C 
ATOM     23  C   UNL     1       6.864   4.379  15.480  0.00  0.00    +0.000 C 
ENDBRANCH  20  21
ENDBRANCH  14  17
ENDBRANCH   1  14
TORSDOF 4
ENDMDL
MODEL 5
REMARK VINA RESULT:      -6.7      2.752      8.699
REMARK  Name = 
REMARK  5 active torsions:
REMARK  status: ('A' for Active; 'I' for Inactive)
REMARK    1  A    between atoms: C_1  and  N_2
REMARK    2  A    between atoms: C_3  and  C_4
REMARK    3  A    between atoms: C_4  and  N_5
REMARK    4  A    between atoms: C_10  and  C_11
REMARK    5  A    between atoms: C_19  and  C_20
REMARK                            x       y       z     vdW  Elec       q    Type
REMARK                         _______ _______ _______ _____ _____    ______ ____
ROOT
ATOM      1  N   UNL     1       1.955   7.328  20.819  0.00  0.00    +0.000 N 
ATOM      2  C   UNL     1       2.225   6.044  20.327  0.00  0.00    +0.000 A 
ATOM      3  C   UNL     1       1.518   4.900  20.713  0.00  0.00    +0.000 A 
ATOM      4  N   UNL     1       1.754   3.660  20.223  0.00  0.00    +0.000 NA
ATOM      5  C   UNL     1       2.771   3.590  19.331  0.00  0.00    +0.000 A 
ATOM      6  C   UNL     1       3.525   4.701  18.960  0.00  0.00    +0.000 A 
ATOM      7  N   UNL     1       3.258   5.940  19.462  0.00  0.00    +0.000 NA
ATOM      8  H   UNL     1       2.505   7.954  20.229  0.00  0.00    +0.000 HD
ENDROOT
BRANCH   6   9
ATOM      9  C   UNL     1       4.680   4.626  18.057  0.00  0.00    +0.000 A 
ATOM     10  C   UNL     1       4.709   4.216  16.735  0.00  0.00    +0.000 A 
ATOM     11  C   UNL     1       6.011   4.287  16.158  0.00  0.00    +0.000 A 
ATOM     12  C   UNL     1       6.948   4.730  17.062  0.00  0.00    +0.000 A 
ATOM     13  S   UNL     1       6.256   5.065  18.587  0.00  0.00    +0.000 S 
ENDBRANCH   6   9
BRANCH   1  14
ATOM     14  C   UNL     1       0.537   7.686  20.854  0.00  0.00    +0.000 C 
BRANCH  14  17
ATOM     15  C   UNL     1      -0.491  10.397  19.619  0.00  0.00    +0.000 C 
ATOM     16  N   UNL     1      -0.240  10.123  21.008  0.00  0.00    +0.000 N 
ATOM     17  C   UNL     1       0.197   8.950  21.577  0.00  0.00    +0.000 A 
ATOM     18  N   UNL     1       0.352   9.144  22.871  0.00  0.00    +0.000 NA
ATOM     19  N   UNL     1       0.021  10.442  23.157  0.00  0.00    +0.000 NA
ATOM     20  C   UNL     1      -0.353  11.024  22.037  0.00  0.00    +0.000 A 
BRANCH  20  21
ATOM     21  C   UNL     1      -0.840  12.465  21.962  0.00  0.00    +0.000 C 
ATOM     22  C   UNL     1      -2.335  12.695  22.098  0.00  0.00    +0.000 C 
ATOM     23  C   UNL     1      -1.429  13.101  23.206  0.00  0.00    +0.000 C 
ENDBRANCH  20  21
ENDBRANCH  14  17
ENDBRANCH   1  14
TORSDOF 4
ENDMDL
MODEL 6
REMARK VINA RESULT:      -6.7      4.221      5.782
REMARK  Name = 
REMARK  5 active torsions:
REMARK  status: ('A' for Active; 'I' for Inactive)
REMARK    1  A    between atoms: C_1  and  N_2
REMARK    2  A    between atoms: C_3  and  C_4
REMARK    3  A    between atoms: C_4  and  N_5
REMARK    4  A    between atoms: C_10  and  C_11
REMARK    5  A    between atoms: C_19  and  C_20
REMARK                            x       y       z     vdW  Elec       q    Type
REMARK                         _______ _______ _______ _____ _____    ______ ____
ROOT
ATOM      1  N   UNL     1       6.840   5.466  17.517  0.00  0.00    +0.000 N 
ATOM      2  C   UNL     1       5.517   5.841  17.789  0.00  0.00    +0.000 A 
ATOM      3  C   UNL     1       4.957   7.058  17.386  0.00  0.00    +0.000 A 
ATOM      4  N   UNL     1       3.673   7.416  17.621  0.00  0.00    +0.000 NA
ATOM      5  C   UNL     1       2.952   6.508  18.321  0.00  0.00    +0.000 A 
ATOM      6  C   UNL     1       3.492   5.308  18.777  0.00  0.00    +0.000 A 
ATOM      7  N   UNL     1       4.786   4.968  18.517  0.00  0.00    +0.000 NA
ATOM      8  H   UNL     1       6.890   4.480  17.777  0.00  0.00    +0.000 HD
ENDROOT
BRANCH   6   9
ATOM      9  C   UNL     1       2.747   4.351  19.604  0.00  0.00    +0.000 A 
ATOM     10  C   UNL     1       1.453   4.460  20.086  0.00  0.00    +0.000 A 
ATOM     11  C   UNL     1       1.045   3.327  20.848  0.00  0.00    +0.000 A 
ATOM     12  C   UNL     1       2.046   2.389  20.947  0.00  0.00    +0.000 A 
ATOM     13  S   UNL     1       3.458   2.873  20.118  0.00  0.00    +0.000 S 
ENDBRANCH   6   9
BRANCH   1  14
ATOM     14  C   UNL     1       7.276   5.709  16.142  0.00  0.00    +0.000 C 
BRANCH  14  17
ATOM     15  C   UNL     1       8.077   5.525  13.099  0.00  0.00    +0.000 C 
ATOM     16  N   UNL     1       7.086   4.735  13.779  0.00  0.00    +0.000 N 
ATOM     17  C   UNL     1       6.723   4.785  15.104  0.00  0.00    +0.000 A 
ATOM     18  N   UNL     1       5.737   3.934  15.301  0.00  0.00    +0.000 NA
ATOM     19  N   UNL     1       5.446   3.325  14.110  0.00  0.00    +0.000 NA
ATOM     20  C   UNL     1       6.272   3.795  13.199  0.00  0.00    +0.000 A 
BRANCH  20  21
ATOM     21  C   UNL     1       6.285   3.320  11.752  0.00  0.00    +0.000 C 
ATOM     22  C   UNL     1       7.188   2.145  11.421  0.00  0.00    +0.000 C 
ATOM     23  C   UNL     1       5.712   1.954  11.429  0.00  0.00    +0.000 C 
ENDBRANCH  20  21
ENDBRANCH  14  17
ENDBRANCH   1  14
TORSDOF 4
ENDMDL
MODEL 7
REMARK VINA RESULT:      -6.6      2.704      8.053
REMARK  Name = 
REMARK  5 active torsions:
REMARK  status: ('A' for Active; 'I' for Inactive)
REMARK    1  A    between atoms: C_1  and  N_2
REMARK    2  A    between atoms: C_3  and  C_4
REMARK    3  A    between atoms: C_4  and  N_5
REMARK    4  A    between atoms: C_10  and  C_11
REMARK    5  A    between atoms: C_19  and  C_20
REMARK                            x       y       z     vdW  Elec       q    Type
REMARK                         _______ _______ _______ _____ _____    ______ ____
ROOT
ATOM      1  N   UNL     1       2.876   6.051  20.344  0.00  0.00    +0.000 N 
ATOM      2  C   UNL     1       2.824   5.197  19.234  0.00  0.00    +0.000 A 
ATOM      3  C   UNL     1       1.772   4.308  18.987  0.00  0.00    +0.000 A 
ATOM      4  N   UNL     1       1.702   3.499  17.904  0.00  0.00    +0.000 NA
ATOM      5  C   UNL     1       2.761   3.585  17.065  0.00  0.00    +0.000 A 
ATOM      6  C   UNL     1       3.845   4.426  17.305  0.00  0.00    +0.000 A 
ATOM      7  N   UNL     1       3.886   5.237  18.399  0.00  0.00    +0.000 NA
ATOM      8  H   UNL     1       3.655   6.682  20.151  0.00  0.00    +0.000 HD
ENDROOT
BRANCH   6   9
ATOM      9  C   UNL     1       5.036   4.470  16.447  0.00  0.00    +0.000 A 
ATOM     10  C   UNL     1       5.110   4.308  15.074  0.00  0.00    +0.000 A 
ATOM     11  C   UNL     1       6.437   4.430  14.570  0.00  0.00    +0.000 A 
ATOM     12  C   UNL     1       7.348   4.662  15.574  0.00  0.00    +0.000 A 
ATOM     13  S   UNL     1       6.601   4.740  17.107  0.00  0.00    +0.000 S 
ENDBRANCH   6   9
BRANCH   1  14
ATOM     14  C   UNL     1       1.630   6.763  20.629  0.00  0.00    +0.000 C 
BRANCH  14  17
ATOM     15  C   UNL     1       0.361   9.331  21.944  0.00  0.00    +0.000 C 
ATOM     16  N   UNL     1       0.935   9.230  20.630  0.00  0.00    +0.000 N 
ATOM     17  C   UNL     1       1.504   8.129  20.034  0.00  0.00    +0.000 A 
ATOM     18  N   UNL     1       1.852   8.451  18.804  0.00  0.00    +0.000 NA
ATOM     19  N   UNL     1       1.512   9.760  18.586  0.00  0.00    +0.000 NA
ATOM     20  C   UNL     1       0.977  10.232  19.692  0.00  0.00    +0.000 A 
BRANCH  20  21
ATOM     21  C   UNL     1       0.513  11.674  19.852  0.00  0.00    +0.000 C 
ATOM     22  C   UNL     1       1.526  12.667  20.393  0.00  0.00    +0.000 C 
ATOM     23  C   UNL     1       1.125  12.738  18.962  0.00  0.00    +0.000 C 
ENDBRANCH  20  21
ENDBRANCH  14  17
ENDBRANCH   1  14
TORSDOF 4
ENDMDL
MODEL 8
REMARK VINA RESULT:      -6.6      1.898      2.576
REMARK  Name = 
REMARK  5 active torsions:
REMARK  status: ('A' for Active; 'I' for Inactive)
REMARK    1  A    between atoms: C_1  and  N_2
REMARK    2  A    between atoms: C_3  and  C_4
REMARK    3  A    between atoms: C_4  and  N_5
REMARK    4  A    between atoms: C_10  and  C_11
REMARK    5  A    between atoms: C_19  and  C_20
REMARK                            x       y       z     vdW  Elec       q    Type
REMARK                         _______ _______ _______ _____ _____    ______ ____
ROOT
ATOM      1  N   UNL     1       2.724   7.227  17.856  0.00  0.00    +0.000 N 
ATOM      2  C   UNL     1       2.091   7.923  18.895  0.00  0.00    +0.000 A 
ATOM      3  C   UNL     1       1.927   7.409  20.186  0.00  0.00    +0.000 A 
ATOM      4  N   UNL     1       1.342   8.086  21.202  0.00  0.00    +0.000 NA
ATOM      5  C   UNL     1       0.882   9.316  20.872  0.00  0.00    +0.000 A 
ATOM      6  C   UNL     1       0.989   9.839  19.585  0.00  0.00    +0.000 A 
ATOM      7  N   UNL     1       1.593   9.139  18.583  0.00  0.00    +0.000 NA
ATOM      8  H   UNL     1       2.841   7.918  17.114  0.00  0.00    +0.000 HD
ENDROOT
BRANCH   6   9
ATOM      9  C   UNL     1       0.426  11.136  19.194  0.00  0.00    +0.000 A 
ATOM     10  C   UNL     1      -0.904  11.471  19.002  0.00  0.00    +0.000 A 
ATOM     11  C   UNL     1      -1.088  12.836  18.638  0.00  0.00    +0.000 A 
ATOM     12  C   UNL     1       0.109  13.507  18.540  0.00  0.00    +0.000 A 
ATOM     13  S   UNL     1       1.438  12.494  18.895  0.00  0.00    +0.000 S 
ENDBRANCH   6   9
BRANCH   1  14
ATOM     14  C   UNL     1       3.981   6.579  18.228  0.00  0.00    +0.000 C 
BRANCH  14  17
ATOM     15  C   UNL     1       4.035   3.772  16.795  0.00  0.00    +0.000 C 
ATOM     16  N   UNL     1       4.864   4.909  16.496  0.00  0.00    +0.000 N 
ATOM     17  C   UNL     1       4.857   6.146  17.095  0.00  0.00    +0.000 A 
ATOM     18  N   UNL     1       5.814   6.877  16.561  0.00  0.00    +0.000 NA
ATOM     19  N   UNL     1       6.456   6.124  15.613  0.00  0.00    +0.000 NA
ATOM     20  C   UNL     1       5.870   4.946  15.564  0.00  0.00    +0.000 A 
BRANCH  20  21
ATOM     21  C   UNL     1       6.278   3.846  14.591  0.00  0.00    +0.000 C 
ATOM     22  C   UNL     1       5.495   3.749  13.294  0.00  0.00    +0.000 C 
ATOM     23  C   UNL     1       6.900   4.240  13.266  0.00  0.00    +0.000 C 
ENDBRANCH  20  21
ENDBRANCH  14  17
ENDBRANCH   1  14
TORSDOF 4
ENDMDL
MODEL 9
REMARK VINA RESULT:      -6.6      1.023      1.278
REMARK  Name = 
REMARK  5 active torsions:
REMARK  status: ('A' for Active; 'I' for Inactive)
REMARK    1  A    between atoms: C_1  and  N_2
REMARK    2  A    between atoms: C_3  and  C_4
REMARK    3  A    between atoms: C_4  and  N_5
REMARK    4  A    between atoms: C_10  and  C_11
REMARK    5  A    between atoms: C_19  and  C_20
REMARK                            x       y       z     vdW  Elec       q    Type
REMARK                         _______ _______ _______ _____ _____    ______ ____
ROOT
ATOM      1  N   UNL     1       2.491   6.936  20.223  0.00  0.00    +0.000 N 
ATOM      2  C   UNL     1       1.842   8.077  19.732  0.00  0.00    +0.000 A 
ATOM      3  C   UNL     1       1.999   8.559  18.428  0.00  0.00    +0.000 A 
ATOM      4  N   UNL     1       1.355   9.644  17.938  0.00  0.00    +0.000 NA
ATOM      5  C   UNL     1       0.549  10.271  18.827  0.00  0.00    +0.000 A 
ATOM      6  C   UNL     1       0.404   9.844  20.144  0.00  0.00    +0.000 A 
ATOM      7  N   UNL     1       1.058   8.742  20.609  0.00  0.00    +0.000 NA
ATOM      8  H   UNL     1       2.044   6.749  21.122  0.00  0.00    +0.000 HD
ENDROOT
BRANCH   6   9
ATOM      9  C   UNL     1      -0.403  10.560  21.139  0.00  0.00    +0.000 A 
ATOM     10  C   UNL     1      -0.547  10.282  22.488  0.00  0.00    +0.000 A 
ATOM     11  C   UNL     1      -1.404  11.203  23.159  0.00  0.00    +0.000 A 
ATOM     12  C   UNL     1      -1.911  12.150  22.300  0.00  0.00    +0.000 A 
ATOM     13  S   UNL     1      -1.347  11.930  20.703  0.00  0.00    +0.000 S 
ENDBRANCH   6   9
BRANCH   1  14
ATOM     14  C   UNL     1       2.462   5.780  19.327  0.00  0.00    +0.000 C 
BRANCH  14  17
ATOM     15  C   UNL     1       4.540   6.635  17.118  0.00  0.00    +0.000 C 
ATOM     16  N   UNL     1       4.667   5.542  18.044  0.00  0.00    +0.000 N 
ATOM     17  C   UNL     1       3.784   5.152  19.023  0.00  0.00    +0.000 A 
ATOM     18  N   UNL     1       4.257   4.069  19.607  0.00  0.00    +0.000 NA
ATOM     19  N   UNL     1       5.447   3.742  19.013  0.00  0.00    +0.000 NA
ATOM     20  C   UNL     1       5.701   4.640  18.085  0.00  0.00    +0.000 A 
BRANCH  20  21
ATOM     21  C   UNL     1       6.966   4.637  17.237  0.00  0.00    +0.000 C 
ATOM     22  C   UNL     1       6.843   4.108  15.819  0.00  0.00    +0.000 C 
ATOM     23  C   UNL     1       7.043   5.566  16.040  0.00  0.00    +0.000 C 
ENDBRANCH  20  21
ENDBRANCH  14  17
ENDBRANCH   1  14
TORSDOF 4
ENDMDL
