MODEL 1
REMARK VINA RESULT:      -7.7      0.000      0.000
REMARK  Name = 
REMARK  6 active torsions:
REMARK  status: ('A' for Active; 'I' for Inactive)
REMARK    1  A    between atoms: C_1  and  C_2
REMARK    2  A    between atoms: C_11  and  N_12
REMARK    3  A    between atoms: C_19  and  C_20
REMARK    4  A    between atoms: C_24  and  C_25
REMARK    5  A    between atoms: C_28  and  N_29
REMARK    6  A    between atoms: C_34  and  O_35
REMARK                            x       y       z     vdW  Elec       q    Type
REMARK                         _______ _______ _______ _____ _____    ______ ____
ROOT
ATOM      1  C   UNL     1       1.264   5.210  18.742  0.00  0.00    +0.000 C 
ATOM      2  C   UNL     1       2.377   5.828  19.635  0.00  0.00    +0.000 C 
ATOM      3  C   UNL     1       1.777   6.287  20.970  0.00  0.00    +0.000 C 
ATOM      4  C   UNL     1       0.809   7.460  20.765  0.00  0.00    +0.000 C 
ATOM      5  C   UNL     1       1.429   8.641  19.972  0.00  0.00    +0.000 C 
ATOM      6  C   UNL     1       2.164   8.189  18.675  0.00  0.00    +0.000 C 
ATOM      7  C   UNL     1       2.957   9.365  18.086  0.00  0.00    +0.000 C 
ATOM      8  C   UNL     1       2.161  10.627  18.035  0.00  0.00    +0.000 C 
ATOM      9  C   UNL     1       1.014  10.827  18.708  0.00  0.00    +0.000 C 
ATOM     10  C   UNL     1       0.231  12.105  18.516  0.00  0.00    +0.000 C 
ATOM     11  C   UNL     1      -0.138  12.831  19.837  0.00  0.00    +0.000 C 
ATOM     12  C   UNL     1      -0.742  11.805  20.831  0.00  0.00    +0.000 C 
ATOM     13  C   UNL     1       0.108  10.544  20.996  0.00  0.00    +0.000 C 
ATOM     14  C   UNL     1       0.412   9.806  19.670  0.00  0.00    +0.000 C 
ATOM     15  C   UNL     1      -0.899   9.264  19.052  0.00  0.00    +0.000 C 
ATOM     16  C   UNL     1       3.101   7.027  18.998  0.00  0.00    +0.000 C 
ATOM     17  C   UNL     1       3.921   6.407  17.862  0.00  0.00    +0.000 C 
ATOM     18  C   UNL     1       4.266   5.037  18.433  0.00  0.00    +0.000 C 
ATOM     19  C   UNL     1       5.001   4.089  17.827  0.00  0.00    +0.000 C 
ATOM     20  C   UNL     1       3.576   4.873  19.777  0.00  0.00    +0.000 C 
ENDROOT
BRANCH  19  21
ATOM     21  C   UNL     1       5.646   4.284  16.531  0.00  0.00    +0.000 A 
ATOM     22  C   UNL     1       6.933   4.831  16.484  0.00  0.00    +0.000 A 
ATOM     23  C   UNL     1       7.555   5.063  15.257  0.00  0.00    +0.000 A 
ATOM     24  C   UNL     1       6.888   4.736  14.071  0.00  0.00    +0.000 A 
ATOM     25  C   UNL     1       5.602   4.176  14.108  0.00  0.00    +0.000 A 
ATOM     26  C   UNL     1       4.984   3.955  15.343  0.00  0.00    +0.000 A 
BRANCH  24  27
ATOM     27  N   UNL     1       7.536   4.983  12.779  0.00  0.00    +0.000 N 
ATOM     28  O   UNL     1       7.227   4.251  11.828  0.00  0.00    +0.000 OA
ATOM     29  O   UNL     1       8.359   5.911  12.709  0.00  0.00    +0.000 OA
ENDBRANCH  24  27
ENDBRANCH  19  21
BRANCH  11  30
ATOM     30  N   UNL     1      -1.092  13.937  19.567  0.00  0.00    +0.000 NA
ATOM     31  C   UNL     1      -0.463  15.207  19.168  0.00  0.00    +0.000 C 
ATOM     32  C   UNL     1      -0.241  15.964  20.459  0.00  0.00    +0.000 C 
ATOM     33  C   UNL     1      -1.460  15.609  21.281  0.00  0.00    +0.000 C 
ATOM     34  C   UNL     1      -1.957  14.288  20.706  0.00  0.00    +0.000 C 
ENDBRANCH  11  30
BRANCH  20  35
ATOM     35  O   UNL     1       3.209   3.541  20.062  0.00  0.00    +0.000 OA
ATOM     36  H   UNL     1       2.582   3.560  20.801  0.00  0.00    +0.000 HD
ENDBRANCH  20  35
TORSDOF 4
ENDMDL
MODEL 2
REMARK VINA RESULT:      -7.6      0.236      1.001
REMARK  Name = 
REMARK  6 active torsions:
REMARK  status: ('A' for Active; 'I' for Inactive)
REMARK    1  A    between atoms: C_1  and  C_2
REMARK    2  A    between atoms: C_11  and  N_12
REMARK    3  A    between atoms: C_19  and  C_20
REMARK    4  A    between atoms: C_24  and  C_25
REMARK    5  A    between atoms: C_28  and  N_29
REMARK    6  A    between atoms: C_34  and  O_35
REMARK                            x       y       z     vdW  Elec       q    Type
REMARK                         _______ _______ _______ _____ _____    ______ ____
ROOT
ATOM      1  C   UNL     1       1.289   5.200  18.745  0.00  0.00    +0.000 C 
ATOM      2  C   UNL     1       2.398   5.830  19.635  0.00  0.00    +0.000 C 
ATOM      3  C   UNL     1       1.801   6.262  20.980  0.00  0.00    +0.000 C 
ATOM      4  C   UNL     1       0.809   7.418  20.798  0.00  0.00    +0.000 C 
ATOM      5  C   UNL     1       1.398   8.620  20.013  0.00  0.00    +0.000 C 
ATOM      6  C   UNL     1       2.130   8.197  18.705  0.00  0.00    +0.000 C 
ATOM      7  C   UNL     1       2.895   9.396  18.122  0.00  0.00    +0.000 C 
ATOM      8  C   UNL     1       2.074  10.642  18.093  0.00  0.00    +0.000 C 
ATOM      9  C   UNL     1       0.929  10.812  18.778  0.00  0.00    +0.000 C 
ATOM     10  C   UNL     1       0.120  12.076  18.608  0.00  0.00    +0.000 C 
ATOM     11  C   UNL     1      -0.251  12.779  19.940  0.00  0.00    +0.000 C 
ATOM     12  C   UNL     1      -0.827  11.731  20.928  0.00  0.00    +0.000 C 
ATOM     13  C   UNL     1       0.049  10.485  21.071  0.00  0.00    +0.000 C 
ATOM     14  C   UNL     1       0.356   9.768  19.734  0.00  0.00    +0.000 C 
ATOM     15  C   UNL     1      -0.949   9.208  19.120  0.00  0.00    +0.000 C 
ATOM     16  C   UNL     1       3.093   7.051  19.006  0.00  0.00    +0.000 C 
ATOM     17  C   UNL     1       3.915   6.460  17.856  0.00  0.00    +0.000 C 
ATOM     18  C   UNL     1       4.291   5.091  18.408  0.00  0.00    +0.000 C 
ATOM     19  C   UNL     1       5.039   4.164  17.784  0.00  0.00    +0.000 C 
ATOM     20  C   UNL     1       3.616   4.897  19.756  0.00  0.00    +0.000 C 
ENDROOT
BRANCH  19  21
ATOM     21  C   UNL     1       5.669   4.386  16.486  0.00  0.00    +0.000 A 
ATOM     22  C   UNL     1       4.994   3.999  15.324  0.00  0.00    +0.000 A 
ATOM     23  C   UNL     1       5.591   4.165  14.073  0.00  0.00    +0.000 A 
ATOM     24  C   UNL     1       6.868   4.731  13.987  0.00  0.00    +0.000 A 
ATOM     25  C   UNL     1       7.548   5.135  15.146  0.00  0.00    +0.000 A 
ATOM     26  C   UNL     1       6.944   4.956  16.395  0.00  0.00    +0.000 A 
BRANCH  24  27
ATOM     27  N   UNL     1       7.501   4.903  12.676  0.00  0.00    +0.000 N 
ATOM     28  O   UNL     1       8.282   5.854  12.532  0.00  0.00    +0.000 OA
ATOM     29  O   UNL     1       7.220   4.087  11.782  0.00  0.00    +0.000 OA
ENDBRANCH  24  27
ENDBRANCH  19  21
BRANCH  11  30
ATOM     30  N   UNL     1      -1.229  13.870  19.692  0.00  0.00    +0.000 NA
ATOM     31  C   UNL     1      -0.641  15.218  19.623  0.00  0.00    +0.000 C 
ATOM     32  C   UNL     1      -0.695  15.748  21.039  0.00  0.00    +0.000 C 
ATOM     33  C   UNL     1      -2.003  15.198  21.564  0.00  0.00    +0.000 C 
ATOM     34  C   UNL     1      -2.295  13.976  20.703  0.00  0.00    +0.000 C 
ENDBRANCH  11  30
BRANCH  20  35
ATOM     35  O   UNL     1       3.278   3.555  20.028  0.00  0.00    +0.000 OA
ATOM     36  H   UNL     1       4.021   3.157  20.509  0.00  0.00    +0.000 HD
ENDBRANCH  20  35
TORSDOF 4
ENDMDL
MODEL 3
REMARK VINA RESULT:      -7.4      4.420     11.092
REMARK  Name = 
REMARK  6 active torsions:
REMARK  status: ('A' for Active; 'I' for Inactive)
REMARK    1  A    between atoms: C_1  and  C_2
REMARK    2  A    between atoms: C_11  and  N_12
REMARK    3  A    between atoms: C_19  and  C_20
REMARK    4  A    between atoms: C_24  and  C_25
REMARK    5  A    between atoms: C_28  and  N_29
REMARK    6  A    between atoms: C_34  and  O_35
REMARK                            x       y       z     vdW  Elec       q    Type
REMARK                         _______ _______ _______ _____ _____    ______ ____
ROOT
ATOM      1  C   UNL     1      -0.469  10.584  17.616  0.00  0.00    +0.000 C 
ATOM      2  C   UNL     1       0.716  11.051  18.507  0.00  0.00    +0.000 C 
ATOM      3  C   UNL     1       2.043  10.791  17.784  0.00  0.00    +0.000 C 
ATOM      4  C   UNL     1       2.301   9.287  17.631  0.00  0.00    +0.000 C 
ATOM      5  C   UNL     1       2.206   8.503  18.967  0.00  0.00    +0.000 C 
ATOM      6  C   UNL     1       0.929   8.849  19.789  0.00  0.00    +0.000 C 
ATOM      7  C   UNL     1       1.029   8.236  21.194  0.00  0.00    +0.000 C 
ATOM      8  C   UNL     1       1.481   6.813  21.170  0.00  0.00    +0.000 C 
ATOM      9  C   UNL     1       2.049   6.217  20.107  0.00  0.00    +0.000 C 
ATOM     10  C   UNL     1       2.386   4.745  20.148  0.00  0.00    +0.000 C 
ATOM     11  C   UNL     1       3.847   4.413  19.745  0.00  0.00    +0.000 C 
ATOM     12  C   UNL     1       4.193   5.153  18.427  0.00  0.00    +0.000 C 
ATOM     13  C   UNL     1       3.848   6.643  18.456  0.00  0.00    +0.000 C 
ATOM     14  C   UNL     1       2.370   6.945  18.803  0.00  0.00    +0.000 C 
ATOM     15  C   UNL     1       1.441   6.394  17.695  0.00  0.00    +0.000 C 
ATOM     16  C   UNL     1       0.777  10.366  19.884  0.00  0.00    +0.000 C 
ATOM     17  C   UNL     1      -0.426  10.939  20.639  0.00  0.00    +0.000 C 
ATOM     18  C   UNL     1      -0.514  12.349  20.070  0.00  0.00    +0.000 C 
ATOM     19  C   UNL     1      -1.409  13.289  20.419  0.00  0.00    +0.000 C 
ATOM     20  C   UNL     1       0.527  12.507  18.973  0.00  0.00    +0.000 C 
ENDROOT
BRANCH  19  21
ATOM     21  C   UNL     1      -2.398  13.098  21.476  0.00  0.00    +0.000 A 
ATOM     22  C   UNL     1      -1.968  13.007  22.805  0.00  0.00    +0.000 A 
ATOM     23  C   UNL     1      -2.889  12.786  23.830  0.00  0.00    +0.000 A 
ATOM     24  C   UNL     1      -4.249  12.666  23.522  0.00  0.00    +0.000 A 
ATOM     25  C   UNL     1      -4.692  12.768  22.194  0.00  0.00    +0.000 A 
ATOM     26  C   UNL     1      -3.759  12.981  21.174  0.00  0.00    +0.000 A 
BRANCH  24  27
ATOM     27  N   UNL     1      -5.221  12.429  24.595  0.00  0.00    +0.000 N 
ATOM     28  O   UNL     1      -4.791  12.337  25.753  0.00  0.00    +0.000 OA
ATOM     29  O   UNL     1      -6.420  12.333  24.283  0.00  0.00    +0.000 OA
ENDBRANCH  24  27
ENDBRANCH  19  21
BRANCH  11  30
ATOM     30  N   UNL     1       4.018   2.945  19.593  0.00  0.00    +0.000 NA
ATOM     31  C   UNL     1       4.070   2.475  18.199  0.00  0.00    +0.000 C 
ATOM     32  C   UNL     1       2.638   2.156  17.832  0.00  0.00    +0.000 C 
ATOM     33  C   UNL     1       2.073   1.583  19.114  0.00  0.00    +0.000 C 
ATOM     34  C   UNL     1       2.959   2.138  20.222  0.00  0.00    +0.000 C 
ENDBRANCH  11  30
BRANCH  20  35
ATOM     35  O   UNL     1       0.129  13.385  17.943  0.00  0.00    +0.000 OA
ATOM     36  H   UNL     1      -0.063  14.245  18.349  0.00  0.00    +0.000 HD
ENDBRANCH  20  35
TORSDOF 4
ENDMDL
MODEL 4
REMARK VINA RESULT:      -7.3      4.601     11.256
REMARK  Name = 
REMARK  6 active torsions:
REMARK  status: ('A' for Active; 'I' for Inactive)
REMARK    1  A    between atoms: C_1  and  C_2
REMARK    2  A    between atoms: C_11  and  N_12
REMARK    3  A    between atoms: C_19  and  C_20
REMARK    4  A    between atoms: C_24  and  C_25
REMARK    5  A    between atoms: C_28  and  N_29
REMARK    6  A    between atoms: C_34  and  O_35
REMARK                            x       y       z     vdW  Elec       q    Type
REMARK                         _______ _______ _______ _____ _____    ______ ____
ROOT
ATOM      1  C   UNL     1      -0.600  10.979  17.671  0.00  0.00    +0.000 C 
ATOM      2  C   UNL     1       0.481  11.417  18.698  0.00  0.00    +0.000 C 
ATOM      3  C   UNL     1       1.879  11.194  18.108  0.00  0.00    +0.000 C 
ATOM      4  C   UNL     1       2.167   9.698  17.924  0.00  0.00    +0.000 C 
ATOM      5  C   UNL     1       1.941   8.862  19.211  0.00  0.00    +0.000 C 
ATOM      6  C   UNL     1       0.583   9.167  19.909  0.00  0.00    +0.000 C 
ATOM      7  C   UNL     1       0.543   8.500  21.292  0.00  0.00    +0.000 C 
ATOM      8  C   UNL     1       1.010   7.082  21.260  0.00  0.00    +0.000 C 
ATOM      9  C   UNL     1       1.691   6.531  20.239  0.00  0.00    +0.000 C 
ATOM     10  C   UNL     1       2.036   5.061  20.258  0.00  0.00    +0.000 C 
ATOM     11  C   UNL     1       3.534   4.755  19.996  0.00  0.00    +0.000 C 
ATOM     12  C   UNL     1       4.008   5.548  18.751  0.00  0.00    +0.000 C 
ATOM     13  C   UNL     1       3.646   7.034  18.802  0.00  0.00    +0.000 C 
ATOM     14  C   UNL     1       2.137   7.313  19.005  0.00  0.00    +0.000 C 
ATOM     15  C   UNL     1       1.334   6.800  17.785  0.00  0.00    +0.000 C 
ATOM     16  C   UNL     1       0.407  10.678  20.046  0.00  0.00    +0.000 C 
ATOM     17  C   UNL     1      -0.874  11.214  20.694  0.00  0.00    +0.000 C 
ATOM     18  C   UNL     1      -0.917  12.645  20.174  0.00  0.00    +0.000 C 
ATOM     19  C   UNL     1      -1.853  13.564  20.464  0.00  0.00    +0.000 C 
ATOM     20  C   UNL     1       0.230  12.852  19.198  0.00  0.00    +0.000 C 
ENDROOT
BRANCH  19  21
ATOM     21  C   UNL     1      -2.943  13.326  21.405  0.00  0.00    +0.000 A 
ATOM     22  C   UNL     1      -4.207  12.980  20.914  0.00  0.00    +0.000 A 
ATOM     23  C   UNL     1      -5.275  12.785  21.791  0.00  0.00    +0.000 A 
ATOM     24  C   UNL     1      -5.073  12.929  23.168  0.00  0.00    +0.000 A 
ATOM     25  C   UNL     1      -3.807  13.264  23.672  0.00  0.00    +0.000 A 
ATOM     26  C   UNL     1      -2.745  13.465  22.783  0.00  0.00    +0.000 A 
BRANCH  24  27
ATOM     27  N   UNL     1      -6.193  12.730  24.093  0.00  0.00    +0.000 N 
ATOM     28  O   UNL     1      -6.295  11.627  24.649  0.00  0.00    +0.000 OA
ATOM     29  O   UNL     1      -6.978  13.678  24.269  0.00  0.00    +0.000 OA
ENDBRANCH  24  27
ENDBRANCH  19  21
BRANCH  11  30
ATOM     30  N   UNL     1       3.736   3.295  19.806  0.00  0.00    +0.000 NA
ATOM     31  C   UNL     1       3.997   2.888  18.416  0.00  0.00    +0.000 C 
ATOM     32  C   UNL     1       2.637   2.586  17.826  0.00  0.00    +0.000 C 
ATOM     33  C   UNL     1       1.892   1.956  18.983  0.00  0.00    +0.000 C 
ATOM     34  C   UNL     1       2.600   2.461  20.234  0.00  0.00    +0.000 C 
ENDBRANCH  11  30
BRANCH  20  35
ATOM     35  O   UNL     1      -0.067  13.768  18.167  0.00  0.00    +0.000 OA
ATOM     36  H   UNL     1       0.578  13.630  17.457  0.00  0.00    +0.000 HD
ENDBRANCH  20  35
TORSDOF 4
ENDMDL
MODEL 5
REMARK VINA RESULT:      -7.1      7.055      9.241
REMARK  Name = 
REMARK  6 active torsions:
REMARK  status: ('A' for Active; 'I' for Inactive)
REMARK    1  A    between atoms: C_1  and  C_2
REMARK    2  A    between atoms: C_11  and  N_12
REMARK    3  A    between atoms: C_19  and  C_20
REMARK    4  A    between atoms: C_24  and  C_25
REMARK    5  A    between atoms: C_28  and  N_29
REMARK    6  A    between atoms: C_34  and  O_35
REMARK                            x       y       z     vdW  Elec       q    Type
REMARK                         _______ _______ _______ _____ _____    ______ ____
ROOT
ATOM      1  C   UNL     1      -1.609  14.985  20.381  0.00  0.00    +0.000 C 
ATOM      2  C   UNL     1      -0.742  13.784  20.854  0.00  0.00    +0.000 C 
ATOM      3  C   UNL     1       0.054  14.178  22.104  0.00  0.00    +0.000 C 
ATOM      4  C   UNL     1       1.102  15.250  21.774  0.00  0.00    +0.000 C 
ATOM      5  C   UNL     1       2.031  14.863  20.593  0.00  0.00    +0.000 C 
ATOM      6  C   UNL     1       1.255  14.330  19.353  0.00  0.00    +0.000 C 
ATOM      7  C   UNL     1       2.239  13.737  18.333  0.00  0.00    +0.000 C 
ATOM      8  C   UNL     1       3.419  14.620  18.093  0.00  0.00    +0.000 C 
ATOM      9  C   UNL     1       3.771  15.647  18.888  0.00  0.00    +0.000 C 
ATOM     10  C   UNL     1       4.927  16.542  18.508  0.00  0.00    +0.000 C 
ATOM     11  C   UNL     1       5.982  16.732  19.630  0.00  0.00    +0.000 C 
ATOM     12  C   UNL     1       5.259  17.080  20.957  0.00  0.00    +0.000 C 
ATOM     13  C   UNL     1       4.113  16.125  21.295  0.00  0.00    +0.000 C 
ATOM     14  C   UNL     1       3.043  15.999  20.183  0.00  0.00    +0.000 C 
ATOM     15  C   UNL     1       2.321  17.353  19.986  0.00  0.00    +0.000 C 
ATOM     16  C   UNL     1       0.250  13.269  19.796  0.00  0.00    +0.000 C 
ATOM     17  C   UNL     1      -0.642  12.612  18.737  0.00  0.00    +0.000 C 
ATOM     18  C   UNL     1      -1.791  12.076  19.581  0.00  0.00    +0.000 C 
ATOM     19  C   UNL     1      -2.853  11.389  19.126  0.00  0.00    +0.000 C 
ATOM     20  C   UNL     1      -1.593  12.512  21.024  0.00  0.00    +0.000 C 
ENDROOT
BRANCH  19  21
ATOM     21  C   UNL     1      -3.010  10.991  17.730  0.00  0.00    +0.000 A 
ATOM     22  C   UNL     1      -2.174  10.001  17.204  0.00  0.00    +0.000 A 
ATOM     23  C   UNL     1      -2.278   9.630  15.862  0.00  0.00    +0.000 A 
ATOM     24  C   UNL     1      -3.232  10.250  15.047  0.00  0.00    +0.000 A 
ATOM     25  C   UNL     1      -4.084  11.235  15.568  0.00  0.00    +0.000 A 
ATOM     26  C   UNL     1      -3.965  11.604  16.912  0.00  0.00    +0.000 A 
BRANCH  24  27
ATOM     27  N   UNL     1      -3.342   9.867  13.635  0.00  0.00    +0.000 N 
ATOM     28  O   UNL     1      -4.473   9.841  13.130  0.00  0.00    +0.000 OA
ATOM     29  O   UNL     1      -2.296   9.591  13.024  0.00  0.00    +0.000 OA
ENDBRANCH  24  27
ENDBRANCH  19  21
BRANCH  11  30
ATOM     30  N   UNL     1       6.948  17.796  19.255  0.00  0.00    +0.000 NA
ATOM     31  C   UNL     1       8.046  17.349  18.382  0.00  0.00    +0.000 C 
ATOM     32  C   UNL     1       9.157  16.933  19.321  0.00  0.00    +0.000 C 
ATOM     33  C   UNL     1       9.053  17.940  20.446  0.00  0.00    +0.000 C 
ATOM     34  C   UNL     1       7.616  18.444  20.396  0.00  0.00    +0.000 C 
ENDBRANCH  11  30
BRANCH  20  35
ATOM     35  O   UNL     1      -2.802  12.726  21.717  0.00  0.00    +0.000 OA
ATOM     36  H   UNL     1      -2.809  12.134  22.486  0.00  0.00    +0.000 HD
ENDBRANCH  20  35
TORSDOF 4
ENDMDL
MODEL 6
REMARK VINA RESULT:      -7.1      4.748     11.383
REMARK  Name = 
REMARK  6 active torsions:
REMARK  status: ('A' for Active; 'I' for Inactive)
REMARK    1  A    between atoms: C_1  and  C_2
REMARK    2  A    between atoms: C_11  and  N_12
REMARK    3  A    between atoms: C_19  and  C_20
REMARK    4  A    between atoms: C_24  and  C_25
REMARK    5  A    between atoms: C_28  and  N_29
REMARK    6  A    between atoms: C_34  and  O_35
REMARK                            x       y       z     vdW  Elec       q    Type
REMARK                         _______ _______ _______ _____ _____    ______ ____
ROOT
ATOM      1  C   UNL     1      -0.972  11.479  17.828  0.00  0.00    +0.000 C 
ATOM      2  C   UNL     1       0.020  11.887  18.955  0.00  0.00    +0.000 C 
ATOM      3  C   UNL     1       1.462  11.755  18.450  0.00  0.00    +0.000 C 
ATOM      4  C   UNL     1       1.823  10.286  18.191  0.00  0.00    +0.000 C 
ATOM      5  C   UNL     1       1.545   9.358  19.403  0.00  0.00    +0.000 C 
ATOM      6  C   UNL     1       0.132   9.566  20.022  0.00  0.00    +0.000 C 
ATOM      7  C   UNL     1       0.026   8.806  21.353  0.00  0.00    +0.000 C 
ATOM      8  C   UNL     1       0.551   7.411  21.262  0.00  0.00    +0.000 C 
ATOM      9  C   UNL     1       1.322   6.956  20.258  0.00  0.00    +0.000 C 
ATOM     10  C   UNL     1       1.725   5.501  20.206  0.00  0.00    +0.000 C 
ATOM     11  C   UNL     1       3.249   5.268  20.031  0.00  0.00    +0.000 C 
ATOM     12  C   UNL     1       3.772   6.160  18.875  0.00  0.00    +0.000 C 
ATOM     13  C   UNL     1       3.347   7.624  18.997  0.00  0.00    +0.000 C 
ATOM     14  C   UNL     1       1.818   7.834  19.111  0.00  0.00    +0.000 C 
ATOM     15  C   UNL     1       1.121   7.375  17.808  0.00  0.00    +0.000 C 
ATOM     16  C   UNL     1      -0.115  11.056  20.243  0.00  0.00    +0.000 C 
ATOM     17  C   UNL     1      -1.458  11.500  20.833  0.00  0.00    +0.000 C 
ATOM     18  C   UNL     1      -1.524  12.960  20.404  0.00  0.00    +0.000 C 
ATOM     19  C   UNL     1      -2.514  13.824  20.687  0.00  0.00    +0.000 C 
ATOM     20  C   UNL     1      -0.323  13.274  19.527  0.00  0.00    +0.000 C 
ENDROOT
BRANCH  19  21
ATOM     21  C   UNL     1      -3.655  13.483  21.533  0.00  0.00    +0.000 A 
ATOM     22  C   UNL     1      -3.540  13.612  22.921  0.00  0.00    +0.000 A 
ATOM     23  C   UNL     1      -4.603  13.257  23.752  0.00  0.00    +0.000 A 
ATOM     24  C   UNL     1      -5.791  12.778  23.188  0.00  0.00    +0.000 A 
ATOM     25  C   UNL     1      -5.921  12.656  21.796  0.00  0.00    +0.000 A 
ATOM     26  C   UNL     1      -4.847  13.007  20.973  0.00  0.00    +0.000 A 
BRANCH  24  27
ATOM     27  N   UNL     1      -6.909  12.398  24.058  0.00  0.00    +0.000 N 
ATOM     28  O   UNL     1      -7.561  13.306  24.591  0.00  0.00    +0.000 OA
ATOM     29  O   UNL     1      -7.140  11.186  24.213  0.00  0.00    +0.000 OA
ENDBRANCH  24  27
ENDBRANCH  19  21
BRANCH  11  30
ATOM     30  N   UNL     1       3.522   3.832  19.761  0.00  0.00    +0.000 NA
ATOM     31  C   UNL     1       4.094   3.555  18.434  0.00  0.00    +0.000 C 
ATOM     32  C   UNL     1       2.906   3.304  17.532  0.00  0.00    +0.000 C 
ATOM     33  C   UNL     1       1.939   2.568  18.433  0.00  0.00    +0.000 C 
ATOM     34  C   UNL     1       2.340   2.958  19.850  0.00  0.00    +0.000 C 
ENDBRANCH  11  30
BRANCH  20  35
ATOM     35  O   UNL     1      -0.588  14.246  18.539  0.00  0.00    +0.000 OA
ATOM     36  H   UNL     1      -1.549  14.290  18.421  0.00  0.00    +0.000 HD
ENDBRANCH  20  35
TORSDOF 4
ENDMDL
MODEL 7
REMARK VINA RESULT:      -7.0      6.973      9.145
REMARK  Name = 
REMARK  6 active torsions:
REMARK  status: ('A' for Active; 'I' for Inactive)
REMARK    1  A    between atoms: C_1  and  C_2
REMARK    2  A    between atoms: C_11  and  N_12
REMARK    3  A    between atoms: C_19  and  C_20
REMARK    4  A    between atoms: C_24  and  C_25
REMARK    5  A    between atoms: C_28  and  N_29
REMARK    6  A    between atoms: C_34  and  O_35
REMARK                            x       y       z     vdW  Elec       q    Type
REMARK                         _______ _______ _______ _____ _____    ______ ____
ROOT
ATOM      1  C   UNL     1      -1.334  14.812  20.150  0.00  0.00    +0.000 C 
ATOM      2  C   UNL     1      -0.623  13.536  20.682  0.00  0.00    +0.000 C 
ATOM      3  C   UNL     1       0.123  13.860  21.982  0.00  0.00    +0.000 C 
ATOM      4  C   UNL     1       1.291  14.821  21.722  0.00  0.00    +0.000 C 
ATOM      5  C   UNL     1       2.254  14.335  20.607  0.00  0.00    +0.000 C 
ATOM      6  C   UNL     1       1.514  13.871  19.318  0.00  0.00    +0.000 C 
ATOM      7  C   UNL     1       2.502  13.176  18.368  0.00  0.00    +0.000 C 
ATOM      8  C   UNL     1       3.776  13.937  18.207  0.00  0.00    +0.000 C 
ATOM      9  C   UNL     1       4.174  14.930  19.022  0.00  0.00    +0.000 C 
ATOM     10  C   UNL     1       5.435  15.705  18.720  0.00  0.00    +0.000 C 
ATOM     11  C   UNL     1       6.426  15.798  19.910  0.00  0.00    +0.000 C 
ATOM     12  C   UNL     1       5.653  16.227  21.185  0.00  0.00    +0.000 C 
ATOM     13  C   UNL     1       4.399  15.392  21.446  0.00  0.00    +0.000 C 
ATOM     14  C   UNL     1       3.399  15.363  20.264  0.00  0.00    +0.000 C 
ATOM     15  C   UNL     1       2.829  16.780  20.017  0.00  0.00    +0.000 C 
ATOM     16  C   UNL     1       0.382  12.917  19.694  0.00  0.00    +0.000 C 
ATOM     17  C   UNL     1      -0.497  12.343  18.579  0.00  0.00    +0.000 C 
ATOM     18  C   UNL     1      -1.747  11.929  19.343  0.00  0.00    +0.000 C 
ATOM     19  C   UNL     1      -2.839  11.346  18.820  0.00  0.00    +0.000 C 
ATOM     20  C   UNL     1      -1.604  12.355  20.796  0.00  0.00    +0.000 C 
ENDROOT
BRANCH  19  21
ATOM     21  C   UNL     1      -2.940  10.954  17.417  0.00  0.00    +0.000 A 
ATOM     22  C   UNL     1      -3.896  11.571  16.602  0.00  0.00    +0.000 A 
ATOM     23  C   UNL     1      -4.039  11.186  15.268  0.00  0.00    +0.000 A 
ATOM     24  C   UNL     1      -3.213  10.184  14.746  0.00  0.00    +0.000 A 
ATOM     25  C   UNL     1      -2.243   9.567  15.551  0.00  0.00    +0.000 A 
ATOM     26  C   UNL     1      -2.114   9.955  16.889  0.00  0.00    +0.000 A 
BRANCH  24  27
ATOM     27  N   UNL     1      -3.363   9.773  13.346  0.00  0.00    +0.000 N 
ATOM     28  O   UNL     1      -2.341   9.440  12.729  0.00  0.00    +0.000 OA
ATOM     29  O   UNL     1      -4.505   9.782  12.856  0.00  0.00    +0.000 OA
ENDBRANCH  24  27
ENDBRANCH  19  21
BRANCH  11  30
ATOM     30  N   UNL     1       7.515  16.760  19.599  0.00  0.00    +0.000 NA
ATOM     31  C   UNL     1       8.037  16.673  18.225  0.00  0.00    +0.000 C 
ATOM     32  C   UNL     1       9.182  15.687  18.295  0.00  0.00    +0.000 C 
ATOM     33  C   UNL     1       9.809  15.983  19.640  0.00  0.00    +0.000 C 
ATOM     34  C   UNL     1       8.703  16.636  20.460  0.00  0.00    +0.000 C 
ENDBRANCH  11  30
BRANCH  20  35
ATOM     35  O   UNL     1      -2.830  12.693  21.406  0.00  0.00    +0.000 OA
ATOM     36  H   UNL     1      -3.531  12.567  20.747  0.00  0.00    +0.000 HD
ENDBRANCH  20  35
TORSDOF 4
ENDMDL
MODEL 8
REMARK VINA RESULT:      -7.0      6.484      8.695
REMARK  Name = 
REMARK  6 active torsions:
REMARK  status: ('A' for Active; 'I' for Inactive)
REMARK    1  A    between atoms: C_1  and  C_2
REMARK    2  A    between atoms: C_11  and  N_12
REMARK    3  A    between atoms: C_19  and  C_20
REMARK    4  A    between atoms: C_24  and  C_25
REMARK    5  A    between atoms: C_28  and  N_29
REMARK    6  A    between atoms: C_34  and  O_35
REMARK                            x       y       z     vdW  Elec       q    Type
REMARK                         _______ _______ _______ _____ _____    ______ ____
ROOT
ATOM      1  C   UNL     1       4.527  15.254  22.291  0.00  0.00    +0.000 C 
ATOM      2  C   UNL     1       4.258  16.082  21.002  0.00  0.00    +0.000 C 
ATOM      3  C   UNL     1       2.876  16.741  21.088  0.00  0.00    +0.000 C 
ATOM      4  C   UNL     1       1.761  15.687  21.058  0.00  0.00    +0.000 C 
ATOM      5  C   UNL     1       1.865  14.711  19.856  0.00  0.00    +0.000 C 
ATOM      6  C   UNL     1       3.295  14.128  19.663  0.00  0.00    +0.000 C 
ATOM      7  C   UNL     1       3.380  13.381  18.323  0.00  0.00    +0.000 C 
ATOM      8  C   UNL     1       2.218  12.471  18.098  0.00  0.00    +0.000 C 
ATOM      9  C   UNL     1       1.071  12.520  18.798  0.00  0.00    +0.000 C 
ATOM     10  C   UNL     1      -0.012  11.493  18.560  0.00  0.00    +0.000 C 
ATOM     11  C   UNL     1      -1.416  12.097  18.296  0.00  0.00    +0.000 C 
ATOM     12  C   UNL     1      -1.721  13.169  19.374  0.00  0.00    +0.000 C 
ATOM     13  C   UNL     1      -0.596  14.190  19.552  0.00  0.00    +0.000 C 
ATOM     14  C   UNL     1       0.783  13.565  19.873  0.00  0.00    +0.000 C 
ATOM     15  C   UNL     1       0.737  12.854  21.247  0.00  0.00    +0.000 C 
ATOM     16  C   UNL     1       4.319  15.261  19.702  0.00  0.00    +0.000 C 
ATOM     17  C   UNL     1       5.804  14.917  19.548  0.00  0.00    +0.000 C 
ATOM     18  C   UNL     1       6.476  16.140  20.157  0.00  0.00    +0.000 C 
ATOM     19  C   UNL     1       7.800  16.348  20.256  0.00  0.00    +0.000 C 
ATOM     20  C   UNL     1       5.408  17.065  20.718  0.00  0.00    +0.000 C 
ENDROOT
BRANCH  19  21
ATOM     21  C   UNL     1       8.797  15.433  19.706  0.00  0.00    +0.000 A 
ATOM     22  C   UNL     1       9.218  15.597  18.382  0.00  0.00    +0.000 A 
ATOM     23  C   UNL     1      10.141  14.712  17.822  0.00  0.00    +0.000 A 
ATOM     24  C   UNL     1      10.650  13.663  18.596  0.00  0.00    +0.000 A 
ATOM     25  C   UNL     1      10.243  13.498  19.929  0.00  0.00    +0.000 A 
ATOM     26  C   UNL     1       9.312  14.385  20.478  0.00  0.00    +0.000 A 
BRANCH  24  27
ATOM     27  N   UNL     1      11.616  12.728  18.010  0.00  0.00    +0.000 N 
ATOM     28  O   UNL     1      11.768  11.631  18.566  0.00  0.00    +0.000 OA
ATOM     29  O   UNL     1      12.227  13.087  16.989  0.00  0.00    +0.000 OA
ENDBRANCH  24  27
ENDBRANCH  19  21
BRANCH  11  30
ATOM     30  N   UNL     1      -2.446  11.026  18.303  0.00  0.00    +0.000 NA
ATOM     31  C   UNL     1      -2.263   9.991  17.273  0.00  0.00    +0.000 C 
ATOM     32  C   UNL     1      -3.047  10.478  16.074  0.00  0.00    +0.000 C 
ATOM     33  C   UNL     1      -4.258  11.135  16.699  0.00  0.00    +0.000 C 
ATOM     34  C   UNL     1      -3.826  11.506  18.112  0.00  0.00    +0.000 C 
ENDBRANCH  11  30
BRANCH  20  35
ATOM     35  O   UNL     1       5.831  17.788  21.854  0.00  0.00    +0.000 OA
ATOM     36  H   UNL     1       6.090  18.674  21.558  0.00  0.00    +0.000 HD
ENDBRANCH  20  35
TORSDOF 4
ENDMDL
MODEL 9
REMARK VINA RESULT:      -7.0      3.923      9.889
REMARK  Name = 
REMARK  6 active torsions:
REMARK  status: ('A' for Active; 'I' for Inactive)
REMARK    1  A    between atoms: C_1  and  C_2
REMARK    2  A    between atoms: C_11  and  N_12
REMARK    3  A    between atoms: C_19  and  C_20
REMARK    4  A    between atoms: C_24  and  C_25
REMARK    5  A    between atoms: C_28  and  N_29
REMARK    6  A    between atoms: C_34  and  O_35
REMARK                            x       y       z     vdW  Elec       q    Type
REMARK                         _______ _______ _______ _____ _____    ______ ____
ROOT
ATOM      1  C   UNL     1       1.938   8.685  22.175  0.00  0.00    +0.000 C 
ATOM      2  C   UNL     1       0.779   8.364  21.190  0.00  0.00    +0.000 C 
ATOM      3  C   UNL     1       0.501   6.856  21.188  0.00  0.00    +0.000 C 
ATOM      4  C   UNL     1       1.683   6.079  20.591  0.00  0.00    +0.000 C 
ATOM      5  C   UNL     1       2.116   6.592  19.191  0.00  0.00    +0.000 C 
ATOM      6  C   UNL     1       2.275   8.139  19.129  0.00  0.00    +0.000 C 
ATOM      7  C   UNL     1       2.454   8.589  17.670  0.00  0.00    +0.000 C 
ATOM      8  C   UNL     1       3.444   7.753  16.929  0.00  0.00    +0.000 C 
ATOM      9  C   UNL     1       3.893   6.557  17.350  0.00  0.00    +0.000 C 
ATOM     10  C   UNL     1       4.968   5.831  16.577  0.00  0.00    +0.000 C 
ATOM     11  C   UNL     1       4.620   4.360  16.230  0.00  0.00    +0.000 C 
ATOM     12  C   UNL     1       4.097   3.645  17.503  0.00  0.00    +0.000 C 
ATOM     13  C   UNL     1       2.997   4.420  18.228  0.00  0.00    +0.000 C 
ATOM     14  C   UNL     1       3.391   5.867  18.616  0.00  0.00    +0.000 C 
ATOM     15  C   UNL     1       4.541   5.844  19.650  0.00  0.00    +0.000 C 
ATOM     16  C   UNL     1       1.044   8.805  19.740  0.00  0.00    +0.000 C 
ATOM     17  C   UNL     1       0.988  10.335  19.799  0.00  0.00    +0.000 C 
ATOM     18  C   UNL     1      -0.045  10.571  20.893  0.00  0.00    +0.000 C 
ATOM     19  C   UNL     1      -0.478  11.767  21.329  0.00  0.00    +0.000 C 
ATOM     20  C   UNL     1      -0.459   9.232  21.481  0.00  0.00    +0.000 C 
ENDROOT
BRANCH  19  21
ATOM     21  C   UNL     1      -0.054  13.034  20.739  0.00  0.00    +0.000 A 
ATOM     22  C   UNL     1      -0.736  13.531  19.624  0.00  0.00    +0.000 A 
ATOM     23  C   UNL     1      -0.326  14.720  19.019  0.00  0.00    +0.000 A 
ATOM     24  C   UNL     1       0.769  15.418  19.541  0.00  0.00    +0.000 A 
ATOM     25  C   UNL     1       1.453  14.935  20.667  0.00  0.00    +0.000 A 
ATOM     26  C   UNL     1       1.038  13.738  21.260  0.00  0.00    +0.000 A 
BRANCH  24  27
ATOM     27  N   UNL     1       1.207  16.666  18.906  0.00  0.00    +0.000 N 
ATOM     28  O   UNL     1       2.361  17.055  19.132  0.00  0.00    +0.000 OA
ATOM     29  O   UNL     1       0.397  17.262  18.175  0.00  0.00    +0.000 OA
ENDBRANCH  24  27
ENDBRANCH  19  21
BRANCH  11  30
ATOM     30  N   UNL     1       5.812   3.664  15.679  0.00  0.00    +0.000 NA
ATOM     31  C   UNL     1       7.078   4.399  15.836  0.00  0.00    +0.000 C 
ATOM     32  C   UNL     1       7.215   5.229  14.579  0.00  0.00    +0.000 C 
ATOM     33  C   UNL     1       6.652   4.324  13.505  0.00  0.00    +0.000 C 
ATOM     34  C   UNL     1       5.731   3.359  14.241  0.00  0.00    +0.000 C 
ENDBRANCH  11  30
BRANCH  20  35
ATOM     35  O   UNL     1      -0.796   9.299  22.850  0.00  0.00    +0.000 OA
ATOM     36  H   UNL     1      -1.725   9.032  22.937  0.00  0.00    +0.000 HD
ENDBRANCH  20  35
TORSDOF 4
ENDMDL
