MODEL 1
REMARK VINA RESULT:      -7.7      0.000      0.000
REMARK  Name = 
REMARK  8 active torsions:
REMARK  status: ('A' for Active; 'I' for Inactive)
REMARK    1  A    between atoms: C_1  and  C_2
REMARK    2  A    between atoms: C_2  and  C_3
REMARK    3  A    between atoms: N_10  and  O_11
REMARK    4  A    between atoms: O_11  and  C_12
REMARK    5  A    between atoms: C_12  and  C_13
REMARK    6  A    between atoms: C_13  and  C_14
REMARK    7  A    between atoms: C_14  and  O_15
REMARK    8  A    between atoms: O_15  and  C_16
REMARK                            x       y       z     vdW  Elec       q    Type
REMARK                         _______ _______ _______ _____ _____    ______ ____
ROOT
ATOM      1  C   UNL     1       3.071   3.826  16.827  0.00  0.00    +0.000 C 
ATOM      2  C   UNL     1       3.252   4.299  18.278  0.00  0.00    +0.000 C 
ATOM      3  C   UNL     1       3.522   5.807  18.294  0.00  0.00    +0.000 C 
ATOM      4  N   UNL     1       1.989   4.068  18.974  0.00  0.00    +0.000 NA
ATOM      5  C   UNL     1       1.849   3.292  19.989  0.00  0.00    +0.000 C 
ATOM      6  N   UNL     1       0.569   3.111  20.566  0.00  0.00    +0.000 N 
ATOM      7  N   UNL     1       2.948   2.563  20.499  0.00  0.00    +0.000 NA
ATOM      8  C   UNL     1       4.124   2.662  19.992  0.00  0.00    +0.000 C 
ATOM      9  N   UNL     1       5.150   1.824  20.506  0.00  0.00    +0.000 N 
ATOM     10  N   UNL     1       4.369   3.562  18.901  0.00  0.00    +0.000 N 
ATOM     11  H   UNL     1      -0.255   3.596  20.179  0.00  0.00    +0.000 HD
ATOM     12  H   UNL     1       0.443   2.461  21.355  0.00  0.00    +0.000 HD
ATOM     13  H   UNL     1       4.948   1.188  21.291  0.00  0.00    +0.000 HD
ATOM     14  H   UNL     1       6.079   1.773  20.068  0.00  0.00    +0.000 HD
ENDROOT
BRANCH  10  15
ATOM     15  O   UNL     1       5.610   3.657  18.356  0.00  0.00    +0.000 OA
BRANCH  15  16
ATOM     16  C   UNL     1       6.229   4.835  18.854  0.00  0.00    +0.000 C 
BRANCH  16  17
ATOM     17  C   UNL     1       7.398   5.261  17.950  0.00  0.00    +0.000 C 
BRANCH  17  18
ATOM     18  C   UNL     1       6.908   6.032  16.724  0.00  0.00    +0.000 C 
BRANCH  18  19
ATOM     19  O   UNL     1       7.620   5.666  15.595  0.00  0.00    +0.000 OA
BRANCH  19  20
ATOM     20  C   UNL     1       7.098   4.969  14.547  0.00  0.00    +0.000 A 
ATOM     21  C   UNL     1       7.679   5.005  13.260  0.00  0.00    +0.000 A 
ATOM     22  C   UNL     1       7.113   4.284  12.206  0.00  0.00    +0.000 A 
ATOM     23  C   UNL     1       5.965   3.518  12.417  0.00  0.00    +0.000 A 
ATOM     24  F   UNL     1       5.418   2.822  11.389  0.00  0.00    +0.000 F 
ATOM     25  C   UNL     1       5.383   3.470  13.687  0.00  0.00    +0.000 A 
ATOM     26  C   UNL     1       5.946   4.192  14.748  0.00  0.00    +0.000 A 
ENDBRANCH  19  20
ENDBRANCH  18  19
ENDBRANCH  17  18
ENDBRANCH  16  17
ENDBRANCH  15  16
ENDBRANCH  10  15
TORSDOF 6
ENDMDL
MODEL 2
REMARK VINA RESULT:      -7.7      0.625      1.198
REMARK  Name = 
REMARK  8 active torsions:
REMARK  status: ('A' for Active; 'I' for Inactive)
REMARK    1  A    between atoms: C_1  and  C_2
REMARK    2  A    between atoms: C_2  and  C_3
REMARK    3  A    between atoms: N_10  and  O_11
REMARK    4  A    between atoms: O_11  and  C_12
REMARK    5  A    between atoms: C_12  and  C_13
REMARK    6  A    between atoms: C_13  and  C_14
REMARK    7  A    between atoms: C_14  and  O_15
REMARK    8  A    between atoms: O_15  and  C_16
REMARK                            x       y       z     vdW  Elec       q    Type
REMARK                         _______ _______ _______ _____ _____    ______ ____
ROOT
ATOM      1  C   UNL     1       2.268   4.621  17.591  0.00  0.00    +0.000 C 
ATOM      2  C   UNL     1       2.887   4.703  18.996  0.00  0.00    +0.000 C 
ATOM      3  C   UNL     1       3.232   6.160  19.319  0.00  0.00    +0.000 C 
ATOM      4  N   UNL     1       1.869   4.267  19.948  0.00  0.00    +0.000 NA
ATOM      5  C   UNL     1       1.987   3.249  20.725  0.00  0.00    +0.000 C 
ATOM      6  N   UNL     1       0.921   2.892  21.584  0.00  0.00    +0.000 N 
ATOM      7  N   UNL     1       3.145   2.439  20.684  0.00  0.00    +0.000 NA
ATOM      8  C   UNL     1       4.128   2.696  19.897  0.00  0.00    +0.000 C 
ATOM      9  N   UNL     1       5.212   1.778  19.854  0.00  0.00    +0.000 N 
ATOM     10  N   UNL     1       4.095   3.856  19.052  0.00  0.00    +0.000 N 
ATOM     11  H   UNL     1       0.048   3.441  21.594  0.00  0.00    +0.000 HD
ATOM     12  H   UNL     1       0.994   2.056  22.181  0.00  0.00    +0.000 HD
ATOM     13  H   UNL     1       5.212   0.954  20.473  0.00  0.00    +0.000 HD
ATOM     14  H   UNL     1       5.970   1.866  19.165  0.00  0.00    +0.000 HD
ENDROOT
BRANCH  10  15
ATOM     15  O   UNL     1       5.128   4.120  18.211  0.00  0.00    +0.000 OA
BRANCH  15  16
ATOM     16  C   UNL     1       6.131   4.818  18.938  0.00  0.00    +0.000 C 
BRANCH  16  17
ATOM     17  C   UNL     1       7.226   5.341  17.992  0.00  0.00    +0.000 C 
BRANCH  17  18
ATOM     18  C   UNL     1       6.629   6.105  16.811  0.00  0.00    +0.000 C 
BRANCH  18  19
ATOM     19  O   UNL     1       7.331   5.839  15.648  0.00  0.00    +0.000 OA
BRANCH  19  20
ATOM     20  C   UNL     1       6.863   5.071  14.623  0.00  0.00    +0.000 A 
ATOM     21  C   UNL     1       5.619   4.404  14.696  0.00  0.00    +0.000 A 
ATOM     22  C   UNL     1       5.174   3.619  13.630  0.00  0.00    +0.000 A 
ATOM     23  C   UNL     1       5.955   3.487  12.481  0.00  0.00    +0.000 A 
ATOM     24  F   UNL     1       5.518   2.721  11.451  0.00  0.00    +0.000 F 
ATOM     25  C   UNL     1       7.185   4.146  12.395  0.00  0.00    +0.000 A 
ATOM     26  C   UNL     1       7.637   4.935  13.461  0.00  0.00    +0.000 A 
ENDBRANCH  19  20
ENDBRANCH  18  19
ENDBRANCH  17  18
ENDBRANCH  16  17
ENDBRANCH  15  16
ENDBRANCH  10  15
TORSDOF 6
ENDMDL
MODEL 3
REMARK VINA RESULT:      -7.1      1.099      1.183
REMARK  Name = 
REMARK  8 active torsions:
REMARK  status: ('A' for Active; 'I' for Inactive)
REMARK    1  A    between atoms: C_1  and  C_2
REMARK    2  A    between atoms: C_2  and  C_3
REMARK    3  A    between atoms: N_10  and  O_11
REMARK    4  A    between atoms: O_11  and  C_12
REMARK    5  A    between atoms: C_12  and  C_13
REMARK    6  A    between atoms: C_13  and  C_14
REMARK    7  A    between atoms: C_14  and  O_15
REMARK    8  A    between atoms: O_15  and  C_16
REMARK                            x       y       z     vdW  Elec       q    Type
REMARK                         _______ _______ _______ _____ _____    ______ ____
ROOT
ATOM      1  C   UNL     1       1.439   4.325  18.031  0.00  0.00    +0.000 C 
ATOM      2  C   UNL     1       2.272   4.588  19.296  0.00  0.00    +0.000 C 
ATOM      3  C   UNL     1       2.427   6.097  19.502  0.00  0.00    +0.000 C 
ATOM      4  N   UNL     1       1.519   4.061  20.431  0.00  0.00    +0.000 NA
ATOM      5  C   UNL     1       1.933   3.123  21.208  0.00  0.00    +0.000 C 
ATOM      6  N   UNL     1       1.105   2.661  22.258  0.00  0.00    +0.000 N 
ATOM      7  N   UNL     1       3.183   2.499  20.985  0.00  0.00    +0.000 NA
ATOM      8  C   UNL     1       3.959   2.854  20.024  0.00  0.00    +0.000 C 
ATOM      9  N   UNL     1       5.152   2.112  19.816  0.00  0.00    +0.000 N 
ATOM     10  N   UNL     1       3.592   3.940  19.160  0.00  0.00    +0.000 N 
ATOM     11  H   UNL     1       0.170   3.070  22.408  0.00  0.00    +0.000 HD
ATOM     12  H   UNL     1       1.415   1.885  22.859  0.00  0.00    +0.000 HD
ATOM     13  H   UNL     1       5.393   1.338  20.451  0.00  0.00    +0.000 HD
ATOM     14  H   UNL     1       5.754   2.272  18.998  0.00  0.00    +0.000 HD
ENDROOT
BRANCH  10  15
ATOM     15  O   UNL     1       4.406   4.307  18.137  0.00  0.00    +0.000 OA
BRANCH  15  16
ATOM     16  C   UNL     1       5.259   5.349  18.593  0.00  0.00    +0.000 C 
BRANCH  16  17
ATOM     17  C   UNL     1       5.671   6.266  17.429  0.00  0.00    +0.000 C 
BRANCH  17  18
ATOM     18  C   UNL     1       7.183   6.249  17.208  0.00  0.00    +0.000 C 
BRANCH  18  19
ATOM     19  O   UNL     1       7.571   5.097  16.547  0.00  0.00    +0.000 OA
BRANCH  19  20
ATOM     20  C   UNL     1       7.105   4.716  15.323  0.00  0.00    +0.000 A 
ATOM     21  C   UNL     1       7.664   5.209  14.123  0.00  0.00    +0.000 A 
ATOM     22  C   UNL     1       7.157   4.802  12.887  0.00  0.00    +0.000 A 
ATOM     23  C   UNL     1       6.092   3.903  12.826  0.00  0.00    +0.000 A 
ATOM     24  F   UNL     1       5.602   3.515  11.623  0.00  0.00    +0.000 F 
ATOM     25  C   UNL     1       5.533   3.404  14.007  0.00  0.00    +0.000 A 
ATOM     26  C   UNL     1       6.037   3.808  15.250  0.00  0.00    +0.000 A 
ENDBRANCH  19  20
ENDBRANCH  18  19
ENDBRANCH  17  18
ENDBRANCH  16  17
ENDBRANCH  15  16
ENDBRANCH  10  15
TORSDOF 6
ENDMDL
MODEL 4
REMARK VINA RESULT:      -7.1      3.654      6.532
REMARK  Name = 
REMARK  8 active torsions:
REMARK  status: ('A' for Active; 'I' for Inactive)
REMARK    1  A    between atoms: C_1  and  C_2
REMARK    2  A    between atoms: C_2  and  C_3
REMARK    3  A    between atoms: N_10  and  O_11
REMARK    4  A    between atoms: O_11  and  C_12
REMARK    5  A    between atoms: C_12  and  C_13
REMARK    6  A    between atoms: C_13  and  C_14
REMARK    7  A    between atoms: C_14  and  O_15
REMARK    8  A    between atoms: O_15  and  C_16
REMARK                            x       y       z     vdW  Elec       q    Type
REMARK                         _______ _______ _______ _____ _____    ______ ____
ROOT
ATOM      1  C   UNL     1       5.204   6.351  15.853  0.00  0.00    +0.000 C 
ATOM      2  C   UNL     1       6.332   5.447  16.375  0.00  0.00    +0.000 C 
ATOM      3  C   UNL     1       7.080   4.826  15.191  0.00  0.00    +0.000 C 
ATOM      4  N   UNL     1       7.275   6.298  17.097  0.00  0.00    +0.000 NA
ATOM      5  C   UNL     1       7.557   6.175  18.346  0.00  0.00    +0.000 C 
ATOM      6  N   UNL     1       8.459   7.079  18.956  0.00  0.00    +0.000 N 
ATOM      7  N   UNL     1       6.926   5.186  19.136  0.00  0.00    +0.000 NA
ATOM      8  C   UNL     1       6.073   4.363  18.642  0.00  0.00    +0.000 C 
ATOM      9  N   UNL     1       5.418   3.463  19.526  0.00  0.00    +0.000 N 
ATOM     10  N   UNL     1       5.761   4.396  17.241  0.00  0.00    +0.000 N 
ATOM     11  H   UNL     1       8.893   7.838  18.408  0.00  0.00    +0.000 HD
ATOM     12  H   UNL     1       8.659   7.010  19.964  0.00  0.00    +0.000 HD
ATOM     13  H   UNL     1       5.662   3.458  20.527  0.00  0.00    +0.000 HD
ATOM     14  H   UNL     1       4.646   2.862  19.212  0.00  0.00    +0.000 HD
ENDROOT
BRANCH  10  15
ATOM     15  O   UNL     1       4.850   3.534  16.721  0.00  0.00    +0.000 OA
BRANCH  15  16
ATOM     16  C   UNL     1       3.590   4.190  16.669  0.00  0.00    +0.000 C 
BRANCH  16  17
ATOM     17  C   UNL     1       2.535   3.411  17.472  0.00  0.00    +0.000 C 
BRANCH  17  18
ATOM     18  C   UNL     1       2.142   4.152  18.750  0.00  0.00    +0.000 C 
BRANCH  18  19
ATOM     19  O   UNL     1       2.913   5.290  18.917  0.00  0.00    +0.000 OA
BRANCH  19  20
ATOM     20  C   UNL     1       2.409   6.542  19.105  0.00  0.00    +0.000 A 
ATOM     21  C   UNL     1       2.352   7.490  18.059  0.00  0.00    +0.000 A 
ATOM     22  C   UNL     1       1.835   8.768  18.289  0.00  0.00    +0.000 A 
ATOM     23  C   UNL     1       1.369   9.118  19.558  0.00  0.00    +0.000 A 
ATOM     24  F   UNL     1       0.872  10.361  19.775  0.00  0.00    +0.000 F 
ATOM     25  C   UNL     1       1.416   8.188  20.599  0.00  0.00    +0.000 A 
ATOM     26  C   UNL     1       1.933   6.905  20.375  0.00  0.00    +0.000 A 
ENDBRANCH  19  20
ENDBRANCH  18  19
ENDBRANCH  17  18
ENDBRANCH  16  17
ENDBRANCH  15  16
ENDBRANCH  10  15
TORSDOF 6
ENDMDL
MODEL 5
REMARK VINA RESULT:      -7.1      5.849      7.397
REMARK  Name = 
REMARK  8 active torsions:
REMARK  status: ('A' for Active; 'I' for Inactive)
REMARK    1  A    between atoms: C_1  and  C_2
REMARK    2  A    between atoms: C_2  and  C_3
REMARK    3  A    between atoms: N_10  and  O_11
REMARK    4  A    between atoms: O_11  and  C_12
REMARK    5  A    between atoms: C_12  and  C_13
REMARK    6  A    between atoms: C_13  and  C_14
REMARK    7  A    between atoms: C_14  and  O_15
REMARK    8  A    between atoms: O_15  and  C_16
REMARK                            x       y       z     vdW  Elec       q    Type
REMARK                         _______ _______ _______ _____ _____    ______ ____
ROOT
ATOM      1  C   UNL     1       6.600   4.952  15.213  0.00  0.00    +0.000 C 
ATOM      2  C   UNL     1       5.882   5.532  16.442  0.00  0.00    +0.000 C 
ATOM      3  C   UNL     1       4.939   6.654  16.001  0.00  0.00    +0.000 C 
ATOM      4  N   UNL     1       5.065   4.465  17.013  0.00  0.00    +0.000 NA
ATOM      5  C   UNL     1       5.210   3.992  18.200  0.00  0.00    +0.000 C 
ATOM      6  N   UNL     1       4.385   2.929  18.641  0.00  0.00    +0.000 N 
ATOM      7  N   UNL     1       6.230   4.476  19.051  0.00  0.00    +0.000 NA
ATOM      8  C   UNL     1       7.030   5.414  18.689  0.00  0.00    +0.000 C 
ATOM      9  N   UNL     1       8.085   5.775  19.570  0.00  0.00    +0.000 N 
ATOM     10  N   UNL     1       6.882   6.037  17.404  0.00  0.00    +0.000 N 
ATOM     11  H   UNL     1       3.667   2.529  18.018  0.00  0.00    +0.000 HD
ATOM     12  H   UNL     1       4.523   2.521  19.576  0.00  0.00    +0.000 HD
ATOM     13  H   UNL     1       8.167   5.314  20.488  0.00  0.00    +0.000 HD
ATOM     14  H   UNL     1       8.823   6.434  19.291  0.00  0.00    +0.000 HD
ENDROOT
BRANCH  10  15
ATOM     15  O   UNL     1       7.736   7.019  17.016  0.00  0.00    +0.000 OA
BRANCH  15  16
ATOM     16  C   UNL     1       7.412   8.203  17.733  0.00  0.00    +0.000 C 
BRANCH  16  17
ATOM     17  C   UNL     1       8.580   9.203  17.690  0.00  0.00    +0.000 C 
BRANCH  17  18
ATOM     18  C   UNL     1       8.844   9.817  19.064  0.00  0.00    +0.000 C 
BRANCH  18  19
ATOM     19  O   UNL     1      10.047  10.503  19.074  0.00  0.00    +0.000 OA
BRANCH  19  20
ATOM     20  C   UNL     1      10.227  11.750  18.553  0.00  0.00    +0.000 A 
ATOM     21  C   UNL     1       9.420  12.845  18.933  0.00  0.00    +0.000 A 
ATOM     22  C   UNL     1       9.629  14.107  18.373  0.00  0.00    +0.000 A 
ATOM     23  C   UNL     1      10.640  14.298  17.431  0.00  0.00    +0.000 A 
ATOM     24  F   UNL     1      10.835  15.525  16.888  0.00  0.00    +0.000 F 
ATOM     25  C   UNL     1      11.449  13.224  17.049  0.00  0.00    +0.000 A 
ATOM     26  C   UNL     1      11.244  11.955  17.607  0.00  0.00    +0.000 A 
ENDBRANCH  19  20
ENDBRANCH  18  19
ENDBRANCH  17  18
ENDBRANCH  16  17
ENDBRANCH  15  16
ENDBRANCH  10  15
TORSDOF 6
ENDMDL
MODEL 6
REMARK VINA RESULT:      -7.0      3.957      6.751
REMARK  Name = 
REMARK  8 active torsions:
REMARK  status: ('A' for Active; 'I' for Inactive)
REMARK    1  A    between atoms: C_1  and  C_2
REMARK    2  A    between atoms: C_2  and  C_3
REMARK    3  A    between atoms: N_10  and  O_11
REMARK    4  A    between atoms: O_11  and  C_12
REMARK    5  A    between atoms: C_12  and  C_13
REMARK    6  A    between atoms: C_13  and  C_14
REMARK    7  A    between atoms: C_14  and  O_15
REMARK    8  A    between atoms: O_15  and  C_16
REMARK                            x       y       z     vdW  Elec       q    Type
REMARK                         _______ _______ _______ _____ _____    ______ ____
ROOT
ATOM      1  C   UNL     1       5.044   6.454  15.934  0.00  0.00    +0.000 C 
ATOM      2  C   UNL     1       6.203   5.542  16.368  0.00  0.00    +0.000 C 
ATOM      3  C   UNL     1       6.923   5.003  15.129  0.00  0.00    +0.000 C 
ATOM      4  N   UNL     1       7.153   6.367  17.109  0.00  0.00    +0.000 NA
ATOM      5  C   UNL     1       7.477   6.178  18.339  0.00  0.00    +0.000 C 
ATOM      6  N   UNL     1       8.382   7.062  18.973  0.00  0.00    +0.000 N 
ATOM      7  N   UNL     1       6.887   5.135  19.090  0.00  0.00    +0.000 NA
ATOM      8  C   UNL     1       6.032   4.326  18.575  0.00  0.00    +0.000 C 
ATOM      9  N   UNL     1       5.420   3.366  19.425  0.00  0.00    +0.000 N 
ATOM     10  N   UNL     1       5.676   4.433  17.189  0.00  0.00    +0.000 N 
ATOM     11  H   UNL     1       8.787   7.858  18.457  0.00  0.00    +0.000 HD
ATOM     12  H   UNL     1       8.615   6.940  19.968  0.00  0.00    +0.000 HD
ATOM     13  H   UNL     1       5.694   3.308  20.417  0.00  0.00    +0.000 HD
ATOM     14  H   UNL     1       4.647   2.769  19.101  0.00  0.00    +0.000 HD
ENDROOT
BRANCH  10  15
ATOM     15  O   UNL     1       4.763   3.586  16.648  0.00  0.00    +0.000 OA
BRANCH  15  16
ATOM     16  C   UNL     1       3.765   3.318  17.625  0.00  0.00    +0.000 C 
BRANCH  16  17
ATOM     17  C   UNL     1       2.554   4.246  17.436  0.00  0.00    +0.000 C 
BRANCH  17  18
ATOM     18  C   UNL     1       2.286   5.082  18.688  0.00  0.00    +0.000 C 
BRANCH  18  19
ATOM     19  O   UNL     1       2.882   6.327  18.585  0.00  0.00    +0.000 OA
BRANCH  19  20
ATOM     20  C   UNL     1       2.261   7.505  18.877  0.00  0.00    +0.000 A 
ATOM     21  C   UNL     1       1.739   7.778  20.161  0.00  0.00    +0.000 A 
ATOM     22  C   UNL     1       1.103   8.993  20.423  0.00  0.00    +0.000 A 
ATOM     23  C   UNL     1       0.977   9.951  19.416  0.00  0.00    +0.000 A 
ATOM     24  F   UNL     1       0.355  11.128  19.676  0.00  0.00    +0.000 F 
ATOM     25  C   UNL     1       1.494   9.696  18.143  0.00  0.00    +0.000 A 
ATOM     26  C   UNL     1       2.133   8.478  17.873  0.00  0.00    +0.000 A 
ENDBRANCH  19  20
ENDBRANCH  18  19
ENDBRANCH  17  18
ENDBRANCH  16  17
ENDBRANCH  15  16
ENDBRANCH  10  15
TORSDOF 6
ENDMDL
MODEL 7
REMARK VINA RESULT:      -6.9      5.533      7.914
REMARK  Name = 
REMARK  8 active torsions:
REMARK  status: ('A' for Active; 'I' for Inactive)
REMARK    1  A    between atoms: C_1  and  C_2
REMARK    2  A    between atoms: C_2  and  C_3
REMARK    3  A    between atoms: N_10  and  O_11
REMARK    4  A    between atoms: O_11  and  C_12
REMARK    5  A    between atoms: C_12  and  C_13
REMARK    6  A    between atoms: C_13  and  C_14
REMARK    7  A    between atoms: C_14  and  O_15
REMARK    8  A    between atoms: O_15  and  C_16
REMARK                            x       y       z     vdW  Elec       q    Type
REMARK                         _______ _______ _______ _____ _____    ______ ____
ROOT
ATOM      1  C   UNL     1       1.417   3.074  18.204  0.00  0.00    +0.000 C 
ATOM      2  C   UNL     1       2.295   3.756  19.265  0.00  0.00    +0.000 C 
ATOM      3  C   UNL     1       1.406   4.325  20.375  0.00  0.00    +0.000 C 
ATOM      4  N   UNL     1       3.140   2.724  19.860  0.00  0.00    +0.000 NA
ATOM      5  C   UNL     1       4.425   2.722  19.818  0.00  0.00    +0.000 C 
ATOM      6  N   UNL     1       5.148   1.651  20.396  0.00  0.00    +0.000 N 
ATOM      7  N   UNL     1       5.128   3.745  19.139  0.00  0.00    +0.000 NA
ATOM      8  C   UNL     1       4.521   4.722  18.566  0.00  0.00    +0.000 C 
ATOM      9  N   UNL     1       5.298   5.655  17.828  0.00  0.00    +0.000 N 
ATOM     10  N   UNL     1       3.091   4.826  18.633  0.00  0.00    +0.000 N 
ATOM     11  H   UNL     1       4.653   0.870  20.853  0.00  0.00    +0.000 HD
ATOM     12  H   UNL     1       6.175   1.624  20.331  0.00  0.00    +0.000 HD
ATOM     13  H   UNL     1       6.324   5.559  17.798  0.00  0.00    +0.000 HD
ATOM     14  H   UNL     1       4.864   6.389  17.254  0.00  0.00    +0.000 HD
ENDROOT
BRANCH  10  15
ATOM     15  O   UNL     1       2.449   5.851  18.016  0.00  0.00    +0.000 OA
BRANCH  15  16
ATOM     16  C   UNL     1       2.581   7.015  18.822  0.00  0.00    +0.000 C 
BRANCH  16  17
ATOM     17  C   UNL     1       2.812   8.260  17.951  0.00  0.00    +0.000 C 
BRANCH  17  18
ATOM     18  C   UNL     1       1.527   9.067  17.772  0.00  0.00    +0.000 C 
BRANCH  18  19
ATOM     19  O   UNL     1       1.005   9.440  18.998  0.00  0.00    +0.000 OA
BRANCH  19  20
ATOM     20  C   UNL     1      -0.080  10.250  19.160  0.00  0.00    +0.000 A 
ATOM     21  C   UNL     1      -0.269  11.022  20.328  0.00  0.00    +0.000 A 
ATOM     22  C   UNL     1      -1.396  11.836  20.464  0.00  0.00    +0.000 A 
ATOM     23  C   UNL     1      -2.346  11.894  19.444  0.00  0.00    +0.000 A 
ATOM     24  F   UNL     1      -3.440  12.684  19.584  0.00  0.00    +0.000 F 
ATOM     25  C   UNL     1      -2.168  11.139  18.282  0.00  0.00    +0.000 A 
ATOM     26  C   UNL     1      -1.040  10.320  18.139  0.00  0.00    +0.000 A 
ENDBRANCH  19  20
ENDBRANCH  18  19
ENDBRANCH  17  18
ENDBRANCH  16  17
ENDBRANCH  15  16
ENDBRANCH  10  15
TORSDOF 6
ENDMDL
MODEL 8
REMARK VINA RESULT:      -6.9      1.238      1.693
REMARK  Name = 
REMARK  8 active torsions:
REMARK  status: ('A' for Active; 'I' for Inactive)
REMARK    1  A    between atoms: C_1  and  C_2
REMARK    2  A    between atoms: C_2  and  C_3
REMARK    3  A    between atoms: N_10  and  O_11
REMARK    4  A    between atoms: O_11  and  C_12
REMARK    5  A    between atoms: C_12  and  C_13
REMARK    6  A    between atoms: C_13  and  C_14
REMARK    7  A    between atoms: C_14  and  O_15
REMARK    8  A    between atoms: O_15  and  C_16
REMARK                            x       y       z     vdW  Elec       q    Type
REMARK                         _______ _______ _______ _____ _____    ______ ____
ROOT
ATOM      1  C   UNL     1       2.382   5.918  18.071  0.00  0.00    +0.000 C 
ATOM      2  C   UNL     1       2.340   5.023  19.320  0.00  0.00    +0.000 C 
ATOM      3  C   UNL     1       1.859   5.843  20.520  0.00  0.00    +0.000 C 
ATOM      4  N   UNL     1       1.353   3.976  19.074  0.00  0.00    +0.000 NA
ATOM      5  C   UNL     1       1.617   2.717  19.047  0.00  0.00    +0.000 C 
ATOM      6  N   UNL     1       0.589   1.787  18.762  0.00  0.00    +0.000 N 
ATOM      7  N   UNL     1       2.940   2.252  19.233  0.00  0.00    +0.000 NA
ATOM      8  C   UNL     1       3.918   3.055  19.460  0.00  0.00    +0.000 C 
ATOM      9  N   UNL     1       5.228   2.511  19.542  0.00  0.00    +0.000 N 
ATOM     10  N   UNL     1       3.684   4.467  19.572  0.00  0.00    +0.000 N 
ATOM     11  H   UNL     1      -0.372   2.109  18.575  0.00  0.00    +0.000 HD
ATOM     12  H   UNL     1       0.803   0.782  18.701  0.00  0.00    +0.000 HD
ATOM     13  H   UNL     1       5.368   1.494  19.460  0.00  0.00    +0.000 HD
ATOM     14  H   UNL     1       6.060   3.111  19.606  0.00  0.00    +0.000 HD
ENDROOT
BRANCH  10  15
ATOM     15  O   UNL     1       4.720   5.317  19.798  0.00  0.00    +0.000 OA
BRANCH  15  16
ATOM     16  C   UNL     1       5.137   5.857  18.552  0.00  0.00    +0.000 C 
BRANCH  16  17
ATOM     17  C   UNL     1       6.628   5.572  18.305  0.00  0.00    +0.000 C 
BRANCH  17  18
ATOM     18  C   UNL     1       7.123   6.239  17.022  0.00  0.00    +0.000 C 
BRANCH  18  19
ATOM     19  O   UNL     1       7.674   5.304  16.162  0.00  0.00    +0.000 OA
BRANCH  19  20
ATOM     20  C   UNL     1       7.045   4.805  15.060  0.00  0.00    +0.000 A 
ATOM     21  C   UNL     1       5.806   4.132  15.147  0.00  0.00    +0.000 A 
ATOM     22  C   UNL     1       5.193   3.627  13.998  0.00  0.00    +0.000 A 
ATOM     23  C   UNL     1       5.800   3.785  12.751  0.00  0.00    +0.000 A 
ATOM     24  F   UNL     1       5.202   3.289  11.640  0.00  0.00    +0.000 F 
ATOM     25  C   UNL     1       7.024   4.453  12.652  0.00  0.00    +0.000 A 
ATOM     26  C   UNL     1       7.644   4.962  13.801  0.00  0.00    +0.000 A 
ENDBRANCH  19  20
ENDBRANCH  18  19
ENDBRANCH  17  18
ENDBRANCH  16  17
ENDBRANCH  15  16
ENDBRANCH  10  15
TORSDOF 6
ENDMDL
MODEL 9
REMARK VINA RESULT:      -6.9      5.454      8.204
REMARK  Name = 
REMARK  8 active torsions:
REMARK  status: ('A' for Active; 'I' for Inactive)
REMARK    1  A    between atoms: C_1  and  C_2
REMARK    2  A    between atoms: C_2  and  C_3
REMARK    3  A    between atoms: N_10  and  O_11
REMARK    4  A    between atoms: O_11  and  C_12
REMARK    5  A    between atoms: C_12  and  C_13
REMARK    6  A    between atoms: C_13  and  C_14
REMARK    7  A    between atoms: C_14  and  O_15
REMARK    8  A    between atoms: O_15  and  C_16
REMARK                            x       y       z     vdW  Elec       q    Type
REMARK                         _______ _______ _______ _____ _____    ______ ____
ROOT
ATOM      1  C   UNL     1       1.001   3.111  19.711  0.00  0.00    +0.000 C 
ATOM      2  C   UNL     1       2.327   3.809  20.051  0.00  0.00    +0.000 C 
ATOM      3  C   UNL     1       2.130   4.718  21.267  0.00  0.00    +0.000 C 
ATOM      4  N   UNL     1       3.284   2.771  20.424  0.00  0.00    +0.000 NA
ATOM      5  C   UNL     1       4.383   2.535  19.800  0.00  0.00    +0.000 C 
ATOM      6  N   UNL     1       5.222   1.477  20.225  0.00  0.00    +0.000 N 
ATOM      7  N   UNL     1       4.735   3.278  18.649  0.00  0.00    +0.000 NA
ATOM      8  C   UNL     1       3.993   4.225  18.198  0.00  0.00    +0.000 C 
ATOM      9  N   UNL     1       4.375   4.857  16.984  0.00  0.00    +0.000 N 
ATOM     10  N   UNL     1       2.786   4.590  18.884  0.00  0.00    +0.000 N 
ATOM     11  H   UNL     1       4.960   0.892  21.033  0.00  0.00    +0.000 HD
ATOM     12  H   UNL     1       6.084   1.259  19.706  0.00  0.00    +0.000 HD
ATOM     13  H   UNL     1       5.247   4.578  16.512  0.00  0.00    +0.000 HD
ATOM     14  H   UNL     1       3.766   5.539  16.513  0.00  0.00    +0.000 HD
ENDROOT
BRANCH  10  15
ATOM     15  O   UNL     1       1.995   5.582  18.400  0.00  0.00    +0.000 OA
BRANCH  15  16
ATOM     16  C   UNL     1       2.462   6.821  18.918  0.00  0.00    +0.000 C 
BRANCH  16  17
ATOM     17  C   UNL     1       2.221   7.959  17.912  0.00  0.00    +0.000 C 
BRANCH  17  18
ATOM     18  C   UNL     1       1.553   9.163  18.575  0.00  0.00    +0.000 C 
BRANCH  18  19
ATOM     19  O   UNL     1       1.723   9.126  19.948  0.00  0.00    +0.000 OA
BRANCH  19  20
ATOM     20  C   UNL     1       0.857   9.674  20.848  0.00  0.00    +0.000 A 
ATOM     21  C   UNL     1       0.318   8.926  21.918  0.00  0.00    +0.000 A 
ATOM     22  C   UNL     1      -0.572   9.517  22.817  0.00  0.00    +0.000 A 
ATOM     23  C   UNL     1      -0.937  10.856  22.666  0.00  0.00    +0.000 A 
ATOM     24  F   UNL     1      -1.805  11.423  23.540  0.00  0.00    +0.000 F 
ATOM     25  C   UNL     1      -0.407  11.608  21.614  0.00  0.00    +0.000 A 
ATOM     26  C   UNL     1       0.487  11.020  20.708  0.00  0.00    +0.000 A 
ENDBRANCH  19  20
ENDBRANCH  18  19
ENDBRANCH  17  18
ENDBRANCH  16  17
ENDBRANCH  15  16
ENDBRANCH  10  15
TORSDOF 6
ENDMDL
