MODEL 1
REMARK VINA RESULT:      -8.0      0.000      0.000
REMARK  Name = 
REMARK  8 active torsions:
REMARK  status: ('A' for Active; 'I' for Inactive)
REMARK    1  A    between atoms: C_2  and  C_3
REMARK    2  A    between atoms: C_2  and  C_19
REMARK    3  A    between atoms: N_5  and  C_6
REMARK    4  A    between atoms: C_6  and  C_7
REMARK    5  A    between atoms: N_9  and  C_10
REMARK    6  A    between atoms: C_10  and  C_11
REMARK    7  A    between atoms: C_22  and  C_23
REMARK    8  A    between atoms: C_28  and  C_29
REMARK                            x       y       z     vdW  Elec       q    Type
REMARK                         _______ _______ _______ _____ _____    ______ ____
ROOT
ATOM      1  C   UNL     1       1.761   8.192  19.503  0.00  0.00    +0.000 C 
ATOM      2  O   UNL     1       1.751   7.976  20.714  0.00  0.00    +0.000 OA
ATOM      3  N   UNL     1       1.071   9.240  18.962  0.00  0.00    +0.000 N 
ATOM      4  H   UNL     1       0.923   9.324  17.968  0.00  0.00    +0.000 HD
ENDROOT
BRANCH   1   6
ATOM      5  C   UNL     1       1.857   7.000  17.455  0.00  0.00    +0.000 C 
ATOM      6  C   UNL     1       2.551   7.315  18.567  0.00  0.00    +0.000 C 
BRANCH   6   7
ATOM      7  C   UNL     1       3.956   6.800  18.896  0.00  0.00    +0.000 C 
ATOM      8  C   UNL     1       4.918   6.789  17.689  0.00  0.00    +0.000 C 
ATOM      9  C   UNL     1       4.733   5.746  16.580  0.00  0.00    +0.000 C 
ATOM     10  C   UNL     1       4.989   4.288  16.994  0.00  0.00    +0.000 C 
ATOM     11  C   UNL     1       5.304   3.467  15.734  0.00  0.00    +0.000 C 
ATOM     12  C   UNL     1       3.926   3.581  17.874  0.00  0.00    +0.000 C 
ATOM     13  C   UNL     1       2.707   2.961  17.178  0.00  0.00    +0.000 C 
ATOM     14  C   UNL     1       1.686   2.962  18.288  0.00  0.00    +0.000 C 
ATOM     15  O   UNL     1       0.641   2.339  18.279  0.00  0.00    +0.000 OA
ATOM     16  C   UNL     1       2.081   3.905  19.356  0.00  0.00    +0.000 C 
ATOM     17  C   UNL     1       1.186   4.331  20.461  0.00  0.00    +0.000 C 
ATOM     18  C   UNL     1       3.296   4.346  19.013  0.00  0.00    +0.000 C 
ATOM     19  C   UNL     1       4.006   5.470  19.688  0.00  0.00    +0.000 C 
ENDBRANCH   6   7
ENDBRANCH   1   6
BRANCH   3  20
ATOM     20  C   UNL     1       0.304  10.123  19.818  0.00  0.00    +0.000 C 
BRANCH  20  21
ATOM     21  C   UNL     1      -0.818  10.741  19.071  0.00  0.00    +0.000 A 
ATOM     22  C   UNL     1      -1.463  10.317  17.924  0.00  0.00    +0.000 A 
ATOM     23  N   UNL     1      -2.453  11.237  17.736  0.00  0.00    +0.000 N 
ATOM     24  N   UNL     1      -2.436  12.171  18.709  0.00  0.00    +0.000 NA
ATOM     25  N   UNL     1      -1.430  11.884  19.524  0.00  0.00    +0.000 NA
BRANCH  23  26
ATOM     26  C   UNL     1      -3.535  11.199  16.772  0.00  0.00    +0.000 C 
BRANCH  26  27
ATOM     27  C   UNL     1      -4.885  11.394  17.414  0.00  0.00    +0.000 A 
ATOM     28  C   UNL     1      -5.353  10.498  18.387  0.00  0.00    +0.000 A 
ATOM     29  C   UNL     1      -6.598  10.692  18.988  0.00  0.00    +0.000 A 
ATOM     30  C   UNL     1      -7.388  11.781  18.626  0.00  0.00    +0.000 A 
ATOM     31  C   UNL     1      -6.938  12.674  17.655  0.00  0.00    +0.000 A 
ATOM     32  C   UNL     1      -5.696  12.480  17.048  0.00  0.00    +0.000 A 
ENDBRANCH  26  27
ENDBRANCH  23  26
ENDBRANCH  20  21
ENDBRANCH   3  20
TORSDOF 6
ENDMDL
MODEL 2
REMARK VINA RESULT:      -7.9      7.842     11.652
REMARK  Name = 
REMARK  8 active torsions:
REMARK  status: ('A' for Active; 'I' for Inactive)
REMARK    1  A    between atoms: C_2  and  C_3
REMARK    2  A    between atoms: C_2  and  C_19
REMARK    3  A    between atoms: N_5  and  C_6
REMARK    4  A    between atoms: C_6  and  C_7
REMARK    5  A    between atoms: N_9  and  C_10
REMARK    6  A    between atoms: C_10  and  C_11
REMARK    7  A    between atoms: C_22  and  C_23
REMARK    8  A    between atoms: C_28  and  C_29
REMARK                            x       y       z     vdW  Elec       q    Type
REMARK                         _______ _______ _______ _____ _____    ______ ____
ROOT
ATOM      1  C   UNL     1       9.381  11.566  18.110  0.00  0.00    +0.000 C 
ATOM      2  O   UNL     1       8.499  12.371  17.812  0.00  0.00    +0.000 OA
ATOM      3  N   UNL     1       9.155  10.219  18.076  0.00  0.00    +0.000 N 
ATOM      4  H   UNL     1       9.800   9.560  18.484  0.00  0.00    +0.000 HD
ENDROOT
BRANCH   1   6
ATOM      5  C   UNL     1      11.611  12.059  17.471  0.00  0.00    +0.000 C 
ATOM      6  C   UNL     1      10.755  12.037  18.512  0.00  0.00    +0.000 C 
BRANCH   6   7
ATOM      7  C   UNL     1      11.127  12.381  19.957  0.00  0.00    +0.000 C 
ATOM      8  C   UNL     1      10.261  11.663  21.014  0.00  0.00    +0.000 C 
ATOM      9  C   UNL     1       8.806  12.097  21.226  0.00  0.00    +0.000 C 
ATOM     10  C   UNL     1       8.613  13.509  21.802  0.00  0.00    +0.000 C 
ATOM     11  C   UNL     1       7.223  13.589  22.452  0.00  0.00    +0.000 C 
ATOM     12  C   UNL     1       8.866  14.719  20.867  0.00  0.00    +0.000 C 
ATOM     13  C   UNL     1       7.733  15.161  19.931  0.00  0.00    +0.000 C 
ATOM     14  C   UNL     1       8.496  15.853  18.831  0.00  0.00    +0.000 C 
ATOM     15  O   UNL     1       8.005  16.581  17.988  0.00  0.00    +0.000 OA
ATOM     16  C   UNL     1       9.918  15.451  18.852  0.00  0.00    +0.000 C 
ATOM     17  C   UNL     1      10.883  15.749  17.762  0.00  0.00    +0.000 C 
ATOM     18  C   UNL     1      10.059  14.689  19.942  0.00  0.00    +0.000 C 
ATOM     19  C   UNL     1      11.278  13.892  20.262  0.00  0.00    +0.000 C 
ENDBRANCH   6   7
ENDBRANCH   1   6
BRANCH   3  20
ATOM     20  C   UNL     1       7.855   9.711  17.684  0.00  0.00    +0.000 C 
BRANCH  20  21
ATOM     21  C   UNL     1       7.763   8.251  17.927  0.00  0.00    +0.000 A 
ATOM     22  C   UNL     1       7.065   7.278  17.237  0.00  0.00    +0.000 A 
ATOM     23  N   UNL     1       7.404   6.114  17.864  0.00  0.00    +0.000 N 
ATOM     24  N   UNL     1       8.267   6.343  18.874  0.00  0.00    +0.000 NA
ATOM     25  N   UNL     1       8.483   7.650  18.930  0.00  0.00    +0.000 NA
BRANCH  23  26
ATOM     26  C   UNL     1       7.087   4.758  17.460  0.00  0.00    +0.000 C 
BRANCH  26  27
ATOM     27  C   UNL     1       5.661   4.381  17.773  0.00  0.00    +0.000 A 
ATOM     28  C   UNL     1       5.195   4.377  19.096  0.00  0.00    +0.000 A 
ATOM     29  C   UNL     1       3.869   4.042  19.378  0.00  0.00    +0.000 A 
ATOM     30  C   UNL     1       2.996   3.708  18.345  0.00  0.00    +0.000 A 
ATOM     31  C   UNL     1       3.449   3.701  17.027  0.00  0.00    +0.000 A 
ATOM     32  C   UNL     1       4.776   4.031  16.742  0.00  0.00    +0.000 A 
ENDBRANCH  26  27
ENDBRANCH  23  26
ENDBRANCH  20  21
ENDBRANCH   3  20
TORSDOF 6
ENDMDL
MODEL 3
REMARK VINA RESULT:      -7.8      0.867      1.066
REMARK  Name = 
REMARK  8 active torsions:
REMARK  status: ('A' for Active; 'I' for Inactive)
REMARK    1  A    between atoms: C_2  and  C_3
REMARK    2  A    between atoms: C_2  and  C_19
REMARK    3  A    between atoms: N_5  and  C_6
REMARK    4  A    between atoms: C_6  and  C_7
REMARK    5  A    between atoms: N_9  and  C_10
REMARK    6  A    between atoms: C_10  and  C_11
REMARK    7  A    between atoms: C_22  and  C_23
REMARK    8  A    between atoms: C_28  and  C_29
REMARK                            x       y       z     vdW  Elec       q    Type
REMARK                         _______ _______ _______ _____ _____    ______ ____
ROOT
ATOM      1  C   UNL     1       1.813   8.120  19.475  0.00  0.00    +0.000 C 
ATOM      2  O   UNL     1       1.592   7.827  20.650  0.00  0.00    +0.000 OA
ATOM      3  N   UNL     1       1.392   9.308  18.947  0.00  0.00    +0.000 N 
ATOM      4  H   UNL     1       1.405   9.484  17.954  0.00  0.00    +0.000 HD
ENDROOT
BRANCH   1   6
ATOM      5  C   UNL     1       1.842   6.797  17.507  0.00  0.00    +0.000 C 
ATOM      6  C   UNL     1       2.571   7.181  18.573  0.00  0.00    +0.000 C 
BRANCH   6   7
ATOM      7  C   UNL     1       3.985   6.683  18.891  0.00  0.00    +0.000 C 
ATOM      8  C   UNL     1       4.933   6.673  17.674  0.00  0.00    +0.000 C 
ATOM      9  C   UNL     1       4.748   5.619  16.575  0.00  0.00    +0.000 C 
ATOM     10  C   UNL     1       5.024   4.167  16.998  0.00  0.00    +0.000 C 
ATOM     11  C   UNL     1       5.334   3.339  15.741  0.00  0.00    +0.000 C 
ATOM     12  C   UNL     1       3.978   3.456  17.894  0.00  0.00    +0.000 C 
ATOM     13  C   UNL     1       2.758   2.818  17.216  0.00  0.00    +0.000 C 
ATOM     14  C   UNL     1       1.750   2.817  18.337  0.00  0.00    +0.000 C 
ATOM     15  O   UNL     1       0.711   2.183  18.345  0.00  0.00    +0.000 OA
ATOM     16  C   UNL     1       2.146   3.772  19.394  0.00  0.00    +0.000 C 
ATOM     17  C   UNL     1       1.258   4.198  20.505  0.00  0.00    +0.000 C 
ATOM     18  C   UNL     1       3.353   4.224  19.034  0.00  0.00    +0.000 C 
ATOM     19  C   UNL     1       4.058   5.360  19.693  0.00  0.00    +0.000 C 
ENDBRANCH   6   7
ENDBRANCH   1   6
BRANCH   3  20
ATOM     20  C   UNL     1       0.668  10.253  19.773  0.00  0.00    +0.000 C 
BRANCH  20  21
ATOM     21  C   UNL     1      -0.418  10.905  19.003  0.00  0.00    +0.000 A 
ATOM     22  C   UNL     1      -1.598  10.379  18.512  0.00  0.00    +0.000 A 
ATOM     23  N   UNL     1      -2.234  11.449  17.950  0.00  0.00    +0.000 N 
ATOM     24  N   UNL     1      -1.503  12.573  18.090  0.00  0.00    +0.000 NA
ATOM     25  N   UNL     1      -0.383  12.249  18.721  0.00  0.00    +0.000 NA
BRANCH  23  26
ATOM     26  C   UNL     1      -3.584  11.510  17.425  0.00  0.00    +0.000 C 
BRANCH  26  27
ATOM     27  C   UNL     1      -4.624  11.557  18.515  0.00  0.00    +0.000 A 
ATOM     28  C   UNL     1      -4.458  12.392  19.629  0.00  0.00    +0.000 A 
ATOM     29  C   UNL     1      -5.432  12.443  20.628  0.00  0.00    +0.000 A 
ATOM     30  C   UNL     1      -6.580  11.661  20.526  0.00  0.00    +0.000 A 
ATOM     31  C   UNL     1      -6.755  10.821  19.427  0.00  0.00    +0.000 A 
ATOM     32  C   UNL     1      -5.780  10.764  18.429  0.00  0.00    +0.000 A 
ENDBRANCH  26  27
ENDBRANCH  23  26
ENDBRANCH  20  21
ENDBRANCH   3  20
TORSDOF 6
ENDMDL
MODEL 4
REMARK VINA RESULT:      -7.7      1.086      1.349
REMARK  Name = 
REMARK  8 active torsions:
REMARK  status: ('A' for Active; 'I' for Inactive)
REMARK    1  A    between atoms: C_2  and  C_3
REMARK    2  A    between atoms: C_2  and  C_19
REMARK    3  A    between atoms: N_5  and  C_6
REMARK    4  A    between atoms: C_6  and  C_7
REMARK    5  A    between atoms: N_9  and  C_10
REMARK    6  A    between atoms: C_10  and  C_11
REMARK    7  A    between atoms: C_22  and  C_23
REMARK    8  A    between atoms: C_28  and  C_29
REMARK                            x       y       z     vdW  Elec       q    Type
REMARK                         _______ _______ _______ _____ _____    ______ ____
ROOT
ATOM      1  C   UNL     1       1.899   8.111  19.172  0.00  0.00    +0.000 C 
ATOM      2  O   UNL     1       1.747   8.050  20.391  0.00  0.00    +0.000 OA
ATOM      3  N   UNL     1       1.390   9.149  18.443  0.00  0.00    +0.000 N 
ATOM      4  H   UNL     1       1.350   9.123  17.436  0.00  0.00    +0.000 HD
ENDROOT
BRANCH   1   6
ATOM      5  C   UNL     1       1.862   6.241  17.714  0.00  0.00    +0.000 C 
ATOM      6  C   UNL     1       2.669   7.046  18.434  0.00  0.00    +0.000 C 
BRANCH   6   7
ATOM      7  C   UNL     1       4.186   6.880  18.558  0.00  0.00    +0.000 C 
ATOM      8  C   UNL     1       4.930   6.898  17.206  0.00  0.00    +0.000 C 
ATOM      9  C   UNL     1       4.819   5.694  16.262  0.00  0.00    +0.000 C 
ATOM     10  C   UNL     1       5.456   4.392  16.771  0.00  0.00    +0.000 C 
ATOM     11  C   UNL     1       5.752   3.485  15.566  0.00  0.00    +0.000 C 
ATOM     12  C   UNL     1       4.725   3.613  17.894  0.00  0.00    +0.000 C 
ATOM     13  C   UNL     1       3.585   2.666  17.495  0.00  0.00    +0.000 C 
ATOM     14  C   UNL     1       2.772   2.613  18.763  0.00  0.00    +0.000 C 
ATOM     15  O   UNL     1       1.904   1.795  19.006  0.00  0.00    +0.000 OA
ATOM     16  C   UNL     1       3.102   3.756  19.641  0.00  0.00    +0.000 C 
ATOM     17  C   UNL     1       2.313   4.140  20.839  0.00  0.00    +0.000 C 
ATOM     18  C   UNL     1       4.121   4.384  19.043  0.00  0.00    +0.000 C 
ATOM     19  C   UNL     1       4.654   5.712  19.461  0.00  0.00    +0.000 C 
ENDBRANCH   6   7
ENDBRANCH   1   6
BRANCH   3  20
ATOM     20  C   UNL     1       0.652  10.206  19.104  0.00  0.00    +0.000 C 
BRANCH  20  21
ATOM     21  C   UNL     1      -0.690  10.375  18.495  0.00  0.00    +0.000 A 
ATOM     22  C   UNL     1      -1.666  11.322  18.743  0.00  0.00    +0.000 A 
ATOM     23  N   UNL     1      -2.653  11.028  17.848  0.00  0.00    +0.000 N 
ATOM     24  N   UNL     1      -2.312   9.972  17.081  0.00  0.00    +0.000 NA
ATOM     25  N   UNL     1      -1.118   9.555  17.479  0.00  0.00    +0.000 NA
BRANCH  23  26
ATOM     26  C   UNL     1      -3.848  11.795  17.553  0.00  0.00    +0.000 C 
BRANCH  26  27
ATOM     27  C   UNL     1      -4.945  11.562  18.561  0.00  0.00    +0.000 A 
ATOM     28  C   UNL     1      -5.883  10.536  18.375  0.00  0.00    +0.000 A 
ATOM     29  C   UNL     1      -6.888  10.315  19.319  0.00  0.00    +0.000 A 
ATOM     30  C   UNL     1      -6.967  11.115  20.456  0.00  0.00    +0.000 A 
ATOM     31  C   UNL     1      -6.045  12.143  20.649  0.00  0.00    +0.000 A 
ATOM     32  C   UNL     1      -5.043  12.370  19.705  0.00  0.00    +0.000 A 
ENDBRANCH  26  27
ENDBRANCH  23  26
ENDBRANCH  20  21
ENDBRANCH   3  20
TORSDOF 6
ENDMDL
MODEL 5
REMARK VINA RESULT:      -7.6      3.463      4.514
REMARK  Name = 
REMARK  8 active torsions:
REMARK  status: ('A' for Active; 'I' for Inactive)
REMARK    1  A    between atoms: C_2  and  C_3
REMARK    2  A    between atoms: C_2  and  C_19
REMARK    3  A    between atoms: N_5  and  C_6
REMARK    4  A    between atoms: C_6  and  C_7
REMARK    5  A    between atoms: N_9  and  C_10
REMARK    6  A    between atoms: C_10  and  C_11
REMARK    7  A    between atoms: C_22  and  C_23
REMARK    8  A    between atoms: C_28  and  C_29
REMARK                            x       y       z     vdW  Elec       q    Type
REMARK                         _______ _______ _______ _____ _____    ______ ____
ROOT
ATOM      1  C   UNL     1       1.757   8.423  19.242  0.00  0.00    +0.000 C 
ATOM      2  O   UNL     1       1.689   8.323  20.467  0.00  0.00    +0.000 OA
ATOM      3  N   UNL     1       1.172   9.465  18.580  0.00  0.00    +0.000 N 
ATOM      4  H   UNL     1       1.065   9.466  17.577  0.00  0.00    +0.000 HD
ENDROOT
BRANCH   1   6
ATOM      5  C   UNL     1       1.764   6.934  17.396  0.00  0.00    +0.000 C 
ATOM      6  C   UNL     1       2.502   7.401  18.423  0.00  0.00    +0.000 C 
BRANCH   6   7
ATOM      7  C   UNL     1       3.912   6.917  18.778  0.00  0.00    +0.000 C 
ATOM      8  C   UNL     1       4.878   6.868  17.576  0.00  0.00    +0.000 C 
ATOM      9  C   UNL     1       4.710   5.776  16.512  0.00  0.00    +0.000 C 
ATOM     10  C   UNL     1       4.983   4.340  16.988  0.00  0.00    +0.000 C 
ATOM     11  C   UNL     1       5.312   3.470  15.765  0.00  0.00    +0.000 C 
ATOM     12  C   UNL     1       3.924   3.658  17.893  0.00  0.00    +0.000 C 
ATOM     13  C   UNL     1       2.716   2.994  17.220  0.00  0.00    +0.000 C 
ATOM     14  C   UNL     1       1.691   3.030  18.325  0.00  0.00    +0.000 C 
ATOM     15  O   UNL     1       0.653   2.394  18.340  0.00  0.00    +0.000 OA
ATOM     16  C   UNL     1       2.070   4.021  19.354  0.00  0.00    +0.000 C 
ATOM     17  C   UNL     1       1.165   4.483  20.437  0.00  0.00    +0.000 C 
ATOM     18  C   UNL     1       3.281   4.463  18.997  0.00  0.00    +0.000 C 
ATOM     19  C   UNL     1       3.975   5.623  19.626  0.00  0.00    +0.000 C 
ENDBRANCH   6   7
ENDBRANCH   1   6
BRANCH   3  20
ATOM     20  C   UNL     1       0.453  10.483  19.320  0.00  0.00    +0.000 C 
BRANCH  20  21
ATOM     21  C   UNL     1       1.088  11.812  19.144  0.00  0.00    +0.000 A 
ATOM     22  C   UNL     1       0.772  13.030  19.715  0.00  0.00    +0.000 A 
ATOM     23  N   UNL     1       1.730  13.880  19.243  0.00  0.00    +0.000 N 
ATOM     24  N   UNL     1       2.596  13.233  18.438  0.00  0.00    +0.000 NA
ATOM     25  N   UNL     1       2.204  11.969  18.359  0.00  0.00    +0.000 NA
BRANCH  23  26
ATOM     26  C   UNL     1       1.980  15.252  19.642  0.00  0.00    +0.000 C 
BRANCH  26  27
ATOM     27  C   UNL     1       1.318  16.248  18.724  0.00  0.00    +0.000 A 
ATOM     28  C   UNL     1      -0.072  16.439  18.757  0.00  0.00    +0.000 A 
ATOM     29  C   UNL     1      -0.678  17.374  17.915  0.00  0.00    +0.000 A 
ATOM     30  C   UNL     1       0.095  18.127  17.034  0.00  0.00    +0.000 A 
ATOM     31  C   UNL     1       1.476  17.942  16.987  0.00  0.00    +0.000 A 
ATOM     32  C   UNL     1       2.084  17.004  17.824  0.00  0.00    +0.000 A 
ENDBRANCH  26  27
ENDBRANCH  23  26
ENDBRANCH  20  21
ENDBRANCH   3  20
TORSDOF 6
ENDMDL
MODEL 6
REMARK VINA RESULT:      -7.6      5.875      9.023
REMARK  Name = 
REMARK  8 active torsions:
REMARK  status: ('A' for Active; 'I' for Inactive)
REMARK    1  A    between atoms: C_2  and  C_3
REMARK    2  A    between atoms: C_2  and  C_19
REMARK    3  A    between atoms: N_5  and  C_6
REMARK    4  A    between atoms: C_6  and  C_7
REMARK    5  A    between atoms: N_9  and  C_10
REMARK    6  A    between atoms: C_10  and  C_11
REMARK    7  A    between atoms: C_22  and  C_23
REMARK    8  A    between atoms: C_28  and  C_29
REMARK                            x       y       z     vdW  Elec       q    Type
REMARK                         _______ _______ _______ _____ _____    ______ ____
ROOT
ATOM      1  C   UNL     1       5.514   5.190  18.439  0.00  0.00    +0.000 C 
ATOM      2  O   UNL     1       5.329   5.215  19.655  0.00  0.00    +0.000 OA
ATOM      3  N   UNL     1       6.672   5.660  17.887  0.00  0.00    +0.000 N 
ATOM      4  H   UNL     1       6.766   5.812  16.894  0.00  0.00    +0.000 HD
ENDROOT
BRANCH   1   6
ATOM      5  C   UNL     1       4.898   3.506  16.888  0.00  0.00    +0.000 C 
ATOM      6  C   UNL     1       4.473   4.624  17.509  0.00  0.00    +0.000 C 
BRANCH   6   7
ATOM      7  C   UNL     1       3.119   5.299  17.266  0.00  0.00    +0.000 C 
ATOM      8  C   UNL     1       3.075   6.782  17.688  0.00  0.00    +0.000 C 
ATOM      9  C   UNL     1       3.053   7.148  19.178  0.00  0.00    +0.000 C 
ATOM     10  C   UNL     1       1.786   6.731  19.943  0.00  0.00    +0.000 C 
ATOM     11  C   UNL     1       1.663   7.604  21.202  0.00  0.00    +0.000 C 
ATOM     12  C   UNL     1       1.598   5.230  20.281  0.00  0.00    +0.000 C 
ATOM     13  C   UNL     1       2.296   4.676  21.530  0.00  0.00    +0.000 C 
ATOM     14  C   UNL     1       2.416   3.212  21.190  0.00  0.00    +0.000 C 
ATOM     15  O   UNL     1       2.683   2.328  21.983  0.00  0.00    +0.000 OA
ATOM     16  C   UNL     1       2.262   3.001  19.735  0.00  0.00    +0.000 C 
ATOM     17  C   UNL     1       2.574   1.725  19.042  0.00  0.00    +0.000 C 
ATOM     18  C   UNL     1       1.940   4.198  19.232  0.00  0.00    +0.000 C 
ATOM     19  C   UNL     1       1.886   4.514  17.776  0.00  0.00    +0.000 C 
ENDBRANCH   6   7
ENDBRANCH   1   6
BRANCH   3  20
ATOM     20  C   UNL     1       7.713   6.204  18.736  0.00  0.00    +0.000 C 
BRANCH  20  21
ATOM     21  C   UNL     1       7.983   7.623  18.398  0.00  0.00    +0.000 A 
ATOM     22  C   UNL     1       8.907   8.502  18.930  0.00  0.00    +0.000 A 
ATOM     23  N   UNL     1       8.751   9.640  18.191  0.00  0.00    +0.000 N 
ATOM     24  N   UNL     1       7.799   9.478  17.251  0.00  0.00    +0.000 NA
ATOM     25  N   UNL     1       7.312   8.251  17.378  0.00  0.00    +0.000 NA
BRANCH  23  26
ATOM     26  C   UNL     1       9.572  10.835  18.210  0.00  0.00    +0.000 C 
BRANCH  26  27
ATOM     27  C   UNL     1       9.278  11.718  19.396  0.00  0.00    +0.000 A 
ATOM     28  C   UNL     1       9.396  11.225  20.703  0.00  0.00    +0.000 A 
ATOM     29  C   UNL     1       9.136  12.051  21.798  0.00  0.00    +0.000 A 
ATOM     30  C   UNL     1       8.757  13.377  21.600  0.00  0.00    +0.000 A 
ATOM     31  C   UNL     1       8.630  13.877  20.305  0.00  0.00    +0.000 A 
ATOM     32  C   UNL     1       8.883  13.052  19.208  0.00  0.00    +0.000 A 
ENDBRANCH  26  27
ENDBRANCH  23  26
ENDBRANCH  20  21
ENDBRANCH   3  20
TORSDOF 6
ENDMDL
MODEL 7
REMARK VINA RESULT:      -7.6      4.157     10.348
REMARK  Name = 
REMARK  8 active torsions:
REMARK  status: ('A' for Active; 'I' for Inactive)
REMARK    1  A    between atoms: C_2  and  C_3
REMARK    2  A    between atoms: C_2  and  C_19
REMARK    3  A    between atoms: N_5  and  C_6
REMARK    4  A    between atoms: C_6  and  C_7
REMARK    5  A    between atoms: N_9  and  C_10
REMARK    6  A    between atoms: C_10  and  C_11
REMARK    7  A    between atoms: C_22  and  C_23
REMARK    8  A    between atoms: C_28  and  C_29
REMARK                            x       y       z     vdW  Elec       q    Type
REMARK                         _______ _______ _______ _____ _____    ______ ____
ROOT
ATOM      1  C   UNL     1      -0.694  11.696  20.106  0.00  0.00    +0.000 C 
ATOM      2  O   UNL     1      -1.567  11.340  19.316  0.00  0.00    +0.000 OA
ATOM      3  N   UNL     1       0.623  11.400  19.892  0.00  0.00    +0.000 N 
ATOM      4  H   UNL     1       1.321  11.525  20.608  0.00  0.00    +0.000 HD
ENDROOT
BRANCH   1   6
ATOM      5  C   UNL     1      -1.370  11.697  22.379  0.00  0.00    +0.000 C 
ATOM      6  C   UNL     1      -1.042  12.489  21.339  0.00  0.00    +0.000 C 
BRANCH   6   7
ATOM      7  C   UNL     1      -1.077  14.020  21.362  0.00  0.00    +0.000 C 
ATOM      8  C   UNL     1      -0.504  14.641  22.654  0.00  0.00    +0.000 C 
ATOM      9  C   UNL     1      -1.303  14.547  23.960  0.00  0.00    +0.000 C 
ATOM     10  C   UNL     1      -2.625  15.331  23.985  0.00  0.00    +0.000 C 
ATOM     11  C   UNL     1      -3.012  15.595  25.448  0.00  0.00    +0.000 C 
ATOM     12  C   UNL     1      -3.823  14.767  23.180  0.00  0.00    +0.000 C 
ATOM     13  C   UNL     1      -4.686  13.679  23.832  0.00  0.00    +0.000 C 
ATOM     14  C   UNL     1      -5.269  12.985  22.627  0.00  0.00    +0.000 C 
ATOM     15  O   UNL     1      -6.209  12.212  22.650  0.00  0.00    +0.000 OA
ATOM     16  C   UNL     1      -4.480  13.295  21.417  0.00  0.00    +0.000 C 
ATOM     17  C   UNL     1      -4.629  12.583  20.122  0.00  0.00    +0.000 C 
ATOM     18  C   UNL     1      -3.575  14.203  21.801  0.00  0.00    +0.000 C 
ATOM     19  C   UNL     1      -2.430  14.659  20.963  0.00  0.00    +0.000 C 
ENDBRANCH   6   7
ENDBRANCH   1   6
BRANCH   3  20
ATOM     20  C   UNL     1       1.015  10.650  18.715  0.00  0.00    +0.000 C 
BRANCH  20  21
ATOM     21  C   UNL     1       1.451   9.281  19.082  0.00  0.00    +0.000 A 
ATOM     22  C   UNL     1       2.161   8.348  18.349  0.00  0.00    +0.000 A 
ATOM     23  N   UNL     1       2.330   7.303  19.211  0.00  0.00    +0.000 N 
ATOM     24  N   UNL     1       1.772   7.570  20.409  0.00  0.00    +0.000 NA
ATOM     25  N   UNL     1       1.218   8.773  20.336  0.00  0.00    +0.000 NA
BRANCH  23  26
ATOM     26  C   UNL     1       3.142   6.116  19.026  0.00  0.00    +0.000 C 
BRANCH  26  27
ATOM     27  C   UNL     1       2.378   4.847  19.302  0.00  0.00    +0.000 A 
ATOM     28  C   UNL     1       1.772   4.133  18.257  0.00  0.00    +0.000 A 
ATOM     29  C   UNL     1       1.078   2.949  18.518  0.00  0.00    +0.000 A 
ATOM     30  C   UNL     1       0.981   2.467  19.821  0.00  0.00    +0.000 A 
ATOM     31  C   UNL     1       1.573   3.170  20.869  0.00  0.00    +0.000 A 
ATOM     32  C   UNL     1       2.263   4.357  20.612  0.00  0.00    +0.000 A 
ENDBRANCH  26  27
ENDBRANCH  23  26
ENDBRANCH  20  21
ENDBRANCH   3  20
TORSDOF 6
ENDMDL
MODEL 8
REMARK VINA RESULT:      -7.5      3.204      4.599
REMARK  Name = 
REMARK  8 active torsions:
REMARK  status: ('A' for Active; 'I' for Inactive)
REMARK    1  A    between atoms: C_2  and  C_3
REMARK    2  A    between atoms: C_2  and  C_19
REMARK    3  A    between atoms: N_5  and  C_6
REMARK    4  A    between atoms: C_6  and  C_7
REMARK    5  A    between atoms: N_9  and  C_10
REMARK    6  A    between atoms: C_10  and  C_11
REMARK    7  A    between atoms: C_22  and  C_23
REMARK    8  A    between atoms: C_28  and  C_29
REMARK                            x       y       z     vdW  Elec       q    Type
REMARK                         _______ _______ _______ _____ _____    ______ ____
ROOT
ATOM      1  C   UNL     1       1.814   7.833  19.921  0.00  0.00    +0.000 C 
ATOM      2  O   UNL     1       1.796   7.360  21.056  0.00  0.00    +0.000 OA
ATOM      3  N   UNL     1       1.094   8.951  19.604  0.00  0.00    +0.000 N 
ATOM      4  H   UNL     1       0.956   9.243  18.649  0.00  0.00    +0.000 HD
ENDROOT
BRANCH   1   6
ATOM      5  C   UNL     1       1.997   7.163  17.653  0.00  0.00    +0.000 C 
ATOM      6  C   UNL     1       2.647   7.204  18.834  0.00  0.00    +0.000 C 
BRANCH   6   7
ATOM      7  C   UNL     1       4.042   6.625  19.084  0.00  0.00    +0.000 C 
ATOM      8  C   UNL     1       4.971   6.673  17.853  0.00  0.00    +0.000 C 
ATOM      9  C   UNL     1       4.724   5.718  16.678  0.00  0.00    +0.000 C 
ATOM     10  C   UNL     1       4.944   4.227  16.980  0.00  0.00    +0.000 C 
ATOM     11  C   UNL     1       5.199   3.490  15.656  0.00  0.00    +0.000 C 
ATOM     12  C   UNL     1       3.883   3.491  17.837  0.00  0.00    +0.000 C 
ATOM     13  C   UNL     1       2.627   2.959  17.134  0.00  0.00    +0.000 C 
ATOM     14  C   UNL     1       1.637   2.911  18.270  0.00  0.00    +0.000 C 
ATOM     15  O   UNL     1       0.572   2.321  18.247  0.00  0.00    +0.000 OA
ATOM     16  C   UNL     1       2.089   3.761  19.391  0.00  0.00    +0.000 C 
ATOM     17  C   UNL     1       1.238   4.134  20.549  0.00  0.00    +0.000 C 
ATOM     18  C   UNL     1       3.309   4.190  19.046  0.00  0.00    +0.000 C 
ATOM     19  C   UNL     1       4.072   5.241  19.778  0.00  0.00    +0.000 C 
ENDBRANCH   6   7
ENDBRANCH   1   6
BRANCH   3  20
ATOM     20  C   UNL     1       0.286   9.603  20.615  0.00  0.00    +0.000 C 
BRANCH  20  21
ATOM     21  C   UNL     1       0.441  11.077  20.545  0.00  0.00    +0.000 A 
ATOM     22  C   UNL     1      -0.042  11.978  19.615  0.00  0.00    +0.000 A 
ATOM     23  N   UNL     1       0.351  13.195  20.093  0.00  0.00    +0.000 N 
ATOM     24  N   UNL     1       1.025  13.064  21.253  0.00  0.00    +0.000 NA
ATOM     25  N   UNL     1       1.099  11.770  21.532  0.00  0.00    +0.000 NA
BRANCH  23  26
ATOM     26  C   UNL     1      -0.019  14.508  19.600  0.00  0.00    +0.000 C 
BRANCH  26  27
ATOM     27  C   UNL     1       1.106  15.182  18.857  0.00  0.00    +0.000 A 
ATOM     28  C   UNL     1       1.070  16.561  18.599  0.00  0.00    +0.000 A 
ATOM     29  C   UNL     1       2.122  17.183  17.923  0.00  0.00    +0.000 A 
ATOM     30  C   UNL     1       3.218  16.436  17.498  0.00  0.00    +0.000 A 
ATOM     31  C   UNL     1       3.263  15.065  17.741  0.00  0.00    +0.000 A 
ATOM     32  C   UNL     1       2.210  14.439  18.412  0.00  0.00    +0.000 A 
ENDBRANCH  26  27
ENDBRANCH  23  26
ENDBRANCH  20  21
ENDBRANCH   3  20
TORSDOF 6
ENDMDL
MODEL 9
REMARK VINA RESULT:      -7.5      3.555      5.371
REMARK  Name = 
REMARK  8 active torsions:
REMARK  status: ('A' for Active; 'I' for Inactive)
REMARK    1  A    between atoms: C_2  and  C_3
REMARK    2  A    between atoms: C_2  and  C_19
REMARK    3  A    between atoms: N_5  and  C_6
REMARK    4  A    between atoms: C_6  and  C_7
REMARK    5  A    between atoms: N_9  and  C_10
REMARK    6  A    between atoms: C_10  and  C_11
REMARK    7  A    between atoms: C_22  and  C_23
REMARK    8  A    between atoms: C_28  and  C_29
REMARK                            x       y       z     vdW  Elec       q    Type
REMARK                         _______ _______ _______ _____ _____    ______ ____
ROOT
ATOM      1  C   UNL     1       1.842   8.076  19.693  0.00  0.00    +0.000 C 
ATOM      2  O   UNL     1       1.807   7.722  20.871  0.00  0.00    +0.000 OA
ATOM      3  N   UNL     1       1.179   9.193  19.266  0.00  0.00    +0.000 N 
ATOM      4  H   UNL     1       1.050   9.394  18.287  0.00  0.00    +0.000 HD
ENDROOT
BRANCH   1   6
ATOM      5  C   UNL     1       1.941   7.107  17.531  0.00  0.00    +0.000 C 
ATOM      6  C   UNL     1       2.631   7.297  18.673  0.00  0.00    +0.000 C 
BRANCH   6   7
ATOM      7  C   UNL     1       4.030   6.739  18.953  0.00  0.00    +0.000 C 
ATOM      8  C   UNL     1       4.963   6.743  17.724  0.00  0.00    +0.000 C 
ATOM      9  C   UNL     1       4.728   5.738  16.589  0.00  0.00    +0.000 C 
ATOM     10  C   UNL     1       4.958   4.263  16.953  0.00  0.00    +0.000 C 
ATOM     11  C   UNL     1       5.224   3.474  15.661  0.00  0.00    +0.000 C 
ATOM     12  C   UNL     1       3.898   3.555  17.835  0.00  0.00    +0.000 C 
ATOM     13  C   UNL     1       2.649   2.986  17.149  0.00  0.00    +0.000 C 
ATOM     14  C   UNL     1       1.654   2.977  18.282  0.00  0.00    +0.000 C 
ATOM     15  O   UNL     1       0.594   2.379  18.279  0.00  0.00    +0.000 OA
ATOM     16  C   UNL     1       2.096   3.876  19.369  0.00  0.00    +0.000 C 
ATOM     17  C   UNL     1       1.236   4.289  20.508  0.00  0.00    +0.000 C 
ATOM     18  C   UNL     1       3.313   4.299  19.011  0.00  0.00    +0.000 C 
ATOM     19  C   UNL     1       4.066   5.385  19.703  0.00  0.00    +0.000 C 
ENDBRANCH   6   7
ENDBRANCH   1   6
BRANCH   3  20
ATOM     20  C   UNL     1       0.414   9.986  20.208  0.00  0.00    +0.000 C 
BRANCH  20  21
ATOM     21  C   UNL     1       0.884  11.393  20.217  0.00  0.00    +0.000 A 
ATOM     22  C   UNL     1       0.908  12.329  19.200  0.00  0.00    +0.000 A 
ATOM     23  N   UNL     1       1.377  13.462  19.798  0.00  0.00    +0.000 N 
ATOM     24  N   UNL     1       1.620  13.253  21.108  0.00  0.00    +0.000 NA
ATOM     25  N   UNL     1       1.335  11.985  21.372  0.00  0.00    +0.000 NA
BRANCH  23  26
ATOM     26  C   UNL     1       1.457  14.799  19.240  0.00  0.00    +0.000 C 
BRANCH  26  27
ATOM     27  C   UNL     1       2.878  15.243  19.009  0.00  0.00    +0.000 A 
ATOM     28  C   UNL     1       3.729  14.513  18.165  0.00  0.00    +0.000 A 
ATOM     29  C   UNL     1       5.041  14.938  17.943  0.00  0.00    +0.000 A 
ATOM     30  C   UNL     1       5.516  16.093  18.559  0.00  0.00    +0.000 A 
ATOM     31  C   UNL     1       4.683  16.824  19.404  0.00  0.00    +0.000 A 
ATOM     32  C   UNL     1       3.373  16.399  19.633  0.00  0.00    +0.000 A 
ENDBRANCH  26  27
ENDBRANCH  23  26
ENDBRANCH  20  21
ENDBRANCH   3  20
TORSDOF 6
ENDMDL
