MODEL 1
REMARK VINA RESULT:      -9.0      0.000      0.000
REMARK  Name = 
REMARK  8 active torsions:
REMARK  status: ('A' for Active; 'I' for Inactive)
REMARK    1  A    between atoms: C_1  and  N_2
REMARK    2  A    between atoms: N_2  and  C_19
REMARK    3  A    between atoms: N_5  and  C_6
REMARK    4  A    between atoms: C_9  and  O_10
REMARK    5  A    between atoms: O_10  and  C_11
REMARK    6  A    between atoms: C_19  and  C_20
REMARK    7  A    between atoms: C_19  and  C_27
REMARK    8  A    between atoms: C_20  and  C_21
REMARK                            x       y       z     vdW  Elec       q    Type
REMARK                         _______ _______ _______ _____ _____    ______ ____
ROOT
ATOM      1  C   UNL     1       4.075   2.663  18.039  0.00  0.00    +0.000 C 
ATOM      2  N   UNL     1       4.161   4.052  17.598  0.00  0.00    +0.000 N 
ATOM      3  C   UNL     1       3.415   4.947  18.369  0.00  0.00    +0.000 C 
ATOM      4  O   UNL     1       2.849   4.602  19.406  0.00  0.00    +0.000 OA
ATOM      5  N   UNL     1       3.306   6.219  17.842  0.00  0.00    +0.000 N 
ATOM      6  H   UNL     1       3.173   6.210  16.843  0.00  0.00    +0.000 HD
ENDROOT
BRANCH   5   7
ATOM      7  C   UNL     1       2.581   7.207  18.540  0.00  0.00    +0.000 A 
ATOM      8  C   UNL     1       2.287   7.047  19.897  0.00  0.00    +0.000 A 
ATOM      9  C   UNL     1       1.587   8.042  20.578  0.00  0.00    +0.000 A 
ATOM     10  C   UNL     1       1.153   9.180  19.904  0.00  0.00    +0.000 A 
ATOM     11  C   UNL     1       1.380   9.302  18.530  0.00  0.00    +0.000 A 
ATOM     12  C   UNL     1       2.145   8.343  17.859  0.00  0.00    +0.000 A 
BRANCH  10  13
ATOM     13  O   UNL     1       0.457  10.093  20.664  0.00  0.00    +0.000 OA
BRANCH  13  14
ATOM     14  C   UNL     1       0.105  11.310  20.127  0.00  0.00    +0.000 A 
ATOM     15  C   UNL     1       1.080  12.309  20.196  0.00  0.00    +0.000 A 
ATOM     16  C   UNL     1       0.814  13.585  19.695  0.00  0.00    +0.000 A 
ATOM     17  C   UNL     1      -0.428  13.867  19.129  0.00  0.00    +0.000 A 
ATOM     18  C   UNL     1      -1.389  12.863  19.023  0.00  0.00    +0.000 A 
ATOM     19  C   UNL     1      -1.110  11.578  19.487  0.00  0.00    +0.000 A 
ENDBRANCH  13  14
ENDBRANCH  10  13
ENDBRANCH   5   7
BRANCH   2  20
ATOM     20  C   UNL     1       5.325   4.481  16.759  0.00  0.00    +0.000 C 
BRANCH  20  21
ATOM     21  C   UNL     1       6.390   5.342  17.452  0.00  0.00    +0.000 A 
ATOM     22  C   UNL     1       7.072   4.949  18.611  0.00  0.00    +0.000 A 
ATOM     23  C   UNL     1       7.990   5.811  19.224  0.00  0.00    +0.000 A 
ATOM     24  C   UNL     1       8.208   7.092  18.719  0.00  0.00    +0.000 A 
ATOM     25  C   UNL     1       7.535   7.507  17.578  0.00  0.00    +0.000 A 
ATOM     26  C   UNL     1       6.663   6.630  16.934  0.00  0.00    +0.000 A 
ENDBRANCH  20  21
BRANCH  20  27
ATOM     27  C   UNL     1       4.952   5.043  15.340  0.00  0.00    +0.000 C 
BRANCH  27  28
ATOM     28  C   UNL     1       5.677   4.521  14.112  0.00  0.00    +0.000 A 
ATOM     29  C   UNL     1       5.102   3.605  13.220  0.00  0.00    +0.000 A 
ATOM     30  C   UNL     1       5.793   3.158  12.093  0.00  0.00    +0.000 A 
ATOM     31  C   UNL     1       7.071   3.634  11.827  0.00  0.00    +0.000 A 
ATOM     32  C   UNL     1       7.655   4.560  12.687  0.00  0.00    +0.000 A 
ATOM     33  C   UNL     1       6.962   5.005  13.814  0.00  0.00    +0.000 A 
ENDBRANCH  27  28
ENDBRANCH  20  27
ENDBRANCH   2  20
TORSDOF 7
ENDMDL
MODEL 2
REMARK VINA RESULT:      -9.0      0.261      1.496
REMARK  Name = 
REMARK  8 active torsions:
REMARK  status: ('A' for Active; 'I' for Inactive)
REMARK    1  A    between atoms: C_1  and  N_2
REMARK    2  A    between atoms: N_2  and  C_19
REMARK    3  A    between atoms: N_5  and  C_6
REMARK    4  A    between atoms: C_9  and  O_10
REMARK    5  A    between atoms: O_10  and  C_11
REMARK    6  A    between atoms: C_19  and  C_20
REMARK    7  A    between atoms: C_19  and  C_27
REMARK    8  A    between atoms: C_20  and  C_21
REMARK                            x       y       z     vdW  Elec       q    Type
REMARK                         _______ _______ _______ _____ _____    ______ ____
ROOT
ATOM      1  C   UNL     1       3.912   2.594  17.780  0.00  0.00    +0.000 C 
ATOM      2  N   UNL     1       4.055   3.999  17.410  0.00  0.00    +0.000 N 
ATOM      3  C   UNL     1       3.322   4.881  18.209  0.00  0.00    +0.000 C 
ATOM      4  O   UNL     1       2.722   4.505  19.215  0.00  0.00    +0.000 OA
ATOM      5  N   UNL     1       3.269   6.180  17.743  0.00  0.00    +0.000 N 
ATOM      6  H   UNL     1       3.159   6.224  16.742  0.00  0.00    +0.000 HD
ENDROOT
BRANCH   5   7
ATOM      7  C   UNL     1       2.562   7.157  18.473  0.00  0.00    +0.000 A 
ATOM      8  C   UNL     1       2.150   8.343  17.859  0.00  0.00    +0.000 A 
ATOM      9  C   UNL     1       1.435   9.292  18.589  0.00  0.00    +0.000 A 
ATOM     10  C   UNL     1       1.157   9.075  19.936  0.00  0.00    +0.000 A 
ATOM     11  C   UNL     1       1.637   7.924  20.568  0.00  0.00    +0.000 A 
ATOM     12  C   UNL     1       2.290   6.938  19.823  0.00  0.00    +0.000 A 
BRANCH  10  13
ATOM     13  O   UNL     1       0.460  10.079  20.569  0.00  0.00    +0.000 OA
BRANCH  13  14
ATOM     14  C   UNL     1       0.214  11.265  19.916  0.00  0.00    +0.000 A 
ATOM     15  C   UNL     1      -0.986  11.329  19.203  0.00  0.00    +0.000 A 
ATOM     16  C   UNL     1      -1.320  12.483  18.491  0.00  0.00    +0.000 A 
ATOM     17  C   UNL     1      -0.452  13.575  18.487  0.00  0.00    +0.000 A 
ATOM     18  C   UNL     1       0.726  13.530  19.230  0.00  0.00    +0.000 A 
ATOM     19  C   UNL     1       1.041  12.393  19.972  0.00  0.00    +0.000 A 
ENDBRANCH  13  14
ENDBRANCH  10  13
ENDBRANCH   5   7
BRANCH   2  20
ATOM     20  C   UNL     1       5.252   4.427  16.619  0.00  0.00    +0.000 C 
BRANCH  20  21
ATOM     21  C   UNL     1       6.310   5.251  17.365  0.00  0.00    +0.000 A 
ATOM     22  C   UNL     1       6.945   4.819  18.537  0.00  0.00    +0.000 A 
ATOM     23  C   UNL     1       7.859   5.649  19.199  0.00  0.00    +0.000 A 
ATOM     24  C   UNL     1       8.119   6.935  18.731  0.00  0.00    +0.000 A 
ATOM     25  C   UNL     1       7.493   7.389  17.577  0.00  0.00    +0.000 A 
ATOM     26  C   UNL     1       6.626   6.544  16.885  0.00  0.00    +0.000 A 
ENDBRANCH  20  21
BRANCH  20  27
ATOM     27  C   UNL     1       4.933   5.032  15.204  0.00  0.00    +0.000 C 
BRANCH  27  28
ATOM     28  C   UNL     1       5.668   4.509  13.981  0.00  0.00    +0.000 A 
ATOM     29  C   UNL     1       6.978   4.892  13.659  0.00  0.00    +0.000 A 
ATOM     30  C   UNL     1       7.627   4.380  12.534  0.00  0.00    +0.000 A 
ATOM     31  C   UNL     1       6.982   3.460  11.718  0.00  0.00    +0.000 A 
ATOM     32  C   UNL     1       5.689   3.050  12.028  0.00  0.00    +0.000 A 
ATOM     33  C   UNL     1       5.040   3.563  13.154  0.00  0.00    +0.000 A 
ENDBRANCH  27  28
ENDBRANCH  20  27
ENDBRANCH   2  20
TORSDOF 7
ENDMDL
MODEL 3
REMARK VINA RESULT:      -8.9      2.101      9.215
REMARK  Name = 
REMARK  8 active torsions:
REMARK  status: ('A' for Active; 'I' for Inactive)
REMARK    1  A    between atoms: C_1  and  N_2
REMARK    2  A    between atoms: N_2  and  C_19
REMARK    3  A    between atoms: N_5  and  C_6
REMARK    4  A    between atoms: C_9  and  O_10
REMARK    5  A    between atoms: O_10  and  C_11
REMARK    6  A    between atoms: C_19  and  C_20
REMARK    7  A    between atoms: C_19  and  C_27
REMARK    8  A    between atoms: C_20  and  C_21
REMARK                            x       y       z     vdW  Elec       q    Type
REMARK                         _______ _______ _______ _____ _____    ______ ____
ROOT
ATOM      1  C   UNL     1       0.896   8.642  21.542  0.00  0.00    +0.000 C 
ATOM      2  N   UNL     1       1.327   8.828  20.160  0.00  0.00    +0.000 N 
ATOM      3  C   UNL     1       2.039   7.749  19.629  0.00  0.00    +0.000 C 
ATOM      4  O   UNL     1       2.166   6.688  20.238  0.00  0.00    +0.000 OA
ATOM      5  N   UNL     1       2.641   7.992  18.410  0.00  0.00    +0.000 N 
ATOM      6  H   UNL     1       3.046   8.913  18.360  0.00  0.00    +0.000 HD
ENDROOT
BRANCH   5   7
ATOM      7  C   UNL     1       3.380   6.971  17.778  0.00  0.00    +0.000 A 
ATOM      8  C   UNL     1       2.983   5.635  17.886  0.00  0.00    +0.000 A 
ATOM      9  C   UNL     1       3.712   4.639  17.239  0.00  0.00    +0.000 A 
ATOM     10  C   UNL     1       4.852   4.966  16.511  0.00  0.00    +0.000 A 
ATOM     11  C   UNL     1       5.292   6.293  16.467  0.00  0.00    +0.000 A 
ATOM     12  C   UNL     1       4.524   7.304  17.053  0.00  0.00    +0.000 A 
BRANCH  10  13
ATOM     13  O   UNL     1       5.509   3.908  15.924  0.00  0.00    +0.000 OA
BRANCH  13  14
ATOM     14  C   UNL     1       5.997   4.025  14.643  0.00  0.00    +0.000 A 
ATOM     15  C   UNL     1       7.149   4.802  14.500  0.00  0.00    +0.000 A 
ATOM     16  C   UNL     1       7.714   4.997  13.238  0.00  0.00    +0.000 A 
ATOM     17  C   UNL     1       7.124   4.420  12.114  0.00  0.00    +0.000 A 
ATOM     18  C   UNL     1       5.998   3.611  12.257  0.00  0.00    +0.000 A 
ATOM     19  C   UNL     1       5.457   3.384  13.522  0.00  0.00    +0.000 A 
ENDBRANCH  13  14
ENDBRANCH  10  13
ENDBRANCH   5   7
BRANCH   2  20
ATOM     20  C   UNL     1       0.617   9.830  19.303  0.00  0.00    +0.000 C 
BRANCH  20  21
ATOM     21  C   UNL     1       1.242  11.229  19.221  0.00  0.00    +0.000 A 
ATOM     22  C   UNL     1       2.083  11.643  18.178  0.00  0.00    +0.000 A 
ATOM     23  C   UNL     1       2.666  12.916  18.198  0.00  0.00    +0.000 A 
ATOM     24  C   UNL     1       2.458  13.777  19.274  0.00  0.00    +0.000 A 
ATOM     25  C   UNL     1       1.638  13.384  20.323  0.00  0.00    +0.000 A 
ATOM     26  C   UNL     1       1.011  12.139  20.279  0.00  0.00    +0.000 A 
ENDBRANCH  20  21
BRANCH  20  27
ATOM     27  C   UNL     1      -0.939   9.898  19.510  0.00  0.00    +0.000 C 
BRANCH  27  28
ATOM     28  C   UNL     1      -1.833  10.312  18.353  0.00  0.00    +0.000 A 
ATOM     29  C   UNL     1      -1.669   9.821  17.050  0.00  0.00    +0.000 A 
ATOM     30  C   UNL     1      -2.518  10.214  16.014  0.00  0.00    +0.000 A 
ATOM     31  C   UNL     1      -3.561  11.096  16.267  0.00  0.00    +0.000 A 
ATOM     32  C   UNL     1      -3.756  11.582  17.557  0.00  0.00    +0.000 A 
ATOM     33  C   UNL     1      -2.905  11.187  18.592  0.00  0.00    +0.000 A 
ENDBRANCH  27  28
ENDBRANCH  20  27
ENDBRANCH   2  20
TORSDOF 7
ENDMDL
MODEL 4
REMARK VINA RESULT:      -8.8      0.914      1.806
REMARK  Name = 
REMARK  8 active torsions:
REMARK  status: ('A' for Active; 'I' for Inactive)
REMARK    1  A    between atoms: C_1  and  N_2
REMARK    2  A    between atoms: N_2  and  C_19
REMARK    3  A    between atoms: N_5  and  C_6
REMARK    4  A    between atoms: C_9  and  O_10
REMARK    5  A    between atoms: O_10  and  C_11
REMARK    6  A    between atoms: C_19  and  C_20
REMARK    7  A    between atoms: C_19  and  C_27
REMARK    8  A    between atoms: C_20  and  C_21
REMARK                            x       y       z     vdW  Elec       q    Type
REMARK                         _______ _______ _______ _____ _____    ______ ____
ROOT
ATOM      1  C   UNL     1       3.945   2.911  18.147  0.00  0.00    +0.000 C 
ATOM      2  N   UNL     1       4.075   4.271  17.634  0.00  0.00    +0.000 N 
ATOM      3  C   UNL     1       3.332   5.224  18.336  0.00  0.00    +0.000 C 
ATOM      4  O   UNL     1       2.732   4.949  19.374  0.00  0.00    +0.000 OA
ATOM      5  N   UNL     1       3.267   6.467  17.737  0.00  0.00    +0.000 N 
ATOM      6  H   UNL     1       3.159   6.406  16.738  0.00  0.00    +0.000 HD
ENDROOT
BRANCH   5   7
ATOM      7  C   UNL     1       2.549   7.508  18.361  0.00  0.00    +0.000 A 
ATOM      8  C   UNL     1       2.297   8.704  17.683  0.00  0.00    +0.000 A 
ATOM      9  C   UNL     1       1.568   9.716  18.306  0.00  0.00    +0.000 A 
ATOM     10  C   UNL     1       1.117   9.552  19.613  0.00  0.00    +0.000 A 
ATOM     11  C   UNL     1       1.436   8.387  20.317  0.00  0.00    +0.000 A 
ATOM     12  C   UNL     1       2.102   7.340  19.672  0.00  0.00    +0.000 A 
BRANCH  10  13
ATOM     13  O   UNL     1       0.422  10.616  20.141  0.00  0.00    +0.000 OA
BRANCH  13  14
ATOM     14  C   UNL     1      -0.814  10.951  19.635  0.00  0.00    +0.000 A 
ATOM     15  C   UNL     1      -1.276  10.156  18.584  0.00  0.00    +0.000 A 
ATOM     16  C   UNL     1      -2.510  10.425  17.990  0.00  0.00    +0.000 A 
ATOM     17  C   UNL     1      -3.284  11.494  18.442  0.00  0.00    +0.000 A 
ATOM     18  C   UNL     1      -2.844  12.264  19.517  0.00  0.00    +0.000 A 
ATOM     19  C   UNL     1      -1.630  11.972  20.136  0.00  0.00    +0.000 A 
ENDBRANCH  13  14
ENDBRANCH  10  13
ENDBRANCH   5   7
BRANCH   2  20
ATOM     20  C   UNL     1       5.271   4.627  16.805  0.00  0.00    +0.000 C 
BRANCH  20  21
ATOM     21  C   UNL     1       6.374   5.435  17.501  0.00  0.00    +0.000 A 
ATOM     22  C   UNL     1       7.038   5.004  18.657  0.00  0.00    +0.000 A 
ATOM     23  C   UNL     1       7.995   5.821  19.274  0.00  0.00    +0.000 A 
ATOM     24  C   UNL     1       8.270   7.093  18.777  0.00  0.00    +0.000 A 
ATOM     25  C   UNL     1       7.616   7.545  17.638  0.00  0.00    +0.000 A 
ATOM     26  C   UNL     1       6.705   6.712  16.990  0.00  0.00    +0.000 A 
ENDBRANCH  20  21
BRANCH  20  27
ATOM     27  C   UNL     1       4.944   5.196  15.376  0.00  0.00    +0.000 C 
BRANCH  27  28
ATOM     28  C   UNL     1       5.706   4.676  14.169  0.00  0.00    +0.000 A 
ATOM     29  C   UNL     1       7.017   5.073  13.868  0.00  0.00    +0.000 A 
ATOM     30  C   UNL     1       7.692   4.564  12.758  0.00  0.00    +0.000 A 
ATOM     31  C   UNL     1       7.072   3.632  11.935  0.00  0.00    +0.000 A 
ATOM     32  C   UNL     1       5.779   3.208  12.225  0.00  0.00    +0.000 A 
ATOM     33  C   UNL     1       5.105   3.719  13.336  0.00  0.00    +0.000 A 
ENDBRANCH  27  28
ENDBRANCH  20  27
ENDBRANCH   2  20
TORSDOF 7
ENDMDL
MODEL 5
REMARK VINA RESULT:      -8.8      2.137      9.215
REMARK  Name = 
REMARK  8 active torsions:
REMARK  status: ('A' for Active; 'I' for Inactive)
REMARK    1  A    between atoms: C_1  and  N_2
REMARK    2  A    between atoms: N_2  and  C_19
REMARK    3  A    between atoms: N_5  and  C_6
REMARK    4  A    between atoms: C_9  and  O_10
REMARK    5  A    between atoms: O_10  and  C_11
REMARK    6  A    between atoms: C_19  and  C_20
REMARK    7  A    between atoms: C_19  and  C_27
REMARK    8  A    between atoms: C_20  and  C_21
REMARK                            x       y       z     vdW  Elec       q    Type
REMARK                         _______ _______ _______ _____ _____    ______ ____
ROOT
ATOM      1  C   UNL     1       0.554   8.816  21.662  0.00  0.00    +0.000 C 
ATOM      2  N   UNL     1       1.085   9.023  20.318  0.00  0.00    +0.000 N 
ATOM      3  C   UNL     1       1.771   7.924  19.796  0.00  0.00    +0.000 C 
ATOM      4  O   UNL     1       1.802   6.838  20.373  0.00  0.00    +0.000 OA
ATOM      5  N   UNL     1       2.465   8.173  18.628  0.00  0.00    +0.000 N 
ATOM      6  H   UNL     1       2.920   9.071  18.636  0.00  0.00    +0.000 HD
ENDROOT
BRANCH   5   7
ATOM      7  C   UNL     1       3.189   7.134  18.008  0.00  0.00    +0.000 A 
ATOM      8  C   UNL     1       2.735   5.813  18.075  0.00  0.00    +0.000 A 
ATOM      9  C   UNL     1       3.451   4.799  17.440  0.00  0.00    +0.000 A 
ATOM     10  C   UNL     1       4.633   5.092  16.766  0.00  0.00    +0.000 A 
ATOM     11  C   UNL     1       5.126   6.401  16.765  0.00  0.00    +0.000 A 
ATOM     12  C   UNL     1       4.375   7.432  17.337  0.00  0.00    +0.000 A 
BRANCH  10  13
ATOM     13  O   UNL     1       5.271   4.018  16.187  0.00  0.00    +0.000 OA
BRANCH  13  14
ATOM     14  C   UNL     1       5.885   4.159  14.964  0.00  0.00    +0.000 A 
ATOM     15  C   UNL     1       5.222   3.575  13.881  0.00  0.00    +0.000 A 
ATOM     16  C   UNL     1       5.771   3.646  12.600  0.00  0.00    +0.000 A 
ATOM     17  C   UNL     1       6.988   4.297  12.398  0.00  0.00    +0.000 A 
ATOM     18  C   UNL     1       7.632   4.915  13.468  0.00  0.00    +0.000 A 
ATOM     19  C   UNL     1       7.064   4.878  14.741  0.00  0.00    +0.000 A 
ENDBRANCH  13  14
ENDBRANCH  10  13
ENDBRANCH   5   7
BRANCH   2  20
ATOM     20  C   UNL     1       0.486  10.090  19.453  0.00  0.00    +0.000 C 
BRANCH  20  21
ATOM     21  C   UNL     1       1.230  11.432  19.406  0.00  0.00    +0.000 A 
ATOM     22  C   UNL     1       1.141  12.403  20.412  0.00  0.00    +0.000 A 
ATOM     23  C   UNL     1       1.801  13.631  20.276  0.00  0.00    +0.000 A 
ATOM     24  C   UNL     1       2.519  13.927  19.118  0.00  0.00    +0.000 A 
ATOM     25  C   UNL     1       2.611  12.983  18.104  0.00  0.00    +0.000 A 
ATOM     26  C   UNL     1       2.002  11.739  18.262  0.00  0.00    +0.000 A 
ENDBRANCH  20  21
BRANCH  20  27
ATOM     27  C   UNL     1      -1.064  10.287  19.617  0.00  0.00    +0.000 C 
BRANCH  27  28
ATOM     28  C   UNL     1      -1.927  10.507  18.386  0.00  0.00    +0.000 A 
ATOM     29  C   UNL     1      -1.696   9.852  17.168  0.00  0.00    +0.000 A 
ATOM     30  C   UNL     1      -2.519  10.067  16.062  0.00  0.00    +0.000 A 
ATOM     31  C   UNL     1      -3.601  10.933  16.158  0.00  0.00    +0.000 A 
ATOM     32  C   UNL     1      -3.862  11.580  17.363  0.00  0.00    +0.000 A 
ATOM     33  C   UNL     1      -3.037  11.362  18.469  0.00  0.00    +0.000 A 
ENDBRANCH  27  28
ENDBRANCH  20  27
ENDBRANCH   2  20
TORSDOF 7
ENDMDL
MODEL 6
REMARK VINA RESULT:      -8.8      2.310      9.421
REMARK  Name = 
REMARK  8 active torsions:
REMARK  status: ('A' for Active; 'I' for Inactive)
REMARK    1  A    between atoms: C_1  and  N_2
REMARK    2  A    between atoms: N_2  and  C_19
REMARK    3  A    between atoms: N_5  and  C_6
REMARK    4  A    between atoms: C_9  and  O_10
REMARK    5  A    between atoms: O_10  and  C_11
REMARK    6  A    between atoms: C_19  and  C_20
REMARK    7  A    between atoms: C_19  and  C_27
REMARK    8  A    between atoms: C_20  and  C_21
REMARK                            x       y       z     vdW  Elec       q    Type
REMARK                         _______ _______ _______ _____ _____    ______ ____
ROOT
ATOM      1  C   UNL     1      -0.786  10.896  22.224  0.00  0.00    +0.000 C 
ATOM      2  N   UNL     1      -0.111  10.703  20.945  0.00  0.00    +0.000 N 
ATOM      3  C   UNL     1       0.434   9.428  20.769  0.00  0.00    +0.000 C 
ATOM      4  O   UNL     1       0.237   8.517  21.572  0.00  0.00    +0.000 OA
ATOM      5  N   UNL     1       1.261   9.296  19.670  0.00  0.00    +0.000 N 
ATOM      6  H   UNL     1       1.852  10.100  19.536  0.00  0.00    +0.000 HD
ENDROOT
BRANCH   5   7
ATOM      7  C   UNL     1       1.860   8.050  19.392  0.00  0.00    +0.000 A 
ATOM      8  C   UNL     1       2.425   7.797  18.138  0.00  0.00    +0.000 A 
ATOM      9  C   UNL     1       3.032   6.568  17.884  0.00  0.00    +0.000 A 
ATOM     10  C   UNL     1       3.050   5.580  18.864  0.00  0.00    +0.000 A 
ATOM     11  C   UNL     1       2.417   5.806  20.090  0.00  0.00    +0.000 A 
ATOM     12  C   UNL     1       1.873   7.062  20.375  0.00  0.00    +0.000 A 
BRANCH  10  13
ATOM     13  O   UNL     1       3.659   4.398  18.507  0.00  0.00    +0.000 OA
BRANCH  13  14
ATOM     14  C   UNL     1       4.794   4.415  17.728  0.00  0.00    +0.000 A 
ATOM     15  C   UNL     1       5.984   4.714  18.396  0.00  0.00    +0.000 A 
ATOM     16  C   UNL     1       7.188   4.773  17.692  0.00  0.00    +0.000 A 
ATOM     17  C   UNL     1       7.205   4.540  16.317  0.00  0.00    +0.000 A 
ATOM     18  C   UNL     1       6.026   4.203  15.655  0.00  0.00    +0.000 A 
ATOM     19  C   UNL     1       4.830   4.105  16.365  0.00  0.00    +0.000 A 
ENDBRANCH  13  14
ENDBRANCH  10  13
ENDBRANCH   5   7
BRANCH   2  20
ATOM     20  C   UNL     1      -0.449  11.604  19.798  0.00  0.00    +0.000 C 
BRANCH  20  21
ATOM     21  C   UNL     1       0.303  12.940  19.729  0.00  0.00    +0.000 A 
ATOM     22  C   UNL     1       1.489  13.199  20.430  0.00  0.00    +0.000 A 
ATOM     23  C   UNL     1       2.092  14.462  20.368  0.00  0.00    +0.000 A 
ATOM     24  C   UNL     1       1.499  15.497  19.646  0.00  0.00    +0.000 A 
ATOM     25  C   UNL     1       0.319  15.266  18.952  0.00  0.00    +0.000 A 
ATOM     26  C   UNL     1      -0.252  13.994  18.967  0.00  0.00    +0.000 A 
ENDBRANCH  20  21
BRANCH  20  27
ATOM     27  C   UNL     1      -1.986  11.786  19.525  0.00  0.00    +0.000 C 
BRANCH  27  28
ATOM     28  C   UNL     1      -2.579  11.298  18.214  0.00  0.00    +0.000 A 
ATOM     29  C   UNL     1      -1.918  10.394  17.370  0.00  0.00    +0.000 A 
ATOM     30  C   UNL     1      -2.500   9.957  16.179  0.00  0.00    +0.000 A 
ATOM     31  C   UNL     1      -3.765  10.403  15.818  0.00  0.00    +0.000 A 
ATOM     32  C   UNL     1      -4.448  11.285  16.650  0.00  0.00    +0.000 A 
ATOM     33  C   UNL     1      -3.864  11.722  17.841  0.00  0.00    +0.000 A 
ENDBRANCH  27  28
ENDBRANCH  20  27
ENDBRANCH   2  20
TORSDOF 7
ENDMDL
MODEL 7
REMARK VINA RESULT:      -8.7      0.592      1.369
REMARK  Name = 
REMARK  8 active torsions:
REMARK  status: ('A' for Active; 'I' for Inactive)
REMARK    1  A    between atoms: C_1  and  N_2
REMARK    2  A    between atoms: N_2  and  C_19
REMARK    3  A    between atoms: N_5  and  C_6
REMARK    4  A    between atoms: C_9  and  O_10
REMARK    5  A    between atoms: O_10  and  C_11
REMARK    6  A    between atoms: C_19  and  C_20
REMARK    7  A    between atoms: C_19  and  C_27
REMARK    8  A    between atoms: C_20  and  C_21
REMARK                            x       y       z     vdW  Elec       q    Type
REMARK                         _______ _______ _______ _____ _____    ______ ____
ROOT
ATOM      1  C   UNL     1       4.281   3.067  18.711  0.00  0.00    +0.000 C 
ATOM      2  N   UNL     1       4.235   4.353  18.022  0.00  0.00    +0.000 N 
ATOM      3  C   UNL     1       3.439   5.314  18.651  0.00  0.00    +0.000 C 
ATOM      4  O   UNL     1       2.937   5.123  19.758  0.00  0.00    +0.000 OA
ATOM      5  N   UNL     1       3.207   6.454  17.907  0.00  0.00    +0.000 N 
ATOM      6  H   UNL     1       3.045   6.251  16.934  0.00  0.00    +0.000 HD
ENDROOT
BRANCH   5   7
ATOM      7  C   UNL     1       2.422   7.494  18.446  0.00  0.00    +0.000 A 
ATOM      8  C   UNL     1       1.931   8.514  17.625  0.00  0.00    +0.000 A 
ATOM      9  C   UNL     1       1.140   9.525  18.169  0.00  0.00    +0.000 A 
ATOM     10  C   UNL     1       0.863   9.540  19.533  0.00  0.00    +0.000 A 
ATOM     11  C   UNL     1       1.418   8.563  20.366  0.00  0.00    +0.000 A 
ATOM     12  C   UNL     1       2.151   7.507  19.814  0.00  0.00    +0.000 A 
BRANCH  10  13
ATOM     13  O   UNL     1       0.087  10.589  19.972  0.00  0.00    +0.000 OA
BRANCH  13  14
ATOM     14  C   UNL     1       0.463  11.884  19.702  0.00  0.00    +0.000 A 
ATOM     15  C   UNL     1      -0.481  12.663  19.029  0.00  0.00    +0.000 A 
ATOM     16  C   UNL     1      -0.189  13.987  18.693  0.00  0.00    +0.000 A 
ATOM     17  C   UNL     1       1.051  14.533  19.024  0.00  0.00    +0.000 A 
ATOM     18  C   UNL     1       1.980  13.771  19.730  0.00  0.00    +0.000 A 
ATOM     19  C   UNL     1       1.673  12.463  20.101  0.00  0.00    +0.000 A 
ENDBRANCH  13  14
ENDBRANCH  10  13
ENDBRANCH   5   7
BRANCH   2  20
ATOM     20  C   UNL     1       5.332   4.709  17.067  0.00  0.00    +0.000 C 
BRANCH  20  21
ATOM     21  C   UNL     1       6.428   5.643  17.598  0.00  0.00    +0.000 A 
ATOM     22  C   UNL     1       7.270   5.320  18.671  0.00  0.00    +0.000 A 
ATOM     23  C   UNL     1       8.210   6.246  19.142  0.00  0.00    +0.000 A 
ATOM     24  C   UNL     1       8.295   7.519  18.582  0.00  0.00    +0.000 A 
ATOM     25  C   UNL     1       7.464   7.865  17.525  0.00  0.00    +0.000 A 
ATOM     26  C   UNL     1       6.566   6.926  17.018  0.00  0.00    +0.000 A 
ENDBRANCH  20  21
BRANCH  20  27
ATOM     27  C   UNL     1       4.854   5.128  15.630  0.00  0.00    +0.000 C 
BRANCH  27  28
ATOM     28  C   UNL     1       5.618   4.637  14.412  0.00  0.00    +0.000 A 
ATOM     29  C   UNL     1       5.064   3.760  13.468  0.00  0.00    +0.000 A 
ATOM     30  C   UNL     1       5.791   3.341  12.353  0.00  0.00    +0.000 A 
ATOM     31  C   UNL     1       7.085   3.806  12.152  0.00  0.00    +0.000 A 
ATOM     32  C   UNL     1       7.649   4.693  13.064  0.00  0.00    +0.000 A 
ATOM     33  C   UNL     1       6.920   5.111  14.180  0.00  0.00    +0.000 A 
ENDBRANCH  27  28
ENDBRANCH  20  27
ENDBRANCH   2  20
TORSDOF 7
ENDMDL
MODEL 8
REMARK VINA RESULT:      -8.7      3.546     11.306
REMARK  Name = 
REMARK  8 active torsions:
REMARK  status: ('A' for Active; 'I' for Inactive)
REMARK    1  A    between atoms: C_1  and  N_2
REMARK    2  A    between atoms: N_2  and  C_19
REMARK    3  A    between atoms: N_5  and  C_6
REMARK    4  A    between atoms: C_9  and  O_10
REMARK    5  A    between atoms: O_10  and  C_11
REMARK    6  A    between atoms: C_19  and  C_20
REMARK    7  A    between atoms: C_19  and  C_27
REMARK    8  A    between atoms: C_20  and  C_21
REMARK                            x       y       z     vdW  Elec       q    Type
REMARK                         _______ _______ _______ _____ _____    ______ ____
ROOT
ATOM      1  C   UNL     1      -0.120  14.065  18.692  0.00  0.00    +0.000 C 
ATOM      2  N   UNL     1      -0.631  12.732  18.994  0.00  0.00    +0.000 N 
ATOM      3  C   UNL     1       0.348  11.735  19.028  0.00  0.00    +0.000 C 
ATOM      4  O   UNL     1       1.547  11.995  18.943  0.00  0.00    +0.000 OA
ATOM      5  N   UNL     1      -0.139  10.444  19.092  0.00  0.00    +0.000 N 
ATOM      6  H   UNL     1      -0.949  10.311  18.509  0.00  0.00    +0.000 HD
ENDROOT
BRANCH   5   7
ATOM      7  C   UNL     1       0.759   9.359  19.138  0.00  0.00    +0.000 A 
ATOM      8  C   UNL     1       1.057   8.733  20.352  0.00  0.00    +0.000 A 
ATOM      9  C   UNL     1       1.932   7.648  20.379  0.00  0.00    +0.000 A 
ATOM     10  C   UNL     1       2.535   7.205  19.205  0.00  0.00    +0.000 A 
ATOM     11  C   UNL     1       2.296   7.880  18.004  0.00  0.00    +0.000 A 
ATOM     12  C   UNL     1       1.364   8.921  17.960  0.00  0.00    +0.000 A 
BRANCH  10  13
ATOM     13  O   UNL     1       3.394   6.138  19.342  0.00  0.00    +0.000 OA
BRANCH  13  14
ATOM     14  C   UNL     1       3.050   4.907  18.833  0.00  0.00    +0.000 A 
ATOM     15  C   UNL     1       3.939   4.365  17.902  0.00  0.00    +0.000 A 
ATOM     16  C   UNL     1       3.671   3.127  17.313  0.00  0.00    +0.000 A 
ATOM     17  C   UNL     1       2.511   2.431  17.650  0.00  0.00    +0.000 A 
ATOM     18  C   UNL     1       1.643   2.950  18.609  0.00  0.00    +0.000 A 
ATOM     19  C   UNL     1       1.929   4.166  19.226  0.00  0.00    +0.000 A 
ENDBRANCH  13  14
ENDBRANCH  10  13
ENDBRANCH   5   7
BRANCH   2  20
ATOM     20  C   UNL     1      -1.949  12.597  19.692  0.00  0.00    +0.000 C 
BRANCH  20  21
ATOM     21  C   UNL     1      -3.130  12.112  18.841  0.00  0.00    +0.000 A 
ATOM     22  C   UNL     1      -2.988  11.555  17.563  0.00  0.00    +0.000 A 
ATOM     23  C   UNL     1      -4.115  11.187  16.817  0.00  0.00    +0.000 A 
ATOM     24  C   UNL     1      -5.399  11.410  17.313  0.00  0.00    +0.000 A 
ATOM     25  C   UNL     1      -5.564  11.971  18.572  0.00  0.00    +0.000 A 
ATOM     26  C   UNL     1      -4.442  12.286  19.339  0.00  0.00    +0.000 A 
ENDBRANCH  20  21
BRANCH  20  27
ATOM     27  C   UNL     1      -2.348  13.815  20.603  0.00  0.00    +0.000 C 
BRANCH  27  28
ATOM     28  C   UNL     1      -3.045  13.564  21.929  0.00  0.00    +0.000 A 
ATOM     29  C   UNL     1      -4.057  14.396  22.426  0.00  0.00    +0.000 A 
ATOM     30  C   UNL     1      -4.686  14.126  23.643  0.00  0.00    +0.000 A 
ATOM     31  C   UNL     1      -4.324  13.005  24.378  0.00  0.00    +0.000 A 
ATOM     32  C   UNL     1      -3.336  12.153  23.895  0.00  0.00    +0.000 A 
ATOM     33  C   UNL     1      -2.708  12.425  22.678  0.00  0.00    +0.000 A 
ENDBRANCH  27  28
ENDBRANCH  20  27
ENDBRANCH   2  20
TORSDOF 7
ENDMDL
MODEL 9
REMARK VINA RESULT:      -8.6      0.640      1.132
REMARK  Name = 
REMARK  8 active torsions:
REMARK  status: ('A' for Active; 'I' for Inactive)
REMARK    1  A    between atoms: C_1  and  N_2
REMARK    2  A    between atoms: N_2  and  C_19
REMARK    3  A    between atoms: N_5  and  C_6
REMARK    4  A    between atoms: C_9  and  O_10
REMARK    5  A    between atoms: O_10  and  C_11
REMARK    6  A    between atoms: C_19  and  C_20
REMARK    7  A    between atoms: C_19  and  C_27
REMARK    8  A    between atoms: C_20  and  C_21
REMARK                            x       y       z     vdW  Elec       q    Type
REMARK                         _______ _______ _______ _____ _____    ______ ____
ROOT
ATOM      1  C   UNL     1       4.378   3.113  18.910  0.00  0.00    +0.000 C 
ATOM      2  N   UNL     1       4.299   4.376  18.183  0.00  0.00    +0.000 N 
ATOM      3  C   UNL     1       3.508   5.347  18.803  0.00  0.00    +0.000 C 
ATOM      4  O   UNL     1       3.036   5.185  19.927  0.00  0.00    +0.000 OA
ATOM      5  N   UNL     1       3.243   6.461  18.030  0.00  0.00    +0.000 N 
ATOM      6  H   UNL     1       3.059   6.226  17.068  0.00  0.00    +0.000 HD
ENDROOT
BRANCH   5   7
ATOM      7  C   UNL     1       2.459   7.508  18.557  0.00  0.00    +0.000 A 
ATOM      8  C   UNL     1       2.032   7.477  19.887  0.00  0.00    +0.000 A 
ATOM      9  C   UNL     1       1.274   8.529  20.400  0.00  0.00    +0.000 A 
ATOM     10  C   UNL     1       0.916   9.597  19.582  0.00  0.00    +0.000 A 
ATOM     11  C   UNL     1       1.279   9.591  18.232  0.00  0.00    +0.000 A 
ATOM     12  C   UNL     1       2.100   8.574  17.733  0.00  0.00    +0.000 A 
BRANCH  10  13
ATOM     13  O   UNL     1       0.155  10.576  20.180  0.00  0.00    +0.000 OA
BRANCH  13  14
ATOM     14  C   UNL     1       0.391  11.902  19.897  0.00  0.00    +0.000 A 
ATOM     15  C   UNL     1       1.477  12.480  20.560  0.00  0.00    +0.000 A 
ATOM     16  C   UNL     1       1.789  13.826  20.355  0.00  0.00    +0.000 A 
ATOM     17  C   UNL     1       1.014  14.598  19.491  0.00  0.00    +0.000 A 
ATOM     18  C   UNL     1      -0.045  14.014  18.797  0.00  0.00    +0.000 A 
ATOM     19  C   UNL     1      -0.333  12.661  18.972  0.00  0.00    +0.000 A 
ENDBRANCH  13  14
ENDBRANCH  10  13
ENDBRANCH   5   7
BRANCH   2  20
ATOM     20  C   UNL     1       5.368   4.715  17.191  0.00  0.00    +0.000 C 
BRANCH  20  21
ATOM     21  C   UNL     1       6.465   5.678  17.665  0.00  0.00    +0.000 A 
ATOM     22  C   UNL     1       7.346   5.393  18.717  0.00  0.00    +0.000 A 
ATOM     23  C   UNL     1       8.285   6.343  19.136  0.00  0.00    +0.000 A 
ATOM     24  C   UNL     1       8.332   7.604  18.545  0.00  0.00    +0.000 A 
ATOM     25  C   UNL     1       7.462   7.913  17.508  0.00  0.00    +0.000 A 
ATOM     26  C   UNL     1       6.564   6.949  17.052  0.00  0.00    +0.000 A 
ENDBRANCH  20  21
BRANCH  20  27
ATOM     27  C   UNL     1       4.849   5.084  15.754  0.00  0.00    +0.000 C 
BRANCH  27  28
ATOM     28  C   UNL     1       5.663   4.682  14.536  0.00  0.00    +0.000 A 
ATOM     29  C   UNL     1       6.973   5.129  14.314  0.00  0.00    +0.000 A 
ATOM     30  C   UNL     1       7.696   4.727  13.190  0.00  0.00    +0.000 A 
ATOM     31  C   UNL     1       7.126   3.853  12.272  0.00  0.00    +0.000 A 
ATOM     32  C   UNL     1       5.834   3.380  12.481  0.00  0.00    +0.000 A 
ATOM     33  C   UNL     1       5.112   3.784  13.607  0.00  0.00    +0.000 A 
ENDBRANCH  27  28
ENDBRANCH  20  27
ENDBRANCH   2  20
TORSDOF 7
ENDMDL
