MODEL 1
REMARK VINA RESULT:      -6.5      0.000      0.000
REMARK  Name = 
REMARK  8 active torsions:
REMARK  status: ('A' for Active; 'I' for Inactive)
REMARK    1  A    between atoms: C_1  and  O_2
REMARK    2  A    between atoms: O_2  and  C_3
REMARK    3  A    between atoms: C_12  and  O_13
REMARK    4  A    between atoms: O_13  and  C_14
REMARK    5  A    between atoms: C_14  and  C_15
REMARK    6  A    between atoms: N_20  and  C_21
REMARK    7  A    between atoms: C_24  and  C_25
REMARK    8  A    between atoms: N_31  and  C_32
REMARK                            x       y       z     vdW  Elec       q    Type
REMARK                         _______ _______ _______ _____ _____    ______ ____
ROOT
ATOM      1  C   UNL     1      -3.288  11.232  17.427  0.00  0.00    +0.000 A 
ATOM      2  C   UNL     1      -1.916  11.501  17.427  0.00  0.00    +0.000 A 
ATOM      3  C   UNL     1      -1.273  12.087  18.502  0.00  0.00    +0.000 A 
ATOM      4  N   UNL     1       0.056  12.276  18.384  0.00  0.00    +0.000 NA
ATOM      5  C   UNL     1       0.711  12.916  19.372  0.00  0.00    +0.000 A 
ATOM      6  C   UNL     1       0.053  13.370  20.482  0.00  0.00    +0.000 A 
ATOM      7  C   UNL     1      -1.317  13.150  20.643  0.00  0.00    +0.000 A 
ATOM      8  C   UNL     1      -2.036  12.489  19.631  0.00  0.00    +0.000 A 
ATOM      9  C   UNL     1      -3.423  12.231  19.618  0.00  0.00    +0.000 A 
ATOM     10  C   UNL     1      -4.042  11.551  18.560  0.00  0.00    +0.000 A 
ATOM     11  N   UNL     1      -1.674  13.784  21.864  0.00  0.00    +0.000 N 
ATOM     12  C   UNL     1      -0.523  14.411  22.425  0.00  0.00    +0.000 A 
ATOM     13  O   UNL     1      -0.448  15.056  23.460  0.00  0.00    +0.000 OA
ATOM     14  N   UNL     1       0.541  14.111  21.559  0.00  0.00    +0.000 N 
ATOM     15  C   UNL     1       1.908  14.509  21.734  0.00  0.00    +0.000 C 
ENDROOT
BRANCH  11  16
ATOM     16  C   UNL     1      -2.922  13.798  22.502  0.00  0.00    +0.000 A 
ATOM     17  C   UNL     1      -3.265  12.746  23.363  0.00  0.00    +0.000 A 
ATOM     18  C   UNL     1      -4.549  12.662  23.914  0.00  0.00    +0.000 A 
ATOM     19  C   UNL     1      -5.519  13.609  23.577  0.00  0.00    +0.000 A 
ATOM     20  C   UNL     1      -5.192  14.643  22.691  0.00  0.00    +0.000 A 
ATOM     21  C   UNL     1      -3.898  14.742  22.158  0.00  0.00    +0.000 A 
BRANCH  19  22
ATOM     22  C   UNL     1      -6.844  13.508  24.118  0.00  0.00    +0.000 C 
ATOM     23  N   UNL     1      -7.917  13.425  24.561  0.00  0.00    +0.000 NA
ENDBRANCH  19  22
ENDBRANCH  11  16
BRANCH   1  25
ATOM     24  C   UNL     1      -2.740  10.365  15.276  0.00  0.00    +0.000 C 
ATOM     25  O   UNL     1      -3.723  10.702  16.243  0.00  0.00    +0.000 OA
ENDBRANCH   1  25
BRANCH  10  26
ATOM     26  O   UNL     1      -5.377  11.266  18.575  0.00  0.00    +0.000 OA
BRANCH  26  27
ATOM     27  C   UNL     1      -6.234  12.169  19.285  0.00  0.00    +0.000 C 
BRANCH  27  28
ATOM     28  C   UNL     1      -6.550  13.319  18.378  0.00  0.00    +0.000 A 
ATOM     29  C   UNL     1      -6.822  13.320  17.023  0.00  0.00    +0.000 A 
ATOM     30  C   UNL     1      -7.125  14.621  16.529  0.00  0.00    +0.000 A 
ATOM     31  C   UNL     1      -7.053  15.576  17.519  0.00  0.00    +0.000 A 
ATOM     32  S   UNL     1      -6.630  14.903  19.031  0.00  0.00    +0.000 S 
ENDBRANCH  27  28
ENDBRANCH  26  27
ENDBRANCH  10  26
TORSDOF 6
ENDMDL
MODEL 2
REMARK VINA RESULT:      -6.5      2.380      4.108
REMARK  Name = 
REMARK  8 active torsions:
REMARK  status: ('A' for Active; 'I' for Inactive)
REMARK    1  A    between atoms: C_1  and  O_2
REMARK    2  A    between atoms: O_2  and  C_3
REMARK    3  A    between atoms: C_12  and  O_13
REMARK    4  A    between atoms: O_13  and  C_14
REMARK    5  A    between atoms: C_14  and  C_15
REMARK    6  A    between atoms: N_20  and  C_21
REMARK    7  A    between atoms: C_24  and  C_25
REMARK    8  A    between atoms: N_31  and  C_32
REMARK                            x       y       z     vdW  Elec       q    Type
REMARK                         _______ _______ _______ _____ _____    ______ ____
ROOT
ATOM      1  C   UNL     1      -5.877  12.265  18.011  0.00  0.00    +0.000 A 
ATOM      2  C   UNL     1      -5.059  11.442  17.233  0.00  0.00    +0.000 A 
ATOM      3  C   UNL     1      -3.780  11.084  17.619  0.00  0.00    +0.000 A 
ATOM      4  N   UNL     1      -3.101  10.270  16.788  0.00  0.00    +0.000 NA
ATOM      5  C   UNL     1      -1.824   9.960  17.083  0.00  0.00    +0.000 A 
ATOM      6  C   UNL     1      -1.214  10.454  18.203  0.00  0.00    +0.000 A 
ATOM      7  C   UNL     1      -1.912  11.268  19.099  0.00  0.00    +0.000 A 
ATOM      8  C   UNL     1      -3.246  11.617  18.822  0.00  0.00    +0.000 A 
ATOM      9  C   UNL     1      -4.069  12.462  19.596  0.00  0.00    +0.000 A 
ATOM     10  C   UNL     1      -5.396  12.737  19.236  0.00  0.00    +0.000 A 
ATOM     11  N   UNL     1      -0.977  11.631  20.107  0.00  0.00    +0.000 N 
ATOM     12  C   UNL     1       0.293  11.058  19.802  0.00  0.00    +0.000 A 
ATOM     13  O   UNL     1       1.334  11.161  20.432  0.00  0.00    +0.000 OA
ATOM     14  N   UNL     1       0.107  10.308  18.630  0.00  0.00    +0.000 N 
ATOM     15  C   UNL     1       1.107   9.527  17.961  0.00  0.00    +0.000 C 
ENDROOT
BRANCH  11  16
ATOM     16  C   UNL     1      -1.200  12.388  21.264  0.00  0.00    +0.000 A 
ATOM     17  C   UNL     1      -1.813  11.785  22.371  0.00  0.00    +0.000 A 
ATOM     18  C   UNL     1      -2.167  12.543  23.494  0.00  0.00    +0.000 A 
ATOM     19  C   UNL     1      -1.949  13.923  23.505  0.00  0.00    +0.000 A 
ATOM     20  C   UNL     1      -1.368  14.535  22.388  0.00  0.00    +0.000 A 
ATOM     21  C   UNL     1      -0.990  13.773  21.273  0.00  0.00    +0.000 A 
BRANCH  19  22
ATOM     22  C   UNL     1      -2.338  14.706  24.643  0.00  0.00    +0.000 C 
ATOM     23  N   UNL     1      -2.659  15.338  25.565  0.00  0.00    +0.000 NA
ENDBRANCH  19  22
ENDBRANCH  11  16
BRANCH   1  25
ATOM     24  C   UNL     1      -7.210  13.779  16.742  0.00  0.00    +0.000 C 
ATOM     25  O   UNL     1      -7.079  12.535  17.413  0.00  0.00    +0.000 OA
ENDBRANCH   1  25
BRANCH  10  26
ATOM     26  O   UNL     1      -6.201  13.521  20.013  0.00  0.00    +0.000 OA
BRANCH  26  27
ATOM     27  C   UNL     1      -6.275  13.208  21.409  0.00  0.00    +0.000 C 
BRANCH  27  28
ATOM     28  C   UNL     1      -5.903  14.437  22.180  0.00  0.00    +0.000 A 
ATOM     29  C   UNL     1      -4.990  15.427  21.870  0.00  0.00    +0.000 A 
ATOM     30  C   UNL     1      -4.959  16.466  22.843  0.00  0.00    +0.000 A 
ATOM     31  C   UNL     1      -5.836  16.226  23.878  0.00  0.00    +0.000 A 
ATOM     32  S   UNL     1      -6.691  14.762  23.669  0.00  0.00    +0.000 S 
ENDBRANCH  27  28
ENDBRANCH  26  27
ENDBRANCH  10  26
TORSDOF 6
ENDMDL
MODEL 3
REMARK VINA RESULT:      -6.3      2.434      4.358
REMARK  Name = 
REMARK  8 active torsions:
REMARK  status: ('A' for Active; 'I' for Inactive)
REMARK    1  A    between atoms: C_1  and  O_2
REMARK    2  A    between atoms: O_2  and  C_3
REMARK    3  A    between atoms: C_12  and  O_13
REMARK    4  A    between atoms: O_13  and  C_14
REMARK    5  A    between atoms: C_14  and  C_15
REMARK    6  A    between atoms: N_20  and  C_21
REMARK    7  A    between atoms: C_24  and  C_25
REMARK    8  A    between atoms: N_31  and  C_32
REMARK                            x       y       z     vdW  Elec       q    Type
REMARK                         _______ _______ _______ _____ _____    ______ ____
ROOT
ATOM      1  C   UNL     1      -5.989  12.361  18.023  0.00  0.00    +0.000 A 
ATOM      2  C   UNL     1      -5.186  11.504  17.265  0.00  0.00    +0.000 A 
ATOM      3  C   UNL     1      -3.905  11.151  17.649  0.00  0.00    +0.000 A 
ATOM      4  N   UNL     1      -3.242  10.301  16.840  0.00  0.00    +0.000 NA
ATOM      5  C   UNL     1      -1.965   9.992  17.130  0.00  0.00    +0.000 A 
ATOM      6  C   UNL     1      -1.336  10.522  18.224  0.00  0.00    +0.000 A 
ATOM      7  C   UNL     1      -2.017  11.373  19.098  0.00  0.00    +0.000 A 
ATOM      8  C   UNL     1      -3.352  11.722  18.825  0.00  0.00    +0.000 A 
ATOM      9  C   UNL     1      -4.160  12.601  19.577  0.00  0.00    +0.000 A 
ATOM     10  C   UNL     1      -5.489  12.874  19.224  0.00  0.00    +0.000 A 
ATOM     11  N   UNL     1      -1.067  11.766  20.080  0.00  0.00    +0.000 N 
ATOM     12  C   UNL     1       0.194  11.172  19.781  0.00  0.00    +0.000 A 
ATOM     13  O   UNL     1       1.244  11.290  20.395  0.00  0.00    +0.000 OA
ATOM     14  N   UNL     1      -0.012  10.382  18.640  0.00  0.00    +0.000 N 
ATOM     15  C   UNL     1       0.974   9.569  17.988  0.00  0.00    +0.000 C 
ENDROOT
BRANCH  11  16
ATOM     16  C   UNL     1      -1.270  12.567  21.212  0.00  0.00    +0.000 A 
ATOM     17  C   UNL     1      -0.785  13.881  21.219  0.00  0.00    +0.000 A 
ATOM     18  C   UNL     1      -0.856  14.665  22.377  0.00  0.00    +0.000 A 
ATOM     19  C   UNL     1      -1.377  14.126  23.556  0.00  0.00    +0.000 A 
ATOM     20  C   UNL     1      -1.832  12.802  23.564  0.00  0.00    +0.000 A 
ATOM     21  C   UNL     1      -1.784  12.025  22.397  0.00  0.00    +0.000 A 
BRANCH  19  22
ATOM     22  C   UNL     1      -1.424  14.917  24.752  0.00  0.00    +0.000 C 
ATOM     23  N   UNL     1      -1.465  15.563  25.719  0.00  0.00    +0.000 NA
ENDBRANCH  19  22
ENDBRANCH  11  16
BRANCH   1  25
ATOM     24  C   UNL     1      -7.307  13.808  16.664  0.00  0.00    +0.000 C 
ATOM     25  O   UNL     1      -7.195  12.619  17.430  0.00  0.00    +0.000 OA
ENDBRANCH   1  25
BRANCH  10  26
ATOM     26  O   UNL     1      -6.278  13.691  19.981  0.00  0.00    +0.000 OA
BRANCH  26  27
ATOM     27  C   UNL     1      -5.847  15.046  20.154  0.00  0.00    +0.000 C 
BRANCH  27  28
ATOM     28  C   UNL     1      -5.731  15.313  21.623  0.00  0.00    +0.000 A 
ATOM     29  C   UNL     1      -4.638  15.173  22.458  0.00  0.00    +0.000 A 
ATOM     30  C   UNL     1      -4.918  15.579  23.794  0.00  0.00    +0.000 A 
ATOM     31  C   UNL     1      -6.222  15.996  23.943  0.00  0.00    +0.000 A 
ATOM     32  S   UNL     1      -7.096  15.903  22.478  0.00  0.00    +0.000 S 
ENDBRANCH  27  28
ENDBRANCH  26  27
ENDBRANCH  10  26
TORSDOF 6
ENDMDL
MODEL 4
REMARK VINA RESULT:      -6.3      2.825      6.065
REMARK  Name = 
REMARK  8 active torsions:
REMARK  status: ('A' for Active; 'I' for Inactive)
REMARK    1  A    between atoms: C_1  and  O_2
REMARK    2  A    between atoms: O_2  and  C_3
REMARK    3  A    between atoms: C_12  and  O_13
REMARK    4  A    between atoms: O_13  and  C_14
REMARK    5  A    between atoms: C_14  and  C_15
REMARK    6  A    between atoms: N_20  and  C_21
REMARK    7  A    between atoms: C_24  and  C_25
REMARK    8  A    between atoms: N_31  and  C_32
REMARK                            x       y       z     vdW  Elec       q    Type
REMARK                         _______ _______ _______ _____ _____    ______ ____
ROOT
ATOM      1  C   UNL     1      -3.616  10.829  17.482  0.00  0.00    +0.000 A 
ATOM      2  C   UNL     1      -4.955  10.841  17.881  0.00  0.00    +0.000 A 
ATOM      3  C   UNL     1      -5.396  11.539  18.990  0.00  0.00    +0.000 A 
ATOM      4  N   UNL     1      -6.715  11.485  19.256  0.00  0.00    +0.000 NA
ATOM      5  C   UNL     1      -7.178  12.082  20.371  0.00  0.00    +0.000 A 
ATOM      6  C   UNL     1      -6.336  12.736  21.228  0.00  0.00    +0.000 A 
ATOM      7  C   UNL     1      -4.970  12.838  20.951  0.00  0.00    +0.000 A 
ATOM      8  C   UNL     1      -4.449  12.223  19.798  0.00  0.00    +0.000 A 
ATOM      9  C   UNL     1      -3.096  12.193  19.403  0.00  0.00    +0.000 A 
ATOM     10  C   UNL     1      -2.681  11.560  18.222  0.00  0.00    +0.000 A 
ATOM     11  N   UNL     1      -4.398  13.529  22.054  0.00  0.00    +0.000 N 
ATOM     12  C   UNL     1      -5.417  13.820  23.009  0.00  0.00    +0.000 A 
ATOM     13  O   UNL     1      -5.299  14.392  24.082  0.00  0.00    +0.000 OA
ATOM     14  N   UNL     1      -6.614  13.341  22.454  0.00  0.00    +0.000 N 
ATOM     15  C   UNL     1      -7.917  13.438  23.047  0.00  0.00    +0.000 C 
ENDROOT
BRANCH  11  16
ATOM     16  C   UNL     1      -3.068  13.935  22.229  0.00  0.00    +0.000 A 
ATOM     17  C   UNL     1      -2.672  15.201  21.776  0.00  0.00    +0.000 A 
ATOM     18  C   UNL     1      -1.327  15.588  21.816  0.00  0.00    +0.000 A 
ATOM     19  C   UNL     1      -0.355  14.694  22.274  0.00  0.00    +0.000 A 
ATOM     20  C   UNL     1      -0.742  13.416  22.696  0.00  0.00    +0.000 A 
ATOM     21  C   UNL     1      -2.092  13.037  22.678  0.00  0.00    +0.000 A 
BRANCH  19  22
ATOM     22  C   UNL     1       1.027  15.077  22.289  0.00  0.00    +0.000 C 
ATOM     23  N   UNL     1       2.147  15.391  22.306  0.00  0.00    +0.000 NA
ENDBRANCH  19  22
ENDBRANCH  11  16
BRANCH   1  25
ATOM     24  C   UNL     1      -3.331  10.663  15.122  0.00  0.00    +0.000 C 
ATOM     25  O   UNL     1      -3.395  10.031  16.392  0.00  0.00    +0.000 OA
ENDBRANCH   1  25
BRANCH  10  26
ATOM     26  O   UNL     1      -1.376  11.572  17.823  0.00  0.00    +0.000 OA
BRANCH  26  27
ATOM     27  C   UNL     1      -0.400  12.005  18.778  0.00  0.00    +0.000 C 
BRANCH  27  28
ATOM     28  C   UNL     1       0.191  10.789  19.423  0.00  0.00    +0.000 A 
ATOM     29  C   UNL     1      -0.030  10.268  20.684  0.00  0.00    +0.000 A 
ATOM     30  C   UNL     1       0.688   9.059  20.908  0.00  0.00    +0.000 A 
ATOM     31  C   UNL     1       1.452   8.706  19.818  0.00  0.00    +0.000 A 
ATOM     32  S   UNL     1       1.295   9.822  18.535  0.00  0.00    +0.000 S 
ENDBRANCH  27  28
ENDBRANCH  26  27
ENDBRANCH  10  26
TORSDOF 6
ENDMDL
MODEL 5
REMARK VINA RESULT:      -6.2      3.195      5.839
REMARK  Name = 
REMARK  8 active torsions:
REMARK  status: ('A' for Active; 'I' for Inactive)
REMARK    1  A    between atoms: C_1  and  O_2
REMARK    2  A    between atoms: O_2  and  C_3
REMARK    3  A    between atoms: C_12  and  O_13
REMARK    4  A    between atoms: O_13  and  C_14
REMARK    5  A    between atoms: C_14  and  C_15
REMARK    6  A    between atoms: N_20  and  C_21
REMARK    7  A    between atoms: C_24  and  C_25
REMARK    8  A    between atoms: N_31  and  C_32
REMARK                            x       y       z     vdW  Elec       q    Type
REMARK                         _______ _______ _______ _____ _____    ______ ____
ROOT
ATOM      1  C   UNL     1       0.273  10.347  18.317  0.00  0.00    +0.000 A 
ATOM      2  C   UNL     1      -0.847  10.102  17.518  0.00  0.00    +0.000 A 
ATOM      3  C   UNL     1      -2.084  10.664  17.778  0.00  0.00    +0.000 A 
ATOM      4  N   UNL     1      -3.079  10.363  16.921  0.00  0.00    +0.000 NA
ATOM      5  C   UNL     1      -4.319  10.820  17.179  0.00  0.00    +0.000 A 
ATOM      6  C   UNL     1      -4.579  11.580  18.287  0.00  0.00    +0.000 A 
ATOM      7  C   UNL     1      -3.555  11.937  19.168  0.00  0.00    +0.000 A 
ATOM      8  C   UNL     1      -2.248  11.473  18.933  0.00  0.00    +0.000 A 
ATOM      9  C   UNL     1      -1.118  11.703  19.746  0.00  0.00    +0.000 A 
ATOM     10  C   UNL     1       0.150  11.204  19.415  0.00  0.00    +0.000 A 
ATOM     11  N   UNL     1      -4.177  12.674  20.212  0.00  0.00    +0.000 N 
ATOM     12  C   UNL     1      -5.581  12.737  19.974  0.00  0.00    +0.000 A 
ATOM     13  O   UNL     1      -6.435  13.276  20.661  0.00  0.00    +0.000 OA
ATOM     14  N   UNL     1      -5.797  12.074  18.756  0.00  0.00    +0.000 N 
ATOM     15  C   UNL     1      -7.061  11.911  18.097  0.00  0.00    +0.000 C 
ENDROOT
BRANCH  11  16
ATOM     16  C   UNL     1      -3.572  13.305  21.308  0.00  0.00    +0.000 A 
ATOM     17  C   UNL     1      -2.920  14.531  21.119  0.00  0.00    +0.000 A 
ATOM     18  C   UNL     1      -2.196  15.125  22.160  0.00  0.00    +0.000 A 
ATOM     19  C   UNL     1      -2.082  14.476  23.392  0.00  0.00    +0.000 A 
ATOM     20  C   UNL     1      -2.704  13.235  23.575  0.00  0.00    +0.000 A 
ATOM     21  C   UNL     1      -3.449  12.652  22.540  0.00  0.00    +0.000 A 
BRANCH  19  22
ATOM     22  C   UNL     1      -1.317  15.069  24.451  0.00  0.00    +0.000 C 
ATOM     23  N   UNL     1      -0.701  15.551  25.313  0.00  0.00    +0.000 NA
ENDBRANCH  19  22
ENDBRANCH  11  16
BRANCH   1  25
ATOM     24  C   UNL     1       1.763   8.525  18.687  0.00  0.00    +0.000 C 
ATOM     25  O   UNL     1       1.377   9.648  17.909  0.00  0.00    +0.000 OA
ENDBRANCH   1  25
BRANCH  10  26
ATOM     26  O   UNL     1       1.246  11.467  20.184  0.00  0.00    +0.000 OA
BRANCH  26  27
ATOM     27  C   UNL     1       1.247  12.687  20.934  0.00  0.00    +0.000 C 
BRANCH  27  28
ATOM     28  C   UNL     1       1.509  13.816  19.984  0.00  0.00    +0.000 A 
ATOM     29  C   UNL     1       0.763  14.955  19.745  0.00  0.00    +0.000 A 
ATOM     30  C   UNL     1       1.378  15.820  18.796  0.00  0.00    +0.000 A 
ATOM     31  C   UNL     1       2.564  15.305  18.323  0.00  0.00    +0.000 A 
ATOM     32  S   UNL     1       2.933  13.793  19.028  0.00  0.00    +0.000 S 
ENDBRANCH  27  28
ENDBRANCH  26  27
ENDBRANCH  10  26
TORSDOF 6
ENDMDL
MODEL 6
REMARK VINA RESULT:      -6.2      2.035      2.514
REMARK  Name = 
REMARK  8 active torsions:
REMARK  status: ('A' for Active; 'I' for Inactive)
REMARK    1  A    between atoms: C_1  and  O_2
REMARK    2  A    between atoms: O_2  and  C_3
REMARK    3  A    between atoms: C_12  and  O_13
REMARK    4  A    between atoms: O_13  and  C_14
REMARK    5  A    between atoms: C_14  and  C_15
REMARK    6  A    between atoms: N_20  and  C_21
REMARK    7  A    between atoms: C_24  and  C_25
REMARK    8  A    between atoms: N_31  and  C_32
REMARK                            x       y       z     vdW  Elec       q    Type
REMARK                         _______ _______ _______ _____ _____    ______ ____
ROOT
ATOM      1  C   UNL     1      -3.759  11.073  16.319  0.00  0.00    +0.000 A 
ATOM      2  C   UNL     1      -2.530  10.455  16.564  0.00  0.00    +0.000 A 
ATOM      3  C   UNL     1      -1.883  10.540  17.784  0.00  0.00    +0.000 A 
ATOM      4  N   UNL     1      -0.712   9.883  17.896  0.00  0.00    +0.000 NA
ATOM      5  C   UNL     1      -0.008  10.003  19.037  0.00  0.00    +0.000 A 
ATOM      6  C   UNL     1      -0.460  10.774  20.073  0.00  0.00    +0.000 A 
ATOM      7  C   UNL     1      -1.690  11.432  19.993  0.00  0.00    +0.000 A 
ATOM      8  C   UNL     1      -2.452  11.333  18.815  0.00  0.00    +0.000 A 
ATOM      9  C   UNL     1      -3.684  11.970  18.557  0.00  0.00    +0.000 A 
ATOM     10  C   UNL     1      -4.372  11.795  17.348  0.00  0.00    +0.000 A 
ATOM     11  N   UNL     1      -1.822  12.165  21.204  0.00  0.00    +0.000 N 
ATOM     12  C   UNL     1      -0.657  11.969  22.003  0.00  0.00    +0.000 A 
ATOM     13  O   UNL     1      -0.410  12.447  23.100  0.00  0.00    +0.000 OA
ATOM     14  N   UNL     1       0.157  11.078  21.288  0.00  0.00    +0.000 N 
ATOM     15  C   UNL     1       1.427  10.565  21.716  0.00  0.00    +0.000 C 
ENDROOT
BRANCH  11  16
ATOM     16  C   UNL     1      -2.907  12.939  21.636  0.00  0.00    +0.000 A 
ATOM     17  C   UNL     1      -3.019  14.266  21.200  0.00  0.00    +0.000 A 
ATOM     18  C   UNL     1      -4.016  15.106  21.712  0.00  0.00    +0.000 A 
ATOM     19  C   UNL     1      -4.887  14.638  22.698  0.00  0.00    +0.000 A 
ATOM     20  C   UNL     1      -4.758  13.323  23.162  0.00  0.00    +0.000 A 
ATOM     21  C   UNL     1      -3.775  12.474  22.632  0.00  0.00    +0.000 A 
BRANCH  19  22
ATOM     22  C   UNL     1      -5.891  15.506  23.245  0.00  0.00    +0.000 C 
ATOM     23  N   UNL     1      -6.702  16.208  23.694  0.00  0.00    +0.000 NA
ENDBRANCH  19  22
ENDBRANCH  11  16
BRANCH   1  25
ATOM     24  C   UNL     1      -3.400  10.089  14.179  0.00  0.00    +0.000 C 
ATOM     25  O   UNL     1      -4.190  10.905  15.031  0.00  0.00    +0.000 OA
ENDBRANCH   1  25
BRANCH  10  26
ATOM     26  O   UNL     1      -5.585  12.379  17.123  0.00  0.00    +0.000 OA
BRANCH  26  27
ATOM     27  C   UNL     1      -6.749  11.673  17.569  0.00  0.00    +0.000 C 
BRANCH  27  28
ATOM     28  C   UNL     1      -7.129  12.209  18.915  0.00  0.00    +0.000 A 
ATOM     29  C   UNL     1      -7.426  13.506  19.293  0.00  0.00    +0.000 A 
ATOM     30  C   UNL     1      -7.793  13.603  20.665  0.00  0.00    +0.000 A 
ATOM     31  C   UNL     1      -7.745  12.381  21.298  0.00  0.00    +0.000 A 
ATOM     32  S   UNL     1      -7.267  11.128  20.239  0.00  0.00    +0.000 S 
ENDBRANCH  27  28
ENDBRANCH  26  27
ENDBRANCH  10  26
TORSDOF 6
ENDMDL
MODEL 7
REMARK VINA RESULT:      -6.2      1.394      1.887
REMARK  Name = 
REMARK  8 active torsions:
REMARK  status: ('A' for Active; 'I' for Inactive)
REMARK    1  A    between atoms: C_1  and  O_2
REMARK    2  A    between atoms: O_2  and  C_3
REMARK    3  A    between atoms: C_12  and  O_13
REMARK    4  A    between atoms: O_13  and  C_14
REMARK    5  A    between atoms: C_14  and  C_15
REMARK    6  A    between atoms: N_20  and  C_21
REMARK    7  A    between atoms: C_24  and  C_25
REMARK    8  A    between atoms: N_31  and  C_32
REMARK                            x       y       z     vdW  Elec       q    Type
REMARK                         _______ _______ _______ _____ _____    ______ ____
ROOT
ATOM      1  C   UNL     1      -2.906  10.174  17.073  0.00  0.00    +0.000 A 
ATOM      2  C   UNL     1      -1.513  10.232  17.158  0.00  0.00    +0.000 A 
ATOM      3  C   UNL     1      -0.856  10.893  18.181  0.00  0.00    +0.000 A 
ATOM      4  N   UNL     1       0.491  10.859  18.158  0.00  0.00    +0.000 NA
ATOM      5  C   UNL     1       1.173  11.555  19.086  0.00  0.00    +0.000 A 
ATOM      6  C   UNL     1       0.526  12.287  20.043  0.00  0.00    +0.000 A 
ATOM      7  C   UNL     1      -0.870  12.305  20.110  0.00  0.00    +0.000 A 
ATOM      8  C   UNL     1      -1.617  11.593  19.153  0.00  0.00    +0.000 A 
ATOM      9  C   UNL     1      -3.023  11.546  19.054  0.00  0.00    +0.000 A 
ATOM     10  C   UNL     1      -3.673  10.793  18.065  0.00  0.00    +0.000 A 
ATOM     11  N   UNL     1      -1.200  13.187  21.174  0.00  0.00    +0.000 N 
ATOM     12  C   UNL     1      -0.002  13.722  21.732  0.00  0.00    +0.000 A 
ATOM     13  O   UNL     1       0.107  14.519  22.652  0.00  0.00    +0.000 OA
ATOM     14  N   UNL     1       1.054  13.123  21.029  0.00  0.00    +0.000 N 
ATOM     15  C   UNL     1       2.453  13.336  21.263  0.00  0.00    +0.000 C 
ENDROOT
BRANCH  11  16
ATOM     16  C   UNL     1      -2.469  13.497  21.682  0.00  0.00    +0.000 A 
ATOM     17  C   UNL     1      -3.140  14.632  21.207  0.00  0.00    +0.000 A 
ATOM     18  C   UNL     1      -4.348  15.043  21.782  0.00  0.00    +0.000 A 
ATOM     19  C   UNL     1      -4.878  14.345  22.871  0.00  0.00    +0.000 A 
ATOM     20  C   UNL     1      -4.194  13.230  23.371  0.00  0.00    +0.000 A 
ATOM     21  C   UNL     1      -2.997  12.804  22.779  0.00  0.00    +0.000 A 
BRANCH  19  22
ATOM     22  C   UNL     1      -6.101  14.782  23.481  0.00  0.00    +0.000 C 
ATOM     23  N   UNL     1      -7.096  15.131  23.973  0.00  0.00    +0.000 NA
ENDBRANCH  19  22
ENDBRANCH  11  16
BRANCH   1  25
ATOM     24  C   UNL     1      -3.134  10.152  14.701  0.00  0.00    +0.000 C 
ATOM     25  O   UNL     1      -3.342   9.518  15.954  0.00  0.00    +0.000 OA
ENDBRANCH   1  25
BRANCH  10  26
ATOM     26  O   UNL     1      -5.035  10.718  18.001  0.00  0.00    +0.000 OA
BRANCH  26  27
ATOM     27  C   UNL     1      -5.743  11.904  17.623  0.00  0.00    +0.000 C 
BRANCH  27  28
ATOM     28  C   UNL     1      -6.534  12.369  18.807  0.00  0.00    +0.000 A 
ATOM     29  C   UNL     1      -6.730  11.755  20.030  0.00  0.00    +0.000 A 
ATOM     30  C   UNL     1      -7.512  12.547  20.919  0.00  0.00    +0.000 A 
ATOM     31  C   UNL     1      -7.907  13.732  20.339  0.00  0.00    +0.000 A 
ATOM     32  S   UNL     1      -7.330  13.887  18.738  0.00  0.00    +0.000 S 
ENDBRANCH  27  28
ENDBRANCH  26  27
ENDBRANCH  10  26
TORSDOF 6
ENDMDL
MODEL 8
REMARK VINA RESULT:      -6.1      2.535      5.570
REMARK  Name = 
REMARK  8 active torsions:
REMARK  status: ('A' for Active; 'I' for Inactive)
REMARK    1  A    between atoms: C_1  and  O_2
REMARK    2  A    between atoms: O_2  and  C_3
REMARK    3  A    between atoms: C_12  and  O_13
REMARK    4  A    between atoms: O_13  and  C_14
REMARK    5  A    between atoms: C_14  and  C_15
REMARK    6  A    between atoms: N_20  and  C_21
REMARK    7  A    between atoms: C_24  and  C_25
REMARK    8  A    between atoms: N_31  and  C_32
REMARK                            x       y       z     vdW  Elec       q    Type
REMARK                         _______ _______ _______ _____ _____    ______ ____
ROOT
ATOM      1  C   UNL     1      -6.257  13.046  18.832  0.00  0.00    +0.000 A 
ATOM      2  C   UNL     1      -6.775  14.148  19.517  0.00  0.00    +0.000 A 
ATOM      3  C   UNL     1      -6.163  14.684  20.636  0.00  0.00    +0.000 A 
ATOM      4  N   UNL     1      -6.753  15.759  21.194  0.00  0.00    +0.000 NA
ATOM      5  C   UNL     1      -6.238  16.265  22.331  0.00  0.00    +0.000 A 
ATOM      6  C   UNL     1      -5.136  15.709  22.920  0.00  0.00    +0.000 A 
ATOM      7  C   UNL     1      -4.484  14.619  22.337  0.00  0.00    +0.000 A 
ATOM      8  C   UNL     1      -4.996  14.060  21.152  0.00  0.00    +0.000 A 
ATOM      9  C   UNL     1      -4.487  12.937  20.467  0.00  0.00    +0.000 A 
ATOM     10  C   UNL     1      -5.067  12.466  19.280  0.00  0.00    +0.000 A 
ATOM     11  N   UNL     1      -3.427  14.276  23.223  0.00  0.00    +0.000 N 
ATOM     12  C   UNL     1      -3.458  15.144  24.354  0.00  0.00    +0.000 A 
ATOM     13  O   UNL     1      -2.713  15.142  25.322  0.00  0.00    +0.000 OA
ATOM     14  N   UNL     1      -4.511  16.042  24.124  0.00  0.00    +0.000 N 
ATOM     15  C   UNL     1      -4.904  17.121  24.983  0.00  0.00    +0.000 C 
ENDROOT
BRANCH  11  16
ATOM     16  C   UNL     1      -2.445  13.289  23.060  0.00  0.00    +0.000 A 
ATOM     17  C   UNL     1      -1.299  13.579  22.307  0.00  0.00    +0.000 A 
ATOM     18  C   UNL     1      -0.361  12.581  22.017  0.00  0.00    +0.000 A 
ATOM     19  C   UNL     1      -0.581  11.268  22.443  0.00  0.00    +0.000 A 
ATOM     20  C   UNL     1      -1.741  10.967  23.167  0.00  0.00    +0.000 A 
ATOM     21  C   UNL     1      -2.668  11.972  23.479  0.00  0.00    +0.000 A 
BRANCH  19  22
ATOM     22  C   UNL     1       0.363  10.238  22.122  0.00  0.00    +0.000 C 
ATOM     23  N   UNL     1       1.127   9.398  21.866  0.00  0.00    +0.000 NA
ENDBRANCH  19  22
ENDBRANCH  11  16
BRANCH   1  25
ATOM     24  C   UNL     1      -7.307  13.599  16.765  0.00  0.00    +0.000 C 
ATOM     25  O   UNL     1      -7.051  12.650  17.789  0.00  0.00    +0.000 OA
ENDBRANCH   1  25
BRANCH  10  26
ATOM     26  O   UNL     1      -4.543  11.405  18.599  0.00  0.00    +0.000 OA
BRANCH  26  27
ATOM     27  C   UNL     1      -3.722  11.694  17.461  0.00  0.00    +0.000 C 
BRANCH  27  28
ATOM     28  C   UNL     1      -2.299  11.400  17.828  0.00  0.00    +0.000 A 
ATOM     29  C   UNL     1      -1.363  12.214  18.437  0.00  0.00    +0.000 A 
ATOM     30  C   UNL     1      -0.125  11.547  18.664  0.00  0.00    +0.000 A 
ATOM     31  C   UNL     1      -0.148  10.251  18.201  0.00  0.00    +0.000 A 
ATOM     32  S   UNL     1      -1.656   9.843  17.507  0.00  0.00    +0.000 S 
ENDBRANCH  27  28
ENDBRANCH  26  27
ENDBRANCH  10  26
TORSDOF 6
ENDMDL
MODEL 9
REMARK VINA RESULT:      -6.1      3.023      6.074
REMARK  Name = 
REMARK  8 active torsions:
REMARK  status: ('A' for Active; 'I' for Inactive)
REMARK    1  A    between atoms: C_1  and  O_2
REMARK    2  A    between atoms: O_2  and  C_3
REMARK    3  A    between atoms: C_12  and  O_13
REMARK    4  A    between atoms: O_13  and  C_14
REMARK    5  A    between atoms: C_14  and  C_15
REMARK    6  A    between atoms: N_20  and  C_21
REMARK    7  A    between atoms: C_24  and  C_25
REMARK    8  A    between atoms: N_31  and  C_32
REMARK                            x       y       z     vdW  Elec       q    Type
REMARK                         _______ _______ _______ _____ _____    ______ ____
ROOT
ATOM      1  C   UNL     1      -2.855  10.652  17.337  0.00  0.00    +0.000 A 
ATOM      2  C   UNL     1      -4.223  10.554  17.607  0.00  0.00    +0.000 A 
ATOM      3  C   UNL     1      -4.835  11.268  18.621  0.00  0.00    +0.000 A 
ATOM      4  N   UNL     1      -6.163  11.098  18.767  0.00  0.00    +0.000 NA
ATOM      5  C   UNL     1      -6.787  11.710  19.791  0.00  0.00    +0.000 A 
ATOM      6  C   UNL     1      -6.099  12.495  20.676  0.00  0.00    +0.000 A 
ATOM      7  C   UNL     1      -4.728  12.716  20.521  0.00  0.00    +0.000 A 
ATOM      8  C   UNL     1      -4.041  12.089  19.465  0.00  0.00    +0.000 A 
ATOM      9  C   UNL     1      -2.658  12.171  19.199  0.00  0.00    +0.000 A 
ATOM     10  C   UNL     1      -2.071  11.514  18.108  0.00  0.00    +0.000 A 
ATOM     11  N   UNL     1      -4.335  13.524  21.622  0.00  0.00    +0.000 N 
ATOM     12  C   UNL     1      -5.466  13.767  22.456  0.00  0.00    +0.000 A 
ATOM     13  O   UNL     1      -5.509  14.410  23.494  0.00  0.00    +0.000 OA
ATOM     14  N   UNL     1      -6.552  13.140  21.827  0.00  0.00    +0.000 N 
ATOM     15  C   UNL     1      -7.911  13.141  22.289  0.00  0.00    +0.000 C 
ENDROOT
BRANCH  11  16
ATOM     16  C   UNL     1      -3.073  14.070  21.891  0.00  0.00    +0.000 A 
ATOM     17  C   UNL     1      -2.280  13.502  22.897  0.00  0.00    +0.000 A 
ATOM     18  C   UNL     1      -1.072  14.099  23.279  0.00  0.00    +0.000 A 
ATOM     19  C   UNL     1      -0.665  15.297  22.686  0.00  0.00    +0.000 A 
ATOM     20  C   UNL     1      -1.471  15.887  21.704  0.00  0.00    +0.000 A 
ATOM     21  C   UNL     1      -2.668  15.276  21.304  0.00  0.00    +0.000 A 
BRANCH  19  22
ATOM     22  C   UNL     1       0.557  15.926  23.097  0.00  0.00    +0.000 C 
ATOM     23  N   UNL     1       1.547  16.436  23.435  0.00  0.00    +0.000 NA
ENDBRANCH  19  22
ENDBRANCH  11  16
BRANCH   1  25
ATOM     24  C   UNL     1      -2.943  10.086  15.023  0.00  0.00    +0.000 C 
ATOM     25  O   UNL     1      -2.454   9.818  16.328  0.00  0.00    +0.000 OA
ENDBRANCH   1  25
BRANCH  10  26
ATOM     26  O   UNL     1      -0.740  11.634  17.832  0.00  0.00    +0.000 OA
BRANCH  26  27
ATOM     27  C   UNL     1       0.168  11.604  18.940  0.00  0.00    +0.000 C 
BRANCH  27  28
ATOM     28  C   UNL     1       0.862  10.276  18.935  0.00  0.00    +0.000 A 
ATOM     29  C   UNL     1       1.567   9.656  17.920  0.00  0.00    +0.000 A 
ATOM     30  C   UNL     1       2.126   8.411  18.326  0.00  0.00    +0.000 A 
ATOM     31  C   UNL     1       1.813   8.109  19.632  0.00  0.00    +0.000 A 
ATOM     32  S   UNL     1       0.858   9.324  20.362  0.00  0.00    +0.000 S 
ENDBRANCH  27  28
ENDBRANCH  26  27
ENDBRANCH  10  26
TORSDOF 6
ENDMDL
