MODEL 1
REMARK VINA RESULT:      -7.1      0.000      0.000
REMARK  Name = 
REMARK  8 active torsions:
REMARK  status: ('A' for Active; 'I' for Inactive)
REMARK    1  A    between atoms: C_1  and  C_2
REMARK    2  A    between atoms: C_3  and  C_4
REMARK    3  A    between atoms: C_4  and  C_6
REMARK    4  A    between atoms: N_12  and  C_13
REMARK    5  A    between atoms: C_13  and  O_14
REMARK    6  A    between atoms: O_14  and  C_15
REMARK    7  A    between atoms: C_15  and  C_16
REMARK    8  A    between atoms: C_16  and  O_17
REMARK                            x       y       z     vdW  Elec       q    Type
REMARK                         _______ _______ _______ _____ _____    ______ ____
ROOT
ATOM      1  C   UNL     1       0.990   4.306  17.295  0.00  0.00    +0.000 C 
ATOM      2  C   UNL     1       2.151   4.006  18.205  0.00  0.00    +0.000 A 
ATOM      3  C   UNL     1       3.254   4.736  18.499  0.00  0.00    +0.000 A 
ATOM      4  N   UNL     1       4.317   4.132  19.212  0.00  0.00    +0.000 N 
ATOM      5  C   UNL     1       4.275   2.811  19.634  0.00  0.00    +0.000 A 
ATOM      6  O   UNL     1       5.184   2.234  20.228  0.00  0.00    +0.000 OA
ATOM      7  N   UNL     1       3.135   2.129  19.376  0.00  0.00    +0.000 N 
ATOM      8  C   UNL     1       2.030   2.641  18.791  0.00  0.00    +0.000 A 
ATOM      9  O   UNL     1       0.981   2.011  18.758  0.00  0.00    +0.000 OA
ATOM     10  H   UNL     1       3.071   1.192  19.741  0.00  0.00    +0.000 HD
ENDROOT
BRANCH   3  11
ATOM     11  C   UNL     1       3.455   6.165  17.981  0.00  0.00    +0.000 C 
ATOM     12  O   UNL     1       4.141   6.374  16.979  0.00  0.00    +0.000 OA
BRANCH  11  13
ATOM     13  C   UNL     1       2.761   7.354  18.557  0.00  0.00    +0.000 A 
ATOM     14  C   UNL     1       2.248   7.423  19.855  0.00  0.00    +0.000 A 
ATOM     15  C   UNL     1       1.338   8.437  20.186  0.00  0.00    +0.000 A 
ATOM     16  C   UNL     1       1.026   9.436  19.261  0.00  0.00    +0.000 A 
ATOM     17  C   UNL     1       1.663   9.460  18.026  0.00  0.00    +0.000 A 
ATOM     18  C   UNL     1       2.528   8.426  17.677  0.00  0.00    +0.000 A 
ENDBRANCH  11  13
ENDBRANCH   3  11
BRANCH   4  19
ATOM     19  C   UNL     1       5.588   4.808  19.463  0.00  0.00    +0.000 C 
BRANCH  19  20
ATOM     20  O   UNL     1       6.539   4.525  18.441  0.00  0.00    +0.000 OA
BRANCH  20  21
ATOM     21  C   UNL     1       7.731   5.307  18.547  0.00  0.00    +0.000 C 
BRANCH  21  22
ATOM     22  C   UNL     1       7.437   6.655  17.905  0.00  0.00    +0.000 C 
BRANCH  22  23
ATOM     23  O   UNL     1       7.096   6.461  16.532  0.00  0.00    +0.000 OA
ATOM     24  H   UNL     1       7.951   6.484  16.055  0.00  0.00    +0.000 HD
ENDBRANCH  22  23
ENDBRANCH  21  22
ENDBRANCH  20  21
ENDBRANCH  19  20
ENDBRANCH   4  19
TORSDOF 7
ENDMDL
MODEL 2
REMARK VINA RESULT:      -7.0      3.231      6.278
REMARK  Name = 
REMARK  8 active torsions:
REMARK  status: ('A' for Active; 'I' for Inactive)
REMARK    1  A    between atoms: C_1  and  C_2
REMARK    2  A    between atoms: C_3  and  C_4
REMARK    3  A    between atoms: C_4  and  C_6
REMARK    4  A    between atoms: N_12  and  C_13
REMARK    5  A    between atoms: C_13  and  O_14
REMARK    6  A    between atoms: O_14  and  C_15
REMARK    7  A    between atoms: C_15  and  C_16
REMARK    8  A    between atoms: C_16  and  O_17
REMARK                            x       y       z     vdW  Elec       q    Type
REMARK                         _______ _______ _______ _____ _____    ______ ____
ROOT
ATOM      1  C   UNL     1       7.844   7.311  17.334  0.00  0.00    +0.000 C 
ATOM      2  C   UNL     1       7.037   6.098  17.715  0.00  0.00    +0.000 A 
ATOM      3  C   UNL     1       6.086   5.419  17.029  0.00  0.00    +0.000 A 
ATOM      4  N   UNL     1       5.309   4.444  17.700  0.00  0.00    +0.000 N 
ATOM      5  C   UNL     1       5.486   4.146  19.043  0.00  0.00    +0.000 A 
ATOM      6  O   UNL     1       4.817   3.331  19.676  0.00  0.00    +0.000 OA
ATOM      7  N   UNL     1       6.485   4.800  19.683  0.00  0.00    +0.000 N 
ATOM      8  C   UNL     1       7.342   5.673  19.111  0.00  0.00    +0.000 A 
ATOM      9  O   UNL     1       8.326   6.082  19.714  0.00  0.00    +0.000 OA
ATOM     10  H   UNL     1       6.664   4.537  20.638  0.00  0.00    +0.000 HD
ENDROOT
BRANCH   3  11
ATOM     11  C   UNL     1       5.728   5.751  15.576  0.00  0.00    +0.000 C 
ATOM     12  O   UNL     1       5.020   6.725  15.316  0.00  0.00    +0.000 OA
BRANCH  11  13
ATOM     13  C   UNL     1       6.288   5.018  14.403  0.00  0.00    +0.000 A 
ATOM     14  C   UNL     1       7.481   5.350  13.755  0.00  0.00    +0.000 A 
ATOM     15  C   UNL     1       7.747   4.822  12.484  0.00  0.00    +0.000 A 
ATOM     16  C   UNL     1       6.882   3.887  11.911  0.00  0.00    +0.000 A 
ATOM     17  C   UNL     1       5.780   3.433  12.628  0.00  0.00    +0.000 A 
ATOM     18  C   UNL     1       5.487   3.994  13.868  0.00  0.00    +0.000 A 
ENDBRANCH  11  13
ENDBRANCH   3  11
BRANCH   4  19
ATOM     19  C   UNL     1       4.186   3.755  17.069  0.00  0.00    +0.000 C 
BRANCH  19  20
ATOM     20  O   UNL     1       2.952   4.412  17.345  0.00  0.00    +0.000 OA
BRANCH  20  21
ATOM     21  C   UNL     1       1.884   3.507  17.634  0.00  0.00    +0.000 C 
BRANCH  21  22
ATOM     22  C   UNL     1       2.482   2.108  17.665  0.00  0.00    +0.000 C 
BRANCH  22  23
ATOM     23  O   UNL     1       2.318   1.553  18.971  0.00  0.00    +0.000 OA
ATOM     24  H   UNL     1       2.908   0.771  18.987  0.00  0.00    +0.000 HD
ENDBRANCH  22  23
ENDBRANCH  21  22
ENDBRANCH  20  21
ENDBRANCH  19  20
ENDBRANCH   4  19
TORSDOF 7
ENDMDL
MODEL 3
REMARK VINA RESULT:      -6.9      2.019      4.679
REMARK  Name = 
REMARK  8 active torsions:
REMARK  status: ('A' for Active; 'I' for Inactive)
REMARK    1  A    between atoms: C_1  and  C_2
REMARK    2  A    between atoms: C_3  and  C_4
REMARK    3  A    between atoms: C_4  and  C_6
REMARK    4  A    between atoms: N_12  and  C_13
REMARK    5  A    between atoms: C_13  and  O_14
REMARK    6  A    between atoms: O_14  and  C_15
REMARK    7  A    between atoms: C_15  and  C_16
REMARK    8  A    between atoms: C_16  and  O_17
REMARK                            x       y       z     vdW  Elec       q    Type
REMARK                         _______ _______ _______ _____ _____    ______ ____
ROOT
ATOM      1  C   UNL     1       2.508   7.807  18.323  0.00  0.00    +0.000 C 
ATOM      2  C   UNL     1       2.708   6.646  19.261  0.00  0.00    +0.000 A 
ATOM      3  C   UNL     1       3.500   5.552  19.156  0.00  0.00    +0.000 A 
ATOM      4  N   UNL     1       3.337   4.486  20.073  0.00  0.00    +0.000 N 
ATOM      5  C   UNL     1       2.395   4.516  21.091  0.00  0.00    +0.000 A 
ATOM      6  O   UNL     1       2.195   3.604  21.891  0.00  0.00    +0.000 OA
ATOM      7  N   UNL     1       1.662   5.649  21.204  0.00  0.00    +0.000 N 
ATOM      8  C   UNL     1       1.807   6.756  20.444  0.00  0.00    +0.000 A 
ATOM      9  O   UNL     1       1.231   7.799  20.726  0.00  0.00    +0.000 OA
ATOM     10  H   UNL     1       1.026   5.705  21.983  0.00  0.00    +0.000 HD
ENDROOT
BRANCH   3  11
ATOM     11  C   UNL     1       4.491   5.364  18.001  0.00  0.00    +0.000 C 
ATOM     12  O   UNL     1       4.129   4.831  16.951  0.00  0.00    +0.000 OA
BRANCH  11  13
ATOM     13  C   UNL     1       5.883   5.901  18.016  0.00  0.00    +0.000 A 
ATOM     14  C   UNL     1       6.906   5.437  18.847  0.00  0.00    +0.000 A 
ATOM     15  C   UNL     1       8.061   6.211  19.021  0.00  0.00    +0.000 A 
ATOM     16  C   UNL     1       8.241   7.386  18.288  0.00  0.00    +0.000 A 
ATOM     17  C   UNL     1       7.298   7.762  17.338  0.00  0.00    +0.000 A 
ATOM     18  C   UNL     1       6.126   7.021  17.201  0.00  0.00    +0.000 A 
ENDBRANCH  11  13
ENDBRANCH   3  11
BRANCH   4  19
ATOM     19  C   UNL     1       4.063   3.223  19.957  0.00  0.00    +0.000 C 
BRANCH  19  20
ATOM     20  O   UNL     1       3.178   2.135  19.707  0.00  0.00    +0.000 OA
BRANCH  20  21
ATOM     21  C   UNL     1       2.788   2.028  18.337  0.00  0.00    +0.000 C 
BRANCH  21  22
ATOM     22  C   UNL     1       1.347   2.511  18.246  0.00  0.00    +0.000 C 
BRANCH  22  23
ATOM     23  O   UNL     1       1.290   3.674  17.419  0.00  0.00    +0.000 OA
ATOM     24  H   UNL     1       1.908   4.310  17.838  0.00  0.00    +0.000 HD
ENDBRANCH  22  23
ENDBRANCH  21  22
ENDBRANCH  20  21
ENDBRANCH  19  20
ENDBRANCH   4  19
TORSDOF 7
ENDMDL
MODEL 4
REMARK VINA RESULT:      -6.7      0.572      1.186
REMARK  Name = 
REMARK  8 active torsions:
REMARK  status: ('A' for Active; 'I' for Inactive)
REMARK    1  A    between atoms: C_1  and  C_2
REMARK    2  A    between atoms: C_3  and  C_4
REMARK    3  A    between atoms: C_4  and  C_6
REMARK    4  A    between atoms: N_12  and  C_13
REMARK    5  A    between atoms: C_13  and  O_14
REMARK    6  A    between atoms: O_14  and  C_15
REMARK    7  A    between atoms: C_15  and  C_16
REMARK    8  A    between atoms: C_16  and  O_17
REMARK                            x       y       z     vdW  Elec       q    Type
REMARK                         _______ _______ _______ _____ _____    ______ ____
ROOT
ATOM      1  C   UNL     1       0.970   4.279  17.229  0.00  0.00    +0.000 C 
ATOM      2  C   UNL     1       2.130   3.989  18.143  0.00  0.00    +0.000 A 
ATOM      3  C   UNL     1       3.212   4.740  18.463  0.00  0.00    +0.000 A 
ATOM      4  N   UNL     1       4.283   4.147  19.174  0.00  0.00    +0.000 N 
ATOM      5  C   UNL     1       4.271   2.817  19.567  0.00  0.00    +0.000 A 
ATOM      6  O   UNL     1       5.188   2.251  20.158  0.00  0.00    +0.000 OA
ATOM      7  N   UNL     1       3.150   2.112  19.284  0.00  0.00    +0.000 N 
ATOM      8  C   UNL     1       2.038   2.609  18.699  0.00  0.00    +0.000 A 
ATOM      9  O   UNL     1       1.005   1.953  18.643  0.00  0.00    +0.000 OA
ATOM     10  H   UNL     1       3.106   1.167  19.629  0.00  0.00    +0.000 HD
ENDROOT
BRANCH   3  11
ATOM     11  C   UNL     1       3.381   6.184  17.977  0.00  0.00    +0.000 C 
ATOM     12  O   UNL     1       4.206   6.455  17.104  0.00  0.00    +0.000 OA
BRANCH  11  13
ATOM     13  C   UNL     1       2.507   7.309  18.422  0.00  0.00    +0.000 A 
ATOM     14  C   UNL     1       2.172   8.414  17.634  0.00  0.00    +0.000 A 
ATOM     15  C   UNL     1       1.632   9.557  18.239  0.00  0.00    +0.000 A 
ATOM     16  C   UNL     1       1.329   9.558  19.603  0.00  0.00    +0.000 A 
ATOM     17  C   UNL     1       1.509   8.402  20.354  0.00  0.00    +0.000 A 
ATOM     18  C   UNL     1       2.093   7.283  19.765  0.00  0.00    +0.000 A 
ENDBRANCH  11  13
ENDBRANCH   3  11
BRANCH   4  19
ATOM     19  C   UNL     1       5.534   4.850  19.451  0.00  0.00    +0.000 C 
BRANCH  19  20
ATOM     20  O   UNL     1       6.607   4.329  18.673  0.00  0.00    +0.000 OA
BRANCH  20  21
ATOM     21  C   UNL     1       7.329   5.337  17.961  0.00  0.00    +0.000 C 
BRANCH  21  22
ATOM     22  C   UNL     1       7.375   4.905  16.503  0.00  0.00    +0.000 C 
BRANCH  22  23
ATOM     23  O   UNL     1       6.544   5.768  15.728  0.00  0.00    +0.000 OA
ATOM     24  H   UNL     1       6.644   6.651  16.141  0.00  0.00    +0.000 HD
ENDBRANCH  22  23
ENDBRANCH  21  22
ENDBRANCH  20  21
ENDBRANCH  19  20
ENDBRANCH   4  19
TORSDOF 7
ENDMDL
MODEL 5
REMARK VINA RESULT:      -6.5      2.538      5.031
REMARK  Name = 
REMARK  8 active torsions:
REMARK  status: ('A' for Active; 'I' for Inactive)
REMARK    1  A    between atoms: C_1  and  C_2
REMARK    2  A    between atoms: C_3  and  C_4
REMARK    3  A    between atoms: C_4  and  C_6
REMARK    4  A    between atoms: N_12  and  C_13
REMARK    5  A    between atoms: C_13  and  O_14
REMARK    6  A    between atoms: O_14  and  C_15
REMARK    7  A    between atoms: C_15  and  C_16
REMARK    8  A    between atoms: C_16  and  O_17
REMARK                            x       y       z     vdW  Elec       q    Type
REMARK                         _______ _______ _______ _____ _____    ______ ____
ROOT
ATOM      1  C   UNL     1       3.993   1.835  19.819  0.00  0.00    +0.000 C 
ATOM      2  C   UNL     1       3.180   3.102  19.846  0.00  0.00    +0.000 A 
ATOM      3  C   UNL     1       2.915   4.002  18.869  0.00  0.00    +0.000 A 
ATOM      4  N   UNL     1       2.309   5.236  19.206  0.00  0.00    +0.000 N 
ATOM      5  C   UNL     1       1.966   5.565  20.509  0.00  0.00    +0.000 A 
ATOM      6  O   UNL     1       1.467   6.634  20.856  0.00  0.00    +0.000 OA
ATOM      7  N   UNL     1       2.190   4.619  21.452  0.00  0.00    +0.000 N 
ATOM      8  C   UNL     1       2.670   3.379  21.219  0.00  0.00    +0.000 A 
ATOM      9  O   UNL     1       2.674   2.525  22.097  0.00  0.00    +0.000 OA
ATOM     10  H   UNL     1       1.879   4.825  22.388  0.00  0.00    +0.000 HD
ENDROOT
BRANCH   3  11
ATOM     11  C   UNL     1       3.358   3.791  17.416  0.00  0.00    +0.000 C 
ATOM     12  O   UNL     1       2.579   3.314  16.590  0.00  0.00    +0.000 OA
BRANCH  11  13
ATOM     13  C   UNL     1       4.677   4.242  16.885  0.00  0.00    +0.000 A 
ATOM     14  C   UNL     1       5.021   4.271  15.530  0.00  0.00    +0.000 A 
ATOM     15  C   UNL     1       6.367   4.389  15.161  0.00  0.00    +0.000 A 
ATOM     16  C   UNL     1       7.352   4.586  16.131  0.00  0.00    +0.000 A 
ATOM     17  C   UNL     1       6.991   4.722  17.467  0.00  0.00    +0.000 A 
ATOM     18  C   UNL     1       5.660   4.554  17.841  0.00  0.00    +0.000 A 
ENDBRANCH  11  13
ENDBRANCH   3  11
BRANCH   4  19
ATOM     19  C   UNL     1       2.101   6.308  18.236  0.00  0.00    +0.000 C 
BRANCH  19  20
ATOM     20  O   UNL     1       3.193   7.222  18.228  0.00  0.00    +0.000 OA
BRANCH  20  21
ATOM     21  C   UNL     1       2.873   8.479  17.627  0.00  0.00    +0.000 C 
BRANCH  21  22
ATOM     22  C   UNL     1       1.669   9.035  18.372  0.00  0.00    +0.000 C 
BRANCH  22  23
ATOM     23  O   UNL     1       1.162  10.171  17.672  0.00  0.00    +0.000 OA
ATOM     24  H   UNL     1       0.898   9.827  16.793  0.00  0.00    +0.000 HD
ENDBRANCH  22  23
ENDBRANCH  21  22
ENDBRANCH  20  21
ENDBRANCH  19  20
ENDBRANCH   4  19
TORSDOF 7
ENDMDL
MODEL 6
REMARK VINA RESULT:      -6.4      1.525      1.579
REMARK  Name = 
REMARK  8 active torsions:
REMARK  status: ('A' for Active; 'I' for Inactive)
REMARK    1  A    between atoms: C_1  and  C_2
REMARK    2  A    between atoms: C_3  and  C_4
REMARK    3  A    between atoms: C_4  and  C_6
REMARK    4  A    between atoms: N_12  and  C_13
REMARK    5  A    between atoms: C_13  and  O_14
REMARK    6  A    between atoms: O_14  and  C_15
REMARK    7  A    between atoms: C_15  and  C_16
REMARK    8  A    between atoms: C_16  and  O_17
REMARK                            x       y       z     vdW  Elec       q    Type
REMARK                         _______ _______ _______ _____ _____    ______ ____
ROOT
ATOM      1  C   UNL     1       0.476   4.244  20.249  0.00  0.00    +0.000 C 
ATOM      2  C   UNL     1       1.922   3.829  20.308  0.00  0.00    +0.000 A 
ATOM      3  C   UNL     1       2.986   4.228  19.570  0.00  0.00    +0.000 A 
ATOM      4  N   UNL     1       4.206   3.517  19.669  0.00  0.00    +0.000 N 
ATOM      5  C   UNL     1       4.363   2.420  20.503  0.00  0.00    +0.000 A 
ATOM      6  O   UNL     1       5.391   1.752  20.600  0.00  0.00    +0.000 OA
ATOM      7  N   UNL     1       3.298   2.085  21.270  0.00  0.00    +0.000 N 
ATOM      8  C   UNL     1       2.127   2.756  21.322  0.00  0.00    +0.000 A 
ATOM      9  O   UNL     1       1.285   2.496  22.171  0.00  0.00    +0.000 OA
ATOM     10  H   UNL     1       3.428   1.334  21.928  0.00  0.00    +0.000 HD
ENDROOT
BRANCH   3  11
ATOM     11  C   UNL     1       2.889   5.352  18.532  0.00  0.00    +0.000 C 
ATOM     12  O   UNL     1       3.013   5.103  17.331  0.00  0.00    +0.000 OA
BRANCH  11  13
ATOM     13  C   UNL     1       2.531   6.760  18.873  0.00  0.00    +0.000 A 
ATOM     14  C   UNL     1       2.126   7.192  20.139  0.00  0.00    +0.000 A 
ATOM     15  C   UNL     1       1.501   8.439  20.277  0.00  0.00    +0.000 A 
ATOM     16  C   UNL     1       1.380   9.294  19.179  0.00  0.00    +0.000 A 
ATOM     17  C   UNL     1       1.931   8.932  17.955  0.00  0.00    +0.000 A 
ATOM     18  C   UNL     1       2.506   7.673  17.804  0.00  0.00    +0.000 A 
ENDBRANCH  11  13
ENDBRANCH   3  11
BRANCH   4  19
ATOM     19  C   UNL     1       5.361   3.804  18.821  0.00  0.00    +0.000 C 
BRANCH  19  20
ATOM     20  O   UNL     1       6.207   4.787  19.410  0.00  0.00    +0.000 OA
BRANCH  20  21
ATOM     21  C   UNL     1       7.219   5.266  18.522  0.00  0.00    +0.000 C 
BRANCH  21  22
ATOM     22  C   UNL     1       6.650   5.181  17.113  0.00  0.00    +0.000 C 
BRANCH  22  23
ATOM     23  O   UNL     1       7.652   4.677  16.228  0.00  0.00    +0.000 OA
ATOM     24  H   UNL     1       8.171   5.464  15.962  0.00  0.00    +0.000 HD
ENDBRANCH  22  23
ENDBRANCH  21  22
ENDBRANCH  20  21
ENDBRANCH  19  20
ENDBRANCH   4  19
TORSDOF 7
ENDMDL
MODEL 7
REMARK VINA RESULT:      -6.4      2.521      4.866
REMARK  Name = 
REMARK  8 active torsions:
REMARK  status: ('A' for Active; 'I' for Inactive)
REMARK    1  A    between atoms: C_1  and  C_2
REMARK    2  A    between atoms: C_3  and  C_4
REMARK    3  A    between atoms: C_4  and  C_6
REMARK    4  A    between atoms: N_12  and  C_13
REMARK    5  A    between atoms: C_13  and  O_14
REMARK    6  A    between atoms: O_14  and  C_15
REMARK    7  A    between atoms: C_15  and  C_16
REMARK    8  A    between atoms: C_16  and  O_17
REMARK                            x       y       z     vdW  Elec       q    Type
REMARK                         _______ _______ _______ _____ _____    ______ ____
ROOT
ATOM      1  C   UNL     1       3.959   1.831  19.840  0.00  0.00    +0.000 C 
ATOM      2  C   UNL     1       3.179   3.119  19.839  0.00  0.00    +0.000 A 
ATOM      3  C   UNL     1       2.957   4.016  18.849  0.00  0.00    +0.000 A 
ATOM      4  N   UNL     1       2.377   5.268  19.163  0.00  0.00    +0.000 N 
ATOM      5  C   UNL     1       2.015   5.618  20.456  0.00  0.00    +0.000 A 
ATOM      6  O   UNL     1       1.537   6.703  20.783  0.00  0.00    +0.000 OA
ATOM      7  N   UNL     1       2.195   4.676  21.411  0.00  0.00    +0.000 N 
ATOM      8  C   UNL     1       2.648   3.421  21.199  0.00  0.00    +0.000 A 
ATOM      9  O   UNL     1       2.611   2.576  22.084  0.00  0.00    +0.000 OA
ATOM     10  H   UNL     1       1.869   4.897  22.338  0.00  0.00    +0.000 HD
ENDROOT
BRANCH   3  11
ATOM     11  C   UNL     1       3.425   3.781  17.408  0.00  0.00    +0.000 C 
ATOM     12  O   UNL     1       2.628   3.402  16.548  0.00  0.00    +0.000 OA
BRANCH  11  13
ATOM     13  C   UNL     1       4.802   4.097  16.928  0.00  0.00    +0.000 A 
ATOM     14  C   UNL     1       5.884   4.400  17.759  0.00  0.00    +0.000 A 
ATOM     15  C   UNL     1       7.028   4.998  17.215  0.00  0.00    +0.000 A 
ATOM     16  C   UNL     1       7.136   5.194  15.836  0.00  0.00    +0.000 A 
ATOM     17  C   UNL     1       6.128   4.741  14.991  0.00  0.00    +0.000 A 
ATOM     18  C   UNL     1       4.969   4.193  15.535  0.00  0.00    +0.000 A 
ENDBRANCH  11  13
ENDBRANCH   3  11
BRANCH   4  19
ATOM     19  C   UNL     1       2.216   6.337  18.179  0.00  0.00    +0.000 C 
BRANCH  19  20
ATOM     20  O   UNL     1       3.380   7.154  18.104  0.00  0.00    +0.000 OA
BRANCH  20  21
ATOM     21  C   UNL     1       3.125   8.452  17.562  0.00  0.00    +0.000 C 
BRANCH  21  22
ATOM     22  C   UNL     1       1.812   8.933  18.161  0.00  0.00    +0.000 C 
BRANCH  22  23
ATOM     23  O   UNL     1       1.374  10.100  17.465  0.00  0.00    +0.000 OA
ATOM     24  H   UNL     1       2.000  10.804  17.736  0.00  0.00    +0.000 HD
ENDBRANCH  22  23
ENDBRANCH  21  22
ENDBRANCH  20  21
ENDBRANCH  19  20
ENDBRANCH   4  19
TORSDOF 7
ENDMDL
MODEL 8
REMARK VINA RESULT:      -6.4      3.523      5.350
REMARK  Name = 
REMARK  8 active torsions:
REMARK  status: ('A' for Active; 'I' for Inactive)
REMARK    1  A    between atoms: C_1  and  C_2
REMARK    2  A    between atoms: C_3  and  C_4
REMARK    3  A    between atoms: C_4  and  C_6
REMARK    4  A    between atoms: N_12  and  C_13
REMARK    5  A    between atoms: C_13  and  O_14
REMARK    6  A    between atoms: O_14  and  C_15
REMARK    7  A    between atoms: C_15  and  C_16
REMARK    8  A    between atoms: C_16  and  O_17
REMARK                            x       y       z     vdW  Elec       q    Type
REMARK                         _______ _______ _______ _____ _____    ______ ____
ROOT
ATOM      1  C   UNL     1       3.516   3.573  16.776  0.00  0.00    +0.000 C 
ATOM      2  C   UNL     1       4.583   4.348  17.503  0.00  0.00    +0.000 A 
ATOM      3  C   UNL     1       5.490   5.245  17.044  0.00  0.00    +0.000 A 
ATOM      4  N   UNL     1       6.541   5.666  17.894  0.00  0.00    +0.000 N 
ATOM      5  C   UNL     1       6.681   5.199  19.193  0.00  0.00    +0.000 A 
ATOM      6  O   UNL     1       7.592   5.511  19.957  0.00  0.00    +0.000 OA
ATOM      7  N   UNL     1       5.725   4.350  19.638  0.00  0.00    +0.000 N 
ATOM      8  C   UNL     1       4.633   3.966  18.942  0.00  0.00    +0.000 A 
ATOM      9  O   UNL     1       3.726   3.341  19.480  0.00  0.00    +0.000 OA
ATOM     10  H   UNL     1       5.782   4.063  20.601  0.00  0.00    +0.000 HD
ENDROOT
BRANCH   3  11
ATOM     11  C   UNL     1       5.497   5.736  15.592  0.00  0.00    +0.000 C 
ATOM     12  O   UNL     1       5.064   6.854  15.309  0.00  0.00    +0.000 OA
BRANCH  11  13
ATOM     13  C   UNL     1       6.118   4.973  14.469  0.00  0.00    +0.000 A 
ATOM     14  C   UNL     1       7.380   5.238  13.930  0.00  0.00    +0.000 A 
ATOM     15  C   UNL     1       7.728   4.696  12.686  0.00  0.00    +0.000 A 
ATOM     16  C   UNL     1       6.867   3.810  12.035  0.00  0.00    +0.000 A 
ATOM     17  C   UNL     1       5.683   3.417  12.649  0.00  0.00    +0.000 A 
ATOM     18  C   UNL     1       5.313   3.994  13.862  0.00  0.00    +0.000 A 
ENDBRANCH  11  13
ENDBRANCH   3  11
BRANCH   4  19
ATOM     19  C   UNL     1       7.626   6.533  17.442  0.00  0.00    +0.000 C 
BRANCH  19  20
ATOM     20  O   UNL     1       7.397   7.890  17.811  0.00  0.00    +0.000 OA
BRANCH  20  21
ATOM     21  C   UNL     1       8.510   8.488  18.479  0.00  0.00    +0.000 C 
BRANCH  21  22
ATOM     22  C   UNL     1       8.656   9.898  17.923  0.00  0.00    +0.000 C 
BRANCH  22  23
ATOM     23  O   UNL     1       8.988  10.792  18.985  0.00  0.00    +0.000 OA
ATOM     24  H   UNL     1       9.619  11.429  18.590  0.00  0.00    +0.000 HD
ENDBRANCH  22  23
ENDBRANCH  21  22
ENDBRANCH  20  21
ENDBRANCH  19  20
ENDBRANCH   4  19
TORSDOF 7
ENDMDL
MODEL 9
REMARK VINA RESULT:      -6.3      3.285      6.102
REMARK  Name = 
REMARK  8 active torsions:
REMARK  status: ('A' for Active; 'I' for Inactive)
REMARK    1  A    between atoms: C_1  and  C_2
REMARK    2  A    between atoms: C_3  and  C_4
REMARK    3  A    between atoms: C_4  and  C_6
REMARK    4  A    between atoms: N_12  and  C_13
REMARK    5  A    between atoms: C_13  and  O_14
REMARK    6  A    between atoms: O_14  and  C_15
REMARK    7  A    between atoms: C_15  and  C_16
REMARK    8  A    between atoms: C_16  and  O_17
REMARK                            x       y       z     vdW  Elec       q    Type
REMARK                         _______ _______ _______ _____ _____    ______ ____
ROOT
ATOM      1  C   UNL     1       7.744   7.325  17.427  0.00  0.00    +0.000 C 
ATOM      2  C   UNL     1       6.962   6.087  17.778  0.00  0.00    +0.000 A 
ATOM      3  C   UNL     1       6.036   5.397  17.069  0.00  0.00    +0.000 A 
ATOM      4  N   UNL     1       5.276   4.392  17.714  0.00  0.00    +0.000 N 
ATOM      5  C   UNL     1       5.444   4.074  19.053  0.00  0.00    +0.000 A 
ATOM      6  O   UNL     1       4.788   3.233  19.664  0.00  0.00    +0.000 OA
ATOM      7  N   UNL     1       6.418   4.742  19.716  0.00  0.00    +0.000 N 
ATOM      8  C   UNL     1       7.260   5.645  19.170  0.00  0.00    +0.000 A 
ATOM      9  O   UNL     1       8.227   6.068  19.792  0.00  0.00    +0.000 OA
ATOM     10  H   UNL     1       6.592   4.467  20.669  0.00  0.00    +0.000 HD
ENDROOT
BRANCH   3  11
ATOM     11  C   UNL     1       5.688   5.744  15.617  0.00  0.00    +0.000 C 
ATOM     12  O   UNL     1       4.966   6.710  15.364  0.00  0.00    +0.000 OA
BRANCH  11  13
ATOM     13  C   UNL     1       6.272   5.039  14.439  0.00  0.00    +0.000 A 
ATOM     14  C   UNL     1       7.455   5.413  13.795  0.00  0.00    +0.000 A 
ATOM     15  C   UNL     1       7.739   4.904  12.521  0.00  0.00    +0.000 A 
ATOM     16  C   UNL     1       6.905   3.948  11.939  0.00  0.00    +0.000 A 
ATOM     17  C   UNL     1       5.817   3.453  12.650  0.00  0.00    +0.000 A 
ATOM     18  C   UNL     1       5.504   3.995  13.895  0.00  0.00    +0.000 A 
ENDBRANCH  11  13
ENDBRANCH   3  11
BRANCH   4  19
ATOM     19  C   UNL     1       4.177   3.686  17.057  0.00  0.00    +0.000 C 
BRANCH  19  20
ATOM     20  O   UNL     1       2.970   3.793  17.806  0.00  0.00    +0.000 OA
BRANCH  20  21
ATOM     21  C   UNL     1       2.365   5.085  17.719  0.00  0.00    +0.000 C 
BRANCH  21  22
ATOM     22  C   UNL     1       2.311   5.647  19.132  0.00  0.00    +0.000 C 
BRANCH  22  23
ATOM     23  O   UNL     1       2.083   4.582  20.056  0.00  0.00    +0.000 OA
ATOM     24  H   UNL     1       2.920   4.502  20.558  0.00  0.00    +0.000 HD
ENDBRANCH  22  23
ENDBRANCH  21  22
ENDBRANCH  20  21
ENDBRANCH  19  20
ENDBRANCH   4  19
TORSDOF 7
ENDMDL
