MODEL 1
REMARK VINA RESULT:      -6.9      0.000      0.000
REMARK  Name = 
REMARK  5 active torsions:
REMARK  status: ('A' for Active; 'I' for Inactive)
REMARK    1  A    between atoms: C_2  and  C_3
REMARK    2  A    between atoms: C_2  and  C_10
REMARK    3  A    between atoms: C_11  and  O_12
REMARK    4  A    between atoms: N_13  and  C_14
REMARK    5  A    between atoms: N_21  and  C_22
REMARK                            x       y       z     vdW  Elec       q    Type
REMARK                         _______ _______ _______ _____ _____    ______ ____
ROOT
ATOM      1  C   UNL     1      -2.169  12.057  19.240  0.00  0.00    +0.000 A 
ATOM      2  C   UNL     1      -1.568  10.953  18.768  0.00  0.00    +0.000 A 
ATOM      3  N   UNL     1      -0.169  11.025  18.817  0.00  0.00    +0.000 N 
ATOM      4  N   UNL     1       0.123  12.231  19.500  0.00  0.00    +0.000 N 
ATOM      5  C   UNL     1      -1.061  12.955  19.620  0.00  0.00    +0.000 A 
ATOM      6  O   UNL     1      -1.207  14.129  19.928  0.00  0.00    +0.000 OA
ENDROOT
BRANCH   3   7
ATOM      7  C   UNL     1       0.701   9.888  18.966  0.00  0.00    +0.000 A 
ATOM      8  C   UNL     1       0.820   9.229  20.206  0.00  0.00    +0.000 A 
ATOM      9  C   UNL     1       1.614   8.081  20.372  0.00  0.00    +0.000 A 
ATOM     10  C   UNL     1       2.282   7.535  19.284  0.00  0.00    +0.000 A 
ATOM     11 CL   UNL     1       3.232   6.115  19.468  0.00  0.00    +0.000 Cl
ATOM     12  C   UNL     1       2.184   8.144  18.043  0.00  0.00    +0.000 A 
ATOM     13  C   UNL     1       1.432   9.318  17.903  0.00  0.00    +0.000 A 
ENDBRANCH   3   7
BRANCH   4  14
ATOM     14  C   UNL     1       1.361  12.903  19.496  0.00  0.00    +0.000 A 
ATOM     15  C   UNL     1       1.826  13.369  18.254  0.00  0.00    +0.000 A 
ATOM     16  C   UNL     1       2.947  14.192  18.180  0.00  0.00    +0.000 A 
ATOM     17  C   UNL     1       3.633  14.515  19.347  0.00  0.00    +0.000 A 
ATOM     18 CL   UNL     1       4.997  15.559  19.264  0.00  0.00    +0.000 Cl
ATOM     19  C   UNL     1       3.208  14.021  20.583  0.00  0.00    +0.000 A 
ATOM     20  C   UNL     1       2.065  13.218  20.661  0.00  0.00    +0.000 A 
ENDBRANCH   4  14
BRANCH   1  22
ATOM     21  O   UNL     1      -4.393  11.830  18.528  0.00  0.00    +0.000 OA
ATOM     22  C   UNL     1      -3.617  12.294  19.364  0.00  0.00    +0.000 C 
BRANCH  22  23
ATOM     23  C   UNL     1      -4.133  13.061  20.532  0.00  0.00    +0.000 A 
ATOM     24  C   UNL     1      -3.869  12.642  21.844  0.00  0.00    +0.000 A 
ATOM     25  C   UNL     1      -4.315  13.396  22.932  0.00  0.00    +0.000 A 
ATOM     26  C   UNL     1      -5.070  14.543  22.710  0.00  0.00    +0.000 A 
ATOM     27 CL   UNL     1      -5.624  15.463  24.055  0.00  0.00    +0.000 Cl
ATOM     28  C   UNL     1      -5.383  14.941  21.407  0.00  0.00    +0.000 A 
ATOM     29  C   UNL     1      -4.919  14.202  20.320  0.00  0.00    +0.000 A 
ENDBRANCH  22  23
ENDBRANCH   1  22
BRANCH   2  30
ATOM     30  O   UNL     1      -2.249   9.836  18.346  0.00  0.00    +0.000 OA
ATOM     31  H   UNL     1      -2.494   9.963  17.403  0.00  0.00    +0.000 HD
ENDBRANCH   2  30
TORSDOF 5
ENDMDL
MODEL 2
REMARK VINA RESULT:      -6.9      0.846      1.099
REMARK  Name = 
REMARK  5 active torsions:
REMARK  status: ('A' for Active; 'I' for Inactive)
REMARK    1  A    between atoms: C_2  and  C_3
REMARK    2  A    between atoms: C_2  and  C_10
REMARK    3  A    between atoms: C_11  and  O_12
REMARK    4  A    between atoms: N_13  and  C_14
REMARK    5  A    between atoms: N_21  and  C_22
REMARK                            x       y       z     vdW  Elec       q    Type
REMARK                         _______ _______ _______ _____ _____    ______ ____
ROOT
ATOM      1  C   UNL     1      -2.152  11.912  18.911  0.00  0.00    +0.000 A 
ATOM      2  C   UNL     1      -1.502  10.814  18.493  0.00  0.00    +0.000 A 
ATOM      3  N   UNL     1      -0.112  10.903  18.655  0.00  0.00    +0.000 N 
ATOM      4  N   UNL     1       0.109  12.115  19.355  0.00  0.00    +0.000 N 
ATOM      5  C   UNL     1      -1.089  12.824  19.377  0.00  0.00    +0.000 A 
ATOM      6  O   UNL     1      -1.274  13.997  19.667  0.00  0.00    +0.000 OA
ENDROOT
BRANCH   3   7
ATOM      7  C   UNL     1       0.757   9.777  18.879  0.00  0.00    +0.000 A 
ATOM      8  C   UNL     1       0.844   9.175  20.150  0.00  0.00    +0.000 A 
ATOM      9  C   UNL     1       1.637   8.039  20.389  0.00  0.00    +0.000 A 
ATOM     10  C   UNL     1       2.335   7.447  19.344  0.00  0.00    +0.000 A 
ATOM     11 CL   UNL     1       3.283   6.041  19.618  0.00  0.00    +0.000 Cl
ATOM     12  C   UNL     1       2.267   7.998  18.075  0.00  0.00    +0.000 A 
ATOM     13  C   UNL     1       1.516   9.163  17.861  0.00  0.00    +0.000 A 
ENDBRANCH   3   7
BRANCH   4  14
ATOM     14  C   UNL     1       1.335  12.801  19.450  0.00  0.00    +0.000 A 
ATOM     15  C   UNL     1       1.895  13.269  18.248  0.00  0.00    +0.000 A 
ATOM     16  C   UNL     1       3.008  14.105  18.262  0.00  0.00    +0.000 A 
ATOM     17  C   UNL     1       3.592  14.441  19.480  0.00  0.00    +0.000 A 
ATOM     18 CL   UNL     1       4.947  15.501  19.504  0.00  0.00    +0.000 Cl
ATOM     19  C   UNL     1       3.074  13.946  20.679  0.00  0.00    +0.000 A 
ATOM     20  C   UNL     1       1.938  13.129  20.667  0.00  0.00    +0.000 A 
ENDBRANCH   4  14
BRANCH   1  22
ATOM     21  O   UNL     1      -4.249  12.052  17.868  0.00  0.00    +0.000 OA
ATOM     22  C   UNL     1      -3.608  12.131  18.916  0.00  0.00    +0.000 C 
BRANCH  22  23
ATOM     23  C   UNL     1      -4.300  12.405  20.207  0.00  0.00    +0.000 A 
ATOM     24  C   UNL     1      -5.699  12.456  20.279  0.00  0.00    +0.000 A 
ATOM     25  C   UNL     1      -6.338  12.665  21.503  0.00  0.00    +0.000 A 
ATOM     26  C   UNL     1      -5.578  12.874  22.649  0.00  0.00    +0.000 A 
ATOM     27 CL   UNL     1      -6.370  13.140  24.154  0.00  0.00    +0.000 Cl
ATOM     28  C   UNL     1      -4.181  12.878  22.579  0.00  0.00    +0.000 A 
ATOM     29  C   UNL     1      -3.542  12.647  21.362  0.00  0.00    +0.000 A 
ENDBRANCH  22  23
ENDBRANCH   1  22
BRANCH   2  30
ATOM     30  O   UNL     1      -2.133   9.688  18.021  0.00  0.00    +0.000 OA
ATOM     31  H   UNL     1      -2.149   9.732  17.040  0.00  0.00    +0.000 HD
ENDBRANCH   2  30
TORSDOF 5
ENDMDL
MODEL 3
REMARK VINA RESULT:      -6.8      3.045      4.822
REMARK  Name = 
REMARK  5 active torsions:
REMARK  status: ('A' for Active; 'I' for Inactive)
REMARK    1  A    between atoms: C_2  and  C_3
REMARK    2  A    between atoms: C_2  and  C_10
REMARK    3  A    between atoms: C_11  and  O_12
REMARK    4  A    between atoms: N_13  and  C_14
REMARK    5  A    between atoms: N_21  and  C_22
REMARK                            x       y       z     vdW  Elec       q    Type
REMARK                         _______ _______ _______ _____ _____    ______ ____
ROOT
ATOM      1  C   UNL     1      -1.392  12.439  21.924  0.00  0.00    +0.000 A 
ATOM      2  C   UNL     1      -1.715  12.609  20.631  0.00  0.00    +0.000 A 
ATOM      3  N   UNL     1      -1.161  11.630  19.794  0.00  0.00    +0.000 N 
ATOM      4  N   UNL     1      -0.544  10.696  20.662  0.00  0.00    +0.000 N 
ATOM      5  C   UNL     1      -0.525  11.245  21.942  0.00  0.00    +0.000 A 
ATOM      6  O   UNL     1       0.113  10.878  22.918  0.00  0.00    +0.000 OA
ENDROOT
BRANCH   3   7
ATOM      7  C   UNL     1      -1.755  11.180  18.562  0.00  0.00    +0.000 A 
ATOM      8  C   UNL     1      -2.528  10.002  18.522  0.00  0.00    +0.000 A 
ATOM      9  C   UNL     1      -3.170   9.567  17.350  0.00  0.00    +0.000 A 
ATOM     10  C   UNL     1      -3.090  10.326  16.190  0.00  0.00    +0.000 A 
ATOM     11 CL   UNL     1      -3.895   9.819  14.760  0.00  0.00    +0.000 Cl
ATOM     12  C   UNL     1      -2.350  11.497  16.188  0.00  0.00    +0.000 A 
ATOM     13  C   UNL     1      -1.670  11.893  17.348  0.00  0.00    +0.000 A 
ENDBRANCH   3   7
BRANCH   4  14
ATOM     14  C   UNL     1       0.420   9.738  20.293  0.00  0.00    +0.000 A 
ATOM     15  C   UNL     1       0.590   8.643  21.157  0.00  0.00    +0.000 A 
ATOM     16  C   UNL     1       1.390   7.565  20.787  0.00  0.00    +0.000 A 
ATOM     17  C   UNL     1       2.058   7.600  19.567  0.00  0.00    +0.000 A 
ATOM     18 CL   UNL     1       3.020   6.255  19.092  0.00  0.00    +0.000 Cl
ATOM     19  C   UNL     1       1.934   8.703  18.718  0.00  0.00    +0.000 A 
ATOM     20  C   UNL     1       1.108   9.773  19.077  0.00  0.00    +0.000 A 
ENDBRANCH   4  14
BRANCH   1  22
ATOM     21  O   UNL     1      -1.013  13.911  23.711  0.00  0.00    +0.000 OA
ATOM     22  C   UNL     1      -1.834  13.262  23.063  0.00  0.00    +0.000 C 
BRANCH  22  23
ATOM     23  C   UNL     1      -3.285  13.333  23.391  0.00  0.00    +0.000 A 
ATOM     24  C   UNL     1      -3.909  12.312  24.124  0.00  0.00    +0.000 A 
ATOM     25  C   UNL     1      -5.258  12.412  24.469  0.00  0.00    +0.000 A 
ATOM     26  C   UNL     1      -6.000  13.507  24.039  0.00  0.00    +0.000 A 
ATOM     27 CL   UNL     1      -7.665  13.621  24.459  0.00  0.00    +0.000 Cl
ATOM     28  C   UNL     1      -5.400  14.505  23.263  0.00  0.00    +0.000 A 
ATOM     29  C   UNL     1      -4.048  14.418  22.937  0.00  0.00    +0.000 A 
ENDBRANCH  22  23
ENDBRANCH   1  22
BRANCH   2  30
ATOM     30  O   UNL     1      -2.559  13.595  20.179  0.00  0.00    +0.000 OA
ATOM     31  H   UNL     1      -2.852  13.357  19.273  0.00  0.00    +0.000 HD
ENDBRANCH   2  30
TORSDOF 5
ENDMDL
MODEL 4
REMARK VINA RESULT:      -6.8      1.353      4.801
REMARK  Name = 
REMARK  5 active torsions:
REMARK  status: ('A' for Active; 'I' for Inactive)
REMARK    1  A    between atoms: C_2  and  C_3
REMARK    2  A    between atoms: C_2  and  C_10
REMARK    3  A    between atoms: C_11  and  O_12
REMARK    4  A    between atoms: N_13  and  C_14
REMARK    5  A    between atoms: N_21  and  C_22
REMARK                            x       y       z     vdW  Elec       q    Type
REMARK                         _______ _______ _______ _____ _____    ______ ____
ROOT
ATOM      1  C   UNL     1      -2.357  11.608  18.660  0.00  0.00    +0.000 A 
ATOM      2  C   UNL     1      -1.520  12.481  19.244  0.00  0.00    +0.000 A 
ATOM      3  N   UNL     1      -0.227  11.969  19.418  0.00  0.00    +0.000 N 
ATOM      4  N   UNL     1      -0.228  10.711  18.767  0.00  0.00    +0.000 N 
ATOM      5  C   UNL     1      -1.545  10.395  18.444  0.00  0.00    +0.000 A 
ATOM      6  O   UNL     1      -2.005   9.318  18.093  0.00  0.00    +0.000 OA
ENDROOT
BRANCH   3   7
ATOM      7  C   UNL     1       0.971  12.767  19.432  0.00  0.00    +0.000 A 
ATOM      8  C   UNL     1       1.656  13.062  18.236  0.00  0.00    +0.000 A 
ATOM      9  C   UNL     1       2.793  13.887  18.208  0.00  0.00    +0.000 A 
ATOM     10  C   UNL     1       3.254  14.477  19.378  0.00  0.00    +0.000 A 
ATOM     11 CL   UNL     1       4.626  15.510  19.350  0.00  0.00    +0.000 Cl
ATOM     12  C   UNL     1       2.604  14.224  20.574  0.00  0.00    +0.000 A 
ATOM     13  C   UNL     1       1.503  13.357  20.599  0.00  0.00    +0.000 A 
ENDBRANCH   3   7
BRANCH   4  14
ATOM     14  C   UNL     1       0.717   9.683  18.955  0.00  0.00    +0.000 A 
ATOM     15  C   UNL     1       0.790   9.117  20.239  0.00  0.00    +0.000 A 
ATOM     16  C   UNL     1       1.566   7.984  20.471  0.00  0.00    +0.000 A 
ATOM     17  C   UNL     1       2.306   7.439  19.426  0.00  0.00    +0.000 A 
ATOM     18 CL   UNL     1       3.239   6.021  19.700  0.00  0.00    +0.000 Cl
ATOM     19  C   UNL     1       2.278   8.020  18.155  0.00  0.00    +0.000 A 
ATOM     20  C   UNL     1       1.476   9.141  17.915  0.00  0.00    +0.000 A 
ENDBRANCH   4  14
BRANCH   1  22
ATOM     21  O   UNL     1      -4.102  11.893  17.118  0.00  0.00    +0.000 OA
ATOM     22  C   UNL     1      -3.767  11.837  18.301  0.00  0.00    +0.000 C 
BRANCH  22  23
ATOM     23  C   UNL     1      -4.785  11.957  19.383  0.00  0.00    +0.000 A 
ATOM     24  C   UNL     1      -4.463  12.549  20.613  0.00  0.00    +0.000 A 
ATOM     25  C   UNL     1      -5.437  12.701  21.602  0.00  0.00    +0.000 A 
ATOM     26  C   UNL     1      -6.722  12.216  21.382  0.00  0.00    +0.000 A 
ATOM     27 CL   UNL     1      -7.917  12.398  22.608  0.00  0.00    +0.000 Cl
ATOM     28  C   UNL     1      -7.040  11.579  20.178  0.00  0.00    +0.000 A 
ATOM     29  C   UNL     1      -6.074  11.446  19.182  0.00  0.00    +0.000 A 
ENDBRANCH  22  23
ENDBRANCH   1  22
BRANCH   2  30
ATOM     30  O   UNL     1      -1.870  13.768  19.574  0.00  0.00    +0.000 OA
ATOM     31  H   UNL     1      -2.274  14.189  18.784  0.00  0.00    +0.000 HD
ENDBRANCH   2  30
TORSDOF 5
ENDMDL
MODEL 5
REMARK VINA RESULT:      -6.7      0.174      1.254
REMARK  Name = 
REMARK  5 active torsions:
REMARK  status: ('A' for Active; 'I' for Inactive)
REMARK    1  A    between atoms: C_2  and  C_3
REMARK    2  A    between atoms: C_2  and  C_10
REMARK    3  A    between atoms: C_11  and  O_12
REMARK    4  A    between atoms: N_13  and  C_14
REMARK    5  A    between atoms: N_21  and  C_22
REMARK                            x       y       z     vdW  Elec       q    Type
REMARK                         _______ _______ _______ _____ _____    ______ ____
ROOT
ATOM      1  C   UNL     1      -2.298  12.048  19.206  0.00  0.00    +0.000 A 
ATOM      2  C   UNL     1      -1.717  10.936  18.729  0.00  0.00    +0.000 A 
ATOM      3  N   UNL     1      -0.317  10.971  18.804  0.00  0.00    +0.000 N 
ATOM      4  N   UNL     1      -0.007  12.160  19.510  0.00  0.00    +0.000 N 
ATOM      5  C   UNL     1      -1.175  12.912  19.620  0.00  0.00    +0.000 A 
ATOM      6  O   UNL     1      -1.296  14.084  19.942  0.00  0.00    +0.000 OA
ENDROOT
BRANCH   3   7
ATOM      7  C   UNL     1       0.520   9.810  18.953  0.00  0.00    +0.000 A 
ATOM      8  C   UNL     1       1.253   9.303  17.861  0.00  0.00    +0.000 A 
ATOM      9  C   UNL     1       2.125   8.209  17.986  0.00  0.00    +0.000 A 
ATOM     10  C   UNL     1       2.321   7.614  19.225  0.00  0.00    +0.000 A 
ATOM     11 CL   UNL     1       3.407   6.294  19.396  0.00  0.00    +0.000 Cl
ATOM     12  C   UNL     1       1.631   8.087  20.329  0.00  0.00    +0.000 A 
ATOM     13  C   UNL     1       0.723   9.146  20.181  0.00  0.00    +0.000 A 
ENDBRANCH   3   7
BRANCH   4  14
ATOM     14  C   UNL     1       1.247  12.799  19.538  0.00  0.00    +0.000 A 
ATOM     15  C   UNL     1       1.768  13.228  18.305  0.00  0.00    +0.000 A 
ATOM     16  C   UNL     1       2.913  14.020  18.256  0.00  0.00    +0.000 A 
ATOM     17  C   UNL     1       3.565  14.349  19.441  0.00  0.00    +0.000 A 
ATOM     18 CL   UNL     1       4.958  15.355  19.387  0.00  0.00    +0.000 Cl
ATOM     19  C   UNL     1       3.083  13.891  20.670  0.00  0.00    +0.000 A 
ATOM     20  C   UNL     1       1.917  13.119  20.721  0.00  0.00    +0.000 A 
ENDBRANCH   4  14
BRANCH   1  22
ATOM     21  O   UNL     1      -4.513  11.895  18.448  0.00  0.00    +0.000 OA
ATOM     22  C   UNL     1      -3.742  12.320  19.308  0.00  0.00    +0.000 C 
BRANCH  22  23
ATOM     23  C   UNL     1      -4.260  13.077  20.482  0.00  0.00    +0.000 A 
ATOM     24  C   UNL     1      -4.980  14.268  20.312  0.00  0.00    +0.000 A 
ATOM     25  C   UNL     1      -5.504  14.943  21.417  0.00  0.00    +0.000 A 
ATOM     26  C   UNL     1      -5.266  14.455  22.697  0.00  0.00    +0.000 A 
ATOM     27 CL   UNL     1      -5.907  15.295  24.056  0.00  0.00    +0.000 Cl
ATOM     28  C   UNL     1      -4.506  13.296  22.881  0.00  0.00    +0.000 A 
ATOM     29  C   UNL     1      -4.001  12.609  21.778  0.00  0.00    +0.000 A 
ENDBRANCH  22  23
ENDBRANCH   1  22
BRANCH   2  30
ATOM     30  O   UNL     1      -2.419   9.842  18.279  0.00  0.00    +0.000 OA
ATOM     31  H   UNL     1      -2.687   9.307  19.058  0.00  0.00    +0.000 HD
ENDBRANCH   2  30
TORSDOF 5
ENDMDL
MODEL 6
REMARK VINA RESULT:      -6.7      1.129      4.622
REMARK  Name = 
REMARK  5 active torsions:
REMARK  status: ('A' for Active; 'I' for Inactive)
REMARK    1  A    between atoms: C_2  and  C_3
REMARK    2  A    between atoms: C_2  and  C_10
REMARK    3  A    between atoms: C_11  and  O_12
REMARK    4  A    between atoms: N_13  and  C_14
REMARK    5  A    between atoms: N_21  and  C_22
REMARK                            x       y       z     vdW  Elec       q    Type
REMARK                         _______ _______ _______ _____ _____    ______ ____
ROOT
ATOM      1  C   UNL     1      -2.400  11.819  18.944  0.00  0.00    +0.000 A 
ATOM      2  C   UNL     1      -1.509  12.674  19.474  0.00  0.00    +0.000 A 
ATOM      3  N   UNL     1      -0.215  12.141  19.552  0.00  0.00    +0.000 N 
ATOM      4  N   UNL     1      -0.282  10.889  18.893  0.00  0.00    +0.000 N 
ATOM      5  C   UNL     1      -1.625  10.596  18.663  0.00  0.00    +0.000 A 
ATOM      6  O   UNL     1      -2.125   9.529  18.338  0.00  0.00    +0.000 OA
ENDROOT
BRANCH   3   7
ATOM      7  C   UNL     1       0.993  12.921  19.486  0.00  0.00    +0.000 A 
ATOM      8  C   UNL     1       1.705  13.249  20.658  0.00  0.00    +0.000 A 
ATOM      9  C   UNL     1       2.918  13.958  20.624  0.00  0.00    +0.000 A 
ATOM     10  C   UNL     1       3.477  14.323  19.406  0.00  0.00    +0.000 A 
ATOM     11 CL   UNL     1       4.974  15.163  19.351  0.00  0.00    +0.000 Cl
ATOM     12  C   UNL     1       2.817  14.010  18.229  0.00  0.00    +0.000 A 
ATOM     13  C   UNL     1       1.581  13.350  18.278  0.00  0.00    +0.000 A 
ENDBRANCH   3   7
BRANCH   4  14
ATOM     14  C   UNL     1       0.656   9.845  19.007  0.00  0.00    +0.000 A 
ATOM     15  C   UNL     1       0.790   9.247  20.272  0.00  0.00    +0.000 A 
ATOM     16  C   UNL     1       1.562   8.099  20.435  0.00  0.00    +0.000 A 
ATOM     17  C   UNL     1       2.238   7.571  19.340  0.00  0.00    +0.000 A 
ATOM     18 CL   UNL     1       3.164   6.135  19.531  0.00  0.00    +0.000 Cl
ATOM     19  C   UNL     1       2.150   8.183  18.086  0.00  0.00    +0.000 A 
ATOM     20  C   UNL     1       1.352   9.319  17.916  0.00  0.00    +0.000 A 
ENDBRANCH   4  14
BRANCH   1  22
ATOM     21  O   UNL     1      -4.256  12.084  17.534  0.00  0.00    +0.000 OA
ATOM     22  C   UNL     1      -3.828  12.073  18.688  0.00  0.00    +0.000 C 
BRANCH  22  23
ATOM     23  C   UNL     1      -4.751  12.274  19.840  0.00  0.00    +0.000 A 
ATOM     24  C   UNL     1      -6.137  12.123  19.688  0.00  0.00    +0.000 A 
ATOM     25  C   UNL     1      -6.989  12.265  20.786  0.00  0.00    +0.000 A 
ATOM     26  C   UNL     1      -6.461  12.607  22.026  0.00  0.00    +0.000 A 
ATOM     27 CL   UNL     1      -7.517  12.789  23.374  0.00  0.00    +0.000 Cl
ATOM     28  C   UNL     1      -5.086  12.810  22.177  0.00  0.00    +0.000 A 
ATOM     29  C   UNL     1      -4.232  12.647  21.088  0.00  0.00    +0.000 A 
ENDBRANCH  22  23
ENDBRANCH   1  22
BRANCH   2  30
ATOM     30  O   UNL     1      -1.814  13.965  19.836  0.00  0.00    +0.000 OA
ATOM     31  H   UNL     1      -1.961  13.985  20.807  0.00  0.00    +0.000 HD
ENDBRANCH   2  30
TORSDOF 5
ENDMDL
MODEL 7
REMARK VINA RESULT:      -6.6      2.909      7.517
REMARK  Name = 
REMARK  5 active torsions:
REMARK  status: ('A' for Active; 'I' for Inactive)
REMARK    1  A    between atoms: C_2  and  C_3
REMARK    2  A    between atoms: C_2  and  C_10
REMARK    3  A    between atoms: C_11  and  O_12
REMARK    4  A    between atoms: N_13  and  C_14
REMARK    5  A    between atoms: N_21  and  C_22
REMARK                            x       y       z     vdW  Elec       q    Type
REMARK                         _______ _______ _______ _____ _____    ______ ____
ROOT
ATOM      1  C   UNL     1       0.361  10.621  18.860  0.00  0.00    +0.000 A 
ATOM      2  C   UNL     1      -0.912  10.403  18.495  0.00  0.00    +0.000 A 
ATOM      3  N   UNL     1      -1.831  11.182  19.212  0.00  0.00    +0.000 N 
ATOM      4  N   UNL     1      -1.047  12.056  20.005  0.00  0.00    +0.000 N 
ATOM      5  C   UNL     1       0.277  11.628  19.936  0.00  0.00    +0.000 A 
ATOM      6  O   UNL     1       1.219  11.953  20.644  0.00  0.00    +0.000 OA
ENDROOT
BRANCH   3   7
ATOM      7  C   UNL     1      -3.100  11.625  18.698  0.00  0.00    +0.000 A 
ATOM      8  C   UNL     1      -3.438  11.431  17.344  0.00  0.00    +0.000 A 
ATOM      9  C   UNL     1      -4.691  11.798  16.824  0.00  0.00    +0.000 A 
ATOM     10  C   UNL     1      -5.661  12.335  17.660  0.00  0.00    +0.000 A 
ATOM     11 CL   UNL     1      -7.206  12.760  17.041  0.00  0.00    +0.000 Cl
ATOM     12  C   UNL     1      -5.376  12.532  19.001  0.00  0.00    +0.000 A 
ATOM     13  C   UNL     1      -4.104  12.212  19.497  0.00  0.00    +0.000 A 
ENDBRANCH   3   7
BRANCH   4  14
ATOM     14  C   UNL     1      -1.496  12.778  21.127  0.00  0.00    +0.000 A 
ATOM     15  C   UNL     1      -1.847  12.030  22.264  0.00  0.00    +0.000 A 
ATOM     16  C   UNL     1      -2.133  12.665  23.470  0.00  0.00    +0.000 A 
ATOM     17  C   UNL     1      -2.110  14.055  23.531  0.00  0.00    +0.000 A 
ATOM     18 CL   UNL     1      -2.428  14.841  25.027  0.00  0.00    +0.000 Cl
ATOM     19  C   UNL     1      -1.807  14.812  22.396  0.00  0.00    +0.000 A 
ATOM     20  C   UNL     1      -1.492  14.174  21.192  0.00  0.00    +0.000 A 
ENDBRANCH   4  14
BRANCH   1  22
ATOM     21  O   UNL     1       2.275  10.633  17.503  0.00  0.00    +0.000 OA
ATOM     22  C   UNL     1       1.567  10.000  18.286  0.00  0.00    +0.000 C 
BRANCH  22  23
ATOM     23  C   UNL     1       1.941   8.617  18.696  0.00  0.00    +0.000 A 
ATOM     24  C   UNL     1       2.575   7.745  17.799  0.00  0.00    +0.000 A 
ATOM     25  C   UNL     1       2.965   6.469  18.209  0.00  0.00    +0.000 A 
ATOM     26  C   UNL     1       2.677   6.043  19.502  0.00  0.00    +0.000 A 
ATOM     27 CL   UNL     1       3.152   4.466  19.999  0.00  0.00    +0.000 Cl
ATOM     28  C   UNL     1       1.999   6.886  20.388  0.00  0.00    +0.000 A 
ATOM     29  C   UNL     1       1.629   8.169  19.987  0.00  0.00    +0.000 A 
ENDBRANCH  22  23
ENDBRANCH   1  22
BRANCH   2  30
ATOM     30  O   UNL     1      -1.278   9.557  17.475  0.00  0.00    +0.000 OA
ATOM     31  H   UNL     1      -1.942  10.019  16.916  0.00  0.00    +0.000 HD
ENDBRANCH   2  30
TORSDOF 5
ENDMDL
MODEL 8
REMARK VINA RESULT:      -6.6      2.860      7.906
REMARK  Name = 
REMARK  5 active torsions:
REMARK  status: ('A' for Active; 'I' for Inactive)
REMARK    1  A    between atoms: C_2  and  C_3
REMARK    2  A    between atoms: C_2  and  C_10
REMARK    3  A    between atoms: C_11  and  O_12
REMARK    4  A    between atoms: N_13  and  C_14
REMARK    5  A    between atoms: N_21  and  C_22
REMARK                            x       y       z     vdW  Elec       q    Type
REMARK                         _______ _______ _______ _____ _____    ______ ____
ROOT
ATOM      1  C   UNL     1       0.331  10.682  18.635  0.00  0.00    +0.000 A 
ATOM      2  C   UNL     1       0.249  11.740  19.458  0.00  0.00    +0.000 A 
ATOM      3  N   UNL     1      -1.060  12.218  19.610  0.00  0.00    +0.000 N 
ATOM      4  N   UNL     1      -1.882  11.293  18.920  0.00  0.00    +0.000 N 
ATOM      5  C   UNL     1      -1.054  10.448  18.184  0.00  0.00    +0.000 A 
ATOM      6  O   UNL     1      -1.360   9.677  17.286  0.00  0.00    +0.000 OA
ENDROOT
BRANCH   3   7
ATOM      7  C   UNL     1      -1.556  12.875  20.791  0.00  0.00    +0.000 A 
ATOM      8  C   UNL     1      -1.724  12.164  21.996  0.00  0.00    +0.000 A 
ATOM      9  C   UNL     1      -2.149  12.787  23.181  0.00  0.00    +0.000 A 
ATOM     10  C   UNL     1      -2.379  14.157  23.203  0.00  0.00    +0.000 A 
ATOM     11 CL   UNL     1      -2.871  14.935  24.653  0.00  0.00    +0.000 Cl
ATOM     12  C   UNL     1      -2.215  14.897  22.044  0.00  0.00    +0.000 A 
ATOM     13  C   UNL     1      -1.842  14.255  20.854  0.00  0.00    +0.000 A 
ENDBRANCH   3   7
BRANCH   4  14
ATOM     14  C   UNL     1      -3.208  11.518  18.503  0.00  0.00    +0.000 A 
ATOM     15  C   UNL     1      -4.126  11.912  19.493  0.00  0.00    +0.000 A 
ATOM     16  C   UNL     1      -5.410  12.323  19.145  0.00  0.00    +0.000 A 
ATOM     17  C   UNL     1      -5.794  12.301  17.808  0.00  0.00    +0.000 A 
ATOM     18 CL   UNL     1      -7.367  12.841  17.371  0.00  0.00    +0.000 Cl
ATOM     19  C   UNL     1      -4.906  11.868  16.819  0.00  0.00    +0.000 A 
ATOM     20  C   UNL     1      -3.607  11.481  17.165  0.00  0.00    +0.000 A 
ENDBRANCH   4  14
BRANCH   1  22
ATOM     21  O   UNL     1       2.373  10.398  17.515  0.00  0.00    +0.000 OA
ATOM     22  C   UNL     1       1.543   9.921  18.289  0.00  0.00    +0.000 C 
BRANCH  22  23
ATOM     23  C   UNL     1       1.773   8.590  18.918  0.00  0.00    +0.000 A 
ATOM     24  C   UNL     1       1.423   8.354  20.256  0.00  0.00    +0.000 A 
ATOM     25  C   UNL     1       1.597   7.089  20.821  0.00  0.00    +0.000 A 
ATOM     26  C   UNL     1       2.168   6.070  20.065  0.00  0.00    +0.000 A 
ATOM     27 CL   UNL     1       2.387   4.515  20.769  0.00  0.00    +0.000 Cl
ATOM     28  C   UNL     1       2.567   6.309  18.746  0.00  0.00    +0.000 A 
ATOM     29  C   UNL     1       2.374   7.565  18.174  0.00  0.00    +0.000 A 
ENDBRANCH  22  23
ENDBRANCH   1  22
BRANCH   2  30
ATOM     30  O   UNL     1       1.324  12.261  20.139  0.00  0.00    +0.000 OA
ATOM     31  H   UNL     1       0.982  12.854  20.844  0.00  0.00    +0.000 HD
ENDBRANCH   2  30
TORSDOF 5
ENDMDL
MODEL 9
REMARK VINA RESULT:      -6.6      2.913      7.556
REMARK  Name = 
REMARK  5 active torsions:
REMARK  status: ('A' for Active; 'I' for Inactive)
REMARK    1  A    between atoms: C_2  and  C_3
REMARK    2  A    between atoms: C_2  and  C_10
REMARK    3  A    between atoms: C_11  and  O_12
REMARK    4  A    between atoms: N_13  and  C_14
REMARK    5  A    between atoms: N_21  and  C_22
REMARK                            x       y       z     vdW  Elec       q    Type
REMARK                         _______ _______ _______ _____ _____    ______ ____
ROOT
ATOM      1  C   UNL     1       0.337  10.622  18.876  0.00  0.00    +0.000 A 
ATOM      2  C   UNL     1      -0.930  10.411  18.484  0.00  0.00    +0.000 A 
ATOM      3  N   UNL     1      -1.864  11.149  19.224  0.00  0.00    +0.000 N 
ATOM      4  N   UNL     1      -1.098  11.991  20.067  0.00  0.00    +0.000 N 
ATOM      5  C   UNL     1       0.230  11.576  19.997  0.00  0.00    +0.000 A 
ATOM      6  O   UNL     1       1.160  11.875  20.732  0.00  0.00    +0.000 OA
ENDROOT
BRANCH   3   7
ATOM      7  C   UNL     1      -3.130  11.607  18.713  0.00  0.00    +0.000 A 
ATOM      8  C   UNL     1      -3.469  11.427  17.357  0.00  0.00    +0.000 A 
ATOM      9  C   UNL     1      -4.718  11.808  16.840  0.00  0.00    +0.000 A 
ATOM     10  C   UNL     1      -5.685  12.345  17.681  0.00  0.00    +0.000 A 
ATOM     11 CL   UNL     1      -7.226  12.787  17.065  0.00  0.00    +0.000 Cl
ATOM     12  C   UNL     1      -5.399  12.528  19.024  0.00  0.00    +0.000 A 
ATOM     13  C   UNL     1      -4.130  12.193  19.517  0.00  0.00    +0.000 A 
ENDBRANCH   3   7
BRANCH   4  14
ATOM     14  C   UNL     1      -1.567  12.657  21.215  0.00  0.00    +0.000 A 
ATOM     15  C   UNL     1      -1.672  14.056  21.138  0.00  0.00    +0.000 A 
ATOM     16  C   UNL     1      -2.288  14.779  22.157  0.00  0.00    +0.000 A 
ATOM     17  C   UNL     1      -2.764  14.105  23.278  0.00  0.00    +0.000 A 
ATOM     18 CL   UNL     1      -3.557  14.989  24.522  0.00  0.00    +0.000 Cl
ATOM     19  C   UNL     1      -2.626  12.718  23.388  0.00  0.00    +0.000 A 
ATOM     20  C   UNL     1      -2.032  11.990  22.351  0.00  0.00    +0.000 A 
ENDBRANCH   4  14
BRANCH   1  22
ATOM     21  O   UNL     1       2.244  10.695  17.511  0.00  0.00    +0.000 OA
ATOM     22  C   UNL     1       1.556  10.036  18.290  0.00  0.00    +0.000 C 
BRANCH  22  23
ATOM     23  C   UNL     1       1.965   8.659  18.685  0.00  0.00    +0.000 A 
ATOM     24  C   UNL     1       1.676   8.159  19.963  0.00  0.00    +0.000 A 
ATOM     25  C   UNL     1       2.020   6.850  20.305  0.00  0.00    +0.000 A 
ATOM     26  C   UNL     1       2.701   6.055  19.388  0.00  0.00    +0.000 A 
ATOM     27 CL   UNL     1       3.131   4.445  19.819  0.00  0.00    +0.000 Cl
ATOM     28  C   UNL     1       3.040   6.562  18.129  0.00  0.00    +0.000 A 
ATOM     29  C   UNL     1       2.676   7.861  17.779  0.00  0.00    +0.000 A 
ENDBRANCH  22  23
ENDBRANCH   1  22
BRANCH   2  30
ATOM     30  O   UNL     1      -1.275   9.611  17.420  0.00  0.00    +0.000 OA
ATOM     31  H   UNL     1      -2.021   9.035  17.698  0.00  0.00    +0.000 HD
ENDBRANCH   2  30
TORSDOF 5
ENDMDL
