MODEL 1
REMARK VINA RESULT:      -6.2      0.000      0.000
REMARK  Name = 
REMARK  12 active torsions:
REMARK  status: ('A' for Active; 'I' for Inactive)
REMARK    1  A    between atoms: C_1  and  O_2
REMARK    2  A    between atoms: O_2  and  C_3
REMARK    3  A    between atoms: C_7  and  O_8
REMARK    4  A    between atoms: O_8  and  C_9
REMARK    5  A    between atoms: C_10  and  O_11
REMARK    6  A    between atoms: O_11  and  C_12
REMARK    7  A    between atoms: C_16  and  N_17
REMARK    8  A    between atoms: N_17  and  C_18
REMARK    9  A    between atoms: C_18  and  C_19
REMARK   10  A    between atoms: C_19  and  O_20
REMARK   11  A    between atoms: C_25  and  N_26
REMARK   12  A    between atoms: C_27  and  C_28
REMARK                            x       y       z     vdW  Elec       q    Type
REMARK                         _______ _______ _______ _____ _____    ______ ____
ROOT
ATOM      1  C   UNL     1      -4.979  11.359  18.546  0.00  0.00    +0.000 A 
ATOM      2  C   UNL     1      -4.850  12.198  19.654  0.00  0.00    +0.000 A 
ATOM      3  C   UNL     1      -3.605  12.694  20.043  0.00  0.00    +0.000 A 
ATOM      4  C   UNL     1      -2.450  12.376  19.281  0.00  0.00    +0.000 A 
ATOM      5  C   UNL     1      -2.575  11.523  18.144  0.00  0.00    +0.000 A 
ATOM      6  C   UNL     1      -3.849  11.015  17.772  0.00  0.00    +0.000 A 
ATOM      7  C   UNL     1      -1.145  12.948  19.773  0.00  0.00    +0.000 A 
ATOM      8  C   UNL     1      -0.563  13.781  18.894  0.00  0.00    +0.000 A 
ATOM      9  C   UNL     1       0.751  14.355  18.884  0.00  0.00    +0.000 A 
ATOM     10  C   UNL     1       1.693  14.467  19.826  0.00  0.00    +0.000 A 
ATOM     11  C   UNL     1       1.511  14.073  21.263  0.00  0.00    +0.000 A 
ATOM     12  O   UNL     1       2.301  14.518  22.102  0.00  0.00    +0.000 OA
ATOM     13  C   UNL     1       0.438  13.164  21.727  0.00  0.00    +0.000 A 
ATOM     14  C   UNL     1      -0.662  12.651  21.140  0.00  0.00    +0.000 A 
ATOM     15  C   UNL     1      -1.652  11.795  21.962  0.00  0.00    +0.000 C 
ATOM     16  C   UNL     1      -2.840  12.657  22.454  0.00  0.00    +0.000 C 
ATOM     17  C   UNL     1      -3.501  13.488  21.327  0.00  0.00    +0.000 C 
ENDROOT
BRANCH  15  18
ATOM     18  N   UNL     1      -1.013  11.128  23.082  0.00  0.00    +0.000 N 
ATOM     19  C   UNL     1      -0.327   9.944  23.113  0.00  0.00    +0.000 C 
ATOM     20  C   UNL     1      -0.218   9.101  21.877  0.00  0.00    +0.000 C 
ATOM     21  O   UNL     1       0.173   9.587  24.182  0.00  0.00    +0.000 OA
ATOM     22  H   UNL     1      -1.005  11.600  23.994  0.00  0.00    +0.000 HD
ENDBRANCH  15  18
BRANCH   1  24
ATOM     23  C   UNL     1      -7.296  11.912  18.765  0.00  0.00    +0.000 C 
ATOM     24  O   UNL     1      -6.289  11.015  18.312  0.00  0.00    +0.000 OA
ENDBRANCH   1  24
BRANCH   5  25
ATOM     25  O   UNL     1      -1.525  11.287  17.284  0.00  0.00    +0.000 OA
ATOM     26  C   UNL     1      -0.691  10.159  17.539  0.00  0.00    +0.000 C 
ENDBRANCH   5  25
BRANCH   6  27
ATOM     27  O   UNL     1      -4.131  10.228  16.685  0.00  0.00    +0.000 OA
ATOM     28  C   UNL     1      -3.898  10.674  15.363  0.00  0.00    +0.000 C 
ENDBRANCH   6  27
BRANCH  10  29
ATOM     29  N   UNL     1       2.967  14.938  19.476  0.00  0.00    +0.000 N 
ATOM     30  H   UNL     1       3.703  14.551  20.070  0.00  0.00    +0.000 HD
BRANCH  29  31
ATOM     31  C   UNL     1       3.257  16.284  18.976  0.00  0.00    +0.000 C 
BRANCH  31  32
ATOM     32  C   UNL     1       3.216  16.387  17.446  0.00  0.00    +0.000 C 
BRANCH  32  33
ATOM     33  O   UNL     1       2.524  17.561  17.033  0.00  0.00    +0.000 OA
ATOM     34  H   UNL     1       2.593  18.195  17.776  0.00  0.00    +0.000 HD
ENDBRANCH  32  33
ENDBRANCH  31  32
ENDBRANCH  29  31
ENDBRANCH  10  29
TORSDOF 8
ENDMDL
MODEL 2
REMARK VINA RESULT:      -6.0      7.242     10.027
REMARK  Name = 
REMARK  12 active torsions:
REMARK  status: ('A' for Active; 'I' for Inactive)
REMARK    1  A    between atoms: C_1  and  O_2
REMARK    2  A    between atoms: O_2  and  C_3
REMARK    3  A    between atoms: C_7  and  O_8
REMARK    4  A    between atoms: O_8  and  C_9
REMARK    5  A    between atoms: C_10  and  O_11
REMARK    6  A    between atoms: O_11  and  C_12
REMARK    7  A    between atoms: C_16  and  N_17
REMARK    8  A    between atoms: N_17  and  C_18
REMARK    9  A    between atoms: C_18  and  C_19
REMARK   10  A    between atoms: C_19  and  O_20
REMARK   11  A    between atoms: C_25  and  N_26
REMARK   12  A    between atoms: C_27  and  C_28
REMARK                            x       y       z     vdW  Elec       q    Type
REMARK                         _______ _______ _______ _____ _____    ______ ____
ROOT
ATOM      1  C   UNL     1       5.937   4.045  14.939  0.00  0.00    +0.000 A 
ATOM      2  C   UNL     1       4.664   3.622  15.325  0.00  0.00    +0.000 A 
ATOM      3  C   UNL     1       3.921   4.336  16.265  0.00  0.00    +0.000 A 
ATOM      4  C   UNL     1       4.445   5.535  16.814  0.00  0.00    +0.000 A 
ATOM      5  C   UNL     1       5.744   5.976  16.421  0.00  0.00    +0.000 A 
ATOM      6  C   UNL     1       6.493   5.228  15.472  0.00  0.00    +0.000 A 
ATOM      7  C   UNL     1       3.580   6.242  17.828  0.00  0.00    +0.000 A 
ATOM      8  C   UNL     1       3.212   7.476  17.446  0.00  0.00    +0.000 A 
ATOM      9  C   UNL     1       2.583   8.531  18.185  0.00  0.00    +0.000 A 
ATOM     10  C   UNL     1       1.943   8.553  19.359  0.00  0.00    +0.000 A 
ATOM     11  C   UNL     1       1.622   7.334  20.175  0.00  0.00    +0.000 A 
ATOM     12  O   UNL     1       0.755   7.422  21.051  0.00  0.00    +0.000 OA
ATOM     13  C   UNL     1       2.304   6.032  19.995  0.00  0.00    +0.000 A 
ATOM     14  C   UNL     1       3.142   5.545  19.058  0.00  0.00    +0.000 A 
ATOM     15  C   UNL     1       3.598   4.070  19.117  0.00  0.00    +0.000 C 
ATOM     16  C   UNL     1       2.731   3.193  18.182  0.00  0.00    +0.000 C 
ATOM     17  C   UNL     1       2.606   3.763  16.749  0.00  0.00    +0.000 C 
ENDROOT
BRANCH  15  18
ATOM     18  N   UNL     1       3.585   3.537  20.467  0.00  0.00    +0.000 N 
ATOM     19  C   UNL     1       2.572   2.912  21.145  0.00  0.00    +0.000 C 
ATOM     20  C   UNL     1       1.219   2.765  20.516  0.00  0.00    +0.000 C 
ATOM     21  O   UNL     1       2.802   2.499  22.283  0.00  0.00    +0.000 OA
ATOM     22  H   UNL     1       4.453   3.564  21.013  0.00  0.00    +0.000 HD
ENDBRANCH  15  18
BRANCH   1  24
ATOM     23  C   UNL     1       5.900   3.261  12.679  0.00  0.00    +0.000 C 
ATOM     24  O   UNL     1       6.480   3.226  13.977  0.00  0.00    +0.000 OA
ENDBRANCH   1  24
BRANCH   5  25
ATOM     25  O   UNL     1       6.254   7.197  16.807  0.00  0.00    +0.000 OA
ATOM     26  C   UNL     1       7.356   7.206  17.710  0.00  0.00    +0.000 C 
ENDBRANCH   5  25
BRANCH   6  27
ATOM     27  O   UNL     1       7.725   5.549  14.965  0.00  0.00    +0.000 OA
ATOM     28  C   UNL     1       7.926   5.772  13.583  0.00  0.00    +0.000 C 
ENDBRANCH   6  27
BRANCH  10  29
ATOM     29  N   UNL     1       1.570   9.782  19.920  0.00  0.00    +0.000 N 
ATOM     30  H   UNL     1       1.435   9.725  20.931  0.00  0.00    +0.000 HD
BRANCH  29  31
ATOM     31  C   UNL     1       0.720  10.782  19.266  0.00  0.00    +0.000 C 
BRANCH  31  32
ATOM     32  C   UNL     1      -0.644  10.231  18.833  0.00  0.00    +0.000 C 
BRANCH  32  33
ATOM     33  O   UNL     1      -0.977  10.670  17.519  0.00  0.00    +0.000 OA
ATOM     34  H   UNL     1      -1.709  11.312  17.623  0.00  0.00    +0.000 HD
ENDBRANCH  32  33
ENDBRANCH  31  32
ENDBRANCH  29  31
ENDBRANCH  10  29
TORSDOF 8
ENDMDL
MODEL 3
REMARK VINA RESULT:      -6.0      6.417      8.808
REMARK  Name = 
REMARK  12 active torsions:
REMARK  status: ('A' for Active; 'I' for Inactive)
REMARK    1  A    between atoms: C_1  and  O_2
REMARK    2  A    between atoms: O_2  and  C_3
REMARK    3  A    between atoms: C_7  and  O_8
REMARK    4  A    between atoms: O_8  and  C_9
REMARK    5  A    between atoms: C_10  and  O_11
REMARK    6  A    between atoms: O_11  and  C_12
REMARK    7  A    between atoms: C_16  and  N_17
REMARK    8  A    between atoms: N_17  and  C_18
REMARK    9  A    between atoms: C_18  and  C_19
REMARK   10  A    between atoms: C_19  and  O_20
REMARK   11  A    between atoms: C_25  and  N_26
REMARK   12  A    between atoms: C_27  and  C_28
REMARK                            x       y       z     vdW  Elec       q    Type
REMARK                         _______ _______ _______ _____ _____    ______ ____
ROOT
ATOM      1  C   UNL     1       0.459   9.269  21.020  0.00  0.00    +0.000 A 
ATOM      2  C   UNL     1       1.111   8.113  21.451  0.00  0.00    +0.000 A 
ATOM      3  C   UNL     1       1.898   7.361  20.578  0.00  0.00    +0.000 A 
ATOM      4  C   UNL     1       2.074   7.793  19.238  0.00  0.00    +0.000 A 
ATOM      5  C   UNL     1       1.415   8.977  18.791  0.00  0.00    +0.000 A 
ATOM      6  C   UNL     1       0.605   9.723  19.691  0.00  0.00    +0.000 A 
ATOM      7  C   UNL     1       2.935   6.919  18.360  0.00  0.00    +0.000 A 
ATOM      8  C   UNL     1       4.034   7.541  17.902  0.00  0.00    +0.000 A 
ATOM      9  C   UNL     1       4.977   7.146  16.898  0.00  0.00    +0.000 A 
ATOM     10  C   UNL     1       5.224   5.974  16.303  0.00  0.00    +0.000 A 
ATOM     11  C   UNL     1       4.572   4.676  16.679  0.00  0.00    +0.000 A 
ATOM     12  O   UNL     1       5.099   3.621  16.310  0.00  0.00    +0.000 OA
ATOM     13  C   UNL     1       3.315   4.593  17.459  0.00  0.00    +0.000 A 
ATOM     14  C   UNL     1       2.588   5.496  18.146  0.00  0.00    +0.000 A 
ATOM     15  C   UNL     1       1.352   5.043  18.954  0.00  0.00    +0.000 C 
ATOM     16  C   UNL     1       1.718   4.841  20.445  0.00  0.00    +0.000 C 
ATOM     17  C   UNL     1       2.472   6.045  21.058  0.00  0.00    +0.000 C 
ENDROOT
BRANCH  15  18
ATOM     18  N   UNL     1       0.746   3.839  18.415  0.00  0.00    +0.000 N 
ATOM     19  C   UNL     1       0.906   2.536  18.803  0.00  0.00    +0.000 C 
ATOM     20  C   UNL     1       1.879   2.185  19.889  0.00  0.00    +0.000 C 
ATOM     21  O   UNL     1       0.250   1.670  18.221  0.00  0.00    +0.000 OA
ATOM     22  H   UNL     1       0.049   3.934  17.667  0.00  0.00    +0.000 HD
ENDBRANCH  15  18
BRANCH   1  24
ATOM     23  C   UNL     1       0.018   9.429  23.366  0.00  0.00    +0.000 C 
ATOM     24  O   UNL     1      -0.229   9.882  22.041  0.00  0.00    +0.000 OA
ENDBRANCH   1  24
BRANCH   5  25
ATOM     25  O   UNL     1       1.652   9.526  17.550  0.00  0.00    +0.000 OA
ATOM     26  C   UNL     1       2.390  10.743  17.486  0.00  0.00    +0.000 C 
ENDBRANCH   5  25
BRANCH   6  27
ATOM     27  O   UNL     1      -0.048  10.897  19.422  0.00  0.00    +0.000 OA
ATOM     28  C   UNL     1      -1.337  10.916  18.839  0.00  0.00    +0.000 C 
ENDBRANCH   6  27
BRANCH  10  29
ATOM     29  N   UNL     1       6.112   5.923  15.220  0.00  0.00    +0.000 N 
ATOM     30  H   UNL     1       5.689   6.256  14.351  0.00  0.00    +0.000 HD
BRANCH  29  31
ATOM     31  C   UNL     1       7.138   4.895  15.021  0.00  0.00    +0.000 C 
BRANCH  31  32
ATOM     32  C   UNL     1       7.148   4.313  13.602  0.00  0.00    +0.000 C 
BRANCH  32  33
ATOM     33  O   UNL     1       6.238   3.223  13.492  0.00  0.00    +0.000 OA
ATOM     34  H   UNL     1       6.436   2.624  14.241  0.00  0.00    +0.000 HD
ENDBRANCH  32  33
ENDBRANCH  31  32
ENDBRANCH  29  31
ENDBRANCH  10  29
TORSDOF 8
ENDMDL
MODEL 4
REMARK VINA RESULT:      -5.9      7.405     10.302
REMARK  Name = 
REMARK  12 active torsions:
REMARK  status: ('A' for Active; 'I' for Inactive)
REMARK    1  A    between atoms: C_1  and  O_2
REMARK    2  A    between atoms: O_2  and  C_3
REMARK    3  A    between atoms: C_7  and  O_8
REMARK    4  A    between atoms: O_8  and  C_9
REMARK    5  A    between atoms: C_10  and  O_11
REMARK    6  A    between atoms: O_11  and  C_12
REMARK    7  A    between atoms: C_16  and  N_17
REMARK    8  A    between atoms: N_17  and  C_18
REMARK    9  A    between atoms: C_18  and  C_19
REMARK   10  A    between atoms: C_19  and  O_20
REMARK   11  A    between atoms: C_25  and  N_26
REMARK   12  A    between atoms: C_27  and  C_28
REMARK                            x       y       z     vdW  Elec       q    Type
REMARK                         _______ _______ _______ _____ _____    ______ ____
ROOT
ATOM      1  C   UNL     1       6.088   4.091  14.776  0.00  0.00    +0.000 A 
ATOM      2  C   UNL     1       4.834   3.615  15.164  0.00  0.00    +0.000 A 
ATOM      3  C   UNL     1       4.083   4.272  16.138  0.00  0.00    +0.000 A 
ATOM      4  C   UNL     1       4.577   5.468  16.722  0.00  0.00    +0.000 A 
ATOM      5  C   UNL     1       5.856   5.963  16.327  0.00  0.00    +0.000 A 
ATOM      6  C   UNL     1       6.614   5.272  15.344  0.00  0.00    +0.000 A 
ATOM      7  C   UNL     1       3.705   6.111  17.771  0.00  0.00    +0.000 A 
ATOM      8  C   UNL     1       3.292   7.345  17.437  0.00  0.00    +0.000 A 
ATOM      9  C   UNL     1       2.642   8.354  18.221  0.00  0.00    +0.000 A 
ATOM     10  C   UNL     1       2.017   8.314  19.403  0.00  0.00    +0.000 A 
ATOM     11  C   UNL     1       1.747   7.059  20.180  0.00  0.00    +0.000 A 
ATOM     12  O   UNL     1       0.890   7.088  21.070  0.00  0.00    +0.000 OA
ATOM     13  C   UNL     1       2.466   5.786  19.946  0.00  0.00    +0.000 A 
ATOM     14  C   UNL     1       3.305   5.358  18.981  0.00  0.00    +0.000 A 
ATOM     15  C   UNL     1       3.808   3.898  18.982  0.00  0.00    +0.000 C 
ATOM     16  C   UNL     1       2.955   3.026  18.029  0.00  0.00    +0.000 C 
ATOM     17  C   UNL     1       2.793   3.642  16.618  0.00  0.00    +0.000 C 
ENDROOT
BRANCH  15  18
ATOM     18  N   UNL     1       3.830   3.318  20.313  0.00  0.00    +0.000 N 
ATOM     19  C   UNL     1       2.827   2.697  21.008  0.00  0.00    +0.000 C 
ATOM     20  C   UNL     1       1.447   2.610  20.427  0.00  0.00    +0.000 C 
ATOM     21  O   UNL     1       3.087   2.238  22.122  0.00  0.00    +0.000 OA
ATOM     22  H   UNL     1       4.719   3.302  20.826  0.00  0.00    +0.000 HD
ENDBRANCH  15  18
BRANCH   1  24
ATOM     23  C   UNL     1       5.951   3.255  12.539  0.00  0.00    +0.000 C 
ATOM     24  O   UNL     1       6.643   3.324  13.779  0.00  0.00    +0.000 OA
ENDBRANCH   1  24
BRANCH   5  25
ATOM     25  O   UNL     1       6.332   7.185  16.750  0.00  0.00    +0.000 OA
ATOM     26  C   UNL     1       7.431   7.197  17.658  0.00  0.00    +0.000 C 
ENDBRANCH   5  25
BRANCH   6  27
ATOM     27  O   UNL     1       7.828   5.649  14.833  0.00  0.00    +0.000 OA
ATOM     28  C   UNL     1       8.051   5.748  13.439  0.00  0.00    +0.000 C 
ENDBRANCH   6  27
BRANCH  10  29
ATOM     29  N   UNL     1       1.615   9.511  20.012  0.00  0.00    +0.000 N 
ATOM     30  H   UNL     1       2.151   9.720  20.856  0.00  0.00    +0.000 HD
BRANCH  29  31
ATOM     31  C   UNL     1       0.239  10.015  20.046  0.00  0.00    +0.000 C 
BRANCH  31  32
ATOM     32  C   UNL     1      -0.220  10.436  21.448  0.00  0.00    +0.000 C 
BRANCH  32  33
ATOM     33  O   UNL     1      -0.575   9.301  22.230  0.00  0.00    +0.000 OA
ATOM     34  H   UNL     1      -0.056   9.365  23.058  0.00  0.00    +0.000 HD
ENDBRANCH  32  33
ENDBRANCH  31  32
ENDBRANCH  29  31
ENDBRANCH  10  29
TORSDOF 8
ENDMDL
MODEL 5
REMARK VINA RESULT:      -5.9      1.186      1.292
REMARK  Name = 
REMARK  12 active torsions:
REMARK  status: ('A' for Active; 'I' for Inactive)
REMARK    1  A    between atoms: C_1  and  O_2
REMARK    2  A    between atoms: O_2  and  C_3
REMARK    3  A    between atoms: C_7  and  O_8
REMARK    4  A    between atoms: O_8  and  C_9
REMARK    5  A    between atoms: C_10  and  O_11
REMARK    6  A    between atoms: O_11  and  C_12
REMARK    7  A    between atoms: C_16  and  N_17
REMARK    8  A    between atoms: N_17  and  C_18
REMARK    9  A    between atoms: C_18  and  C_19
REMARK   10  A    between atoms: C_19  and  O_20
REMARK   11  A    between atoms: C_25  and  N_26
REMARK   12  A    between atoms: C_27  and  C_28
REMARK                            x       y       z     vdW  Elec       q    Type
REMARK                         _______ _______ _______ _____ _____    ______ ____
ROOT
ATOM      1  C   UNL     1      -4.992  11.261  18.581  0.00  0.00    +0.000 A 
ATOM      2  C   UNL     1      -4.942  12.057  19.727  0.00  0.00    +0.000 A 
ATOM      3  C   UNL     1      -3.745  12.632  20.153  0.00  0.00    +0.000 A 
ATOM      4  C   UNL     1      -2.561  12.444  19.393  0.00  0.00    +0.000 A 
ATOM      5  C   UNL     1      -2.606  11.636  18.217  0.00  0.00    +0.000 A 
ATOM      6  C   UNL     1      -3.831  11.044  17.807  0.00  0.00    +0.000 A 
ATOM      7  C   UNL     1      -1.311  13.096  19.928  0.00  0.00    +0.000 A 
ATOM      8  C   UNL     1      -0.790  14.012  19.095  0.00  0.00    +0.000 A 
ATOM      9  C   UNL     1       0.473  14.689  19.127  0.00  0.00    +0.000 A 
ATOM     10  C   UNL     1       1.394  14.835  20.086  0.00  0.00    +0.000 A 
ATOM     11  C   UNL     1       1.230  14.362  21.501  0.00  0.00    +0.000 A 
ATOM     12  O   UNL     1       1.974  14.830  22.370  0.00  0.00    +0.000 OA
ATOM     13  C   UNL     1       0.230  13.349  21.910  0.00  0.00    +0.000 A 
ATOM     14  C   UNL     1      -0.819  12.777  21.286  0.00  0.00    +0.000 A 
ATOM     15  C   UNL     1      -1.744  11.808  22.056  0.00  0.00    +0.000 C 
ATOM     16  C   UNL     1      -3.003  12.548  22.570  0.00  0.00    +0.000 C 
ATOM     17  C   UNL     1      -3.718  13.373  21.473  0.00  0.00    +0.000 C 
ENDROOT
BRANCH  15  18
ATOM     18  N   UNL     1      -1.064  11.144  23.154  0.00  0.00    +0.000 N 
ATOM     19  C   UNL     1      -0.355   9.972  23.157  0.00  0.00    +0.000 C 
ATOM     20  C   UNL     1      -0.264   9.141  21.911  0.00  0.00    +0.000 C 
ATOM     21  O   UNL     1       0.178   9.617  24.209  0.00  0.00    +0.000 OA
ATOM     22  H   UNL     1      -1.041  11.609  24.069  0.00  0.00    +0.000 HD
ENDBRANCH  15  18
BRANCH   1  24
ATOM     23  C   UNL     1      -7.010  10.262  19.389  0.00  0.00    +0.000 C 
ATOM     24  O   UNL     1      -6.268  10.824  18.314  0.00  0.00    +0.000 OA
ENDBRANCH   1  24
BRANCH   5  25
ATOM     25  O   UNL     1      -1.532  11.525  17.362  0.00  0.00    +0.000 OA
ATOM     26  C   UNL     1      -0.594  10.477  17.597  0.00  0.00    +0.000 C 
ENDBRANCH   5  25
BRANCH   6  27
ATOM     27  O   UNL     1      -4.038  10.288  16.682  0.00  0.00    +0.000 OA
ATOM     28  C   UNL     1      -3.886  10.828  15.384  0.00  0.00    +0.000 C 
ENDBRANCH   6  27
BRANCH  10  29
ATOM     29  N   UNL     1       2.628  15.422  19.774  0.00  0.00    +0.000 N 
ATOM     30  H   UNL     1       2.526  16.273  19.219  0.00  0.00    +0.000 HD
BRANCH  29  31
ATOM     31  C   UNL     1       3.866  14.684  19.504  0.00  0.00    +0.000 C 
BRANCH  31  32
ATOM     32  C   UNL     1       4.877  14.752  20.654  0.00  0.00    +0.000 C 
BRANCH  32  33
ATOM     33  O   UNL     1       4.609  15.862  21.504  0.00  0.00    +0.000 OA
ATOM     34  H   UNL     1       5.378  15.939  22.106  0.00  0.00    +0.000 HD
ENDBRANCH  32  33
ENDBRANCH  31  32
ENDBRANCH  29  31
ENDBRANCH  10  29
TORSDOF 8
ENDMDL
MODEL 6
REMARK VINA RESULT:      -5.7      3.114      6.696
REMARK  Name = 
REMARK  12 active torsions:
REMARK  status: ('A' for Active; 'I' for Inactive)
REMARK    1  A    between atoms: C_1  and  O_2
REMARK    2  A    between atoms: O_2  and  C_3
REMARK    3  A    between atoms: C_7  and  O_8
REMARK    4  A    between atoms: O_8  and  C_9
REMARK    5  A    between atoms: C_10  and  O_11
REMARK    6  A    between atoms: O_11  and  C_12
REMARK    7  A    between atoms: C_16  and  N_17
REMARK    8  A    between atoms: N_17  and  C_18
REMARK    9  A    between atoms: C_18  and  C_19
REMARK   10  A    between atoms: C_19  and  O_20
REMARK   11  A    between atoms: C_25  and  N_26
REMARK   12  A    between atoms: C_27  and  C_28
REMARK                            x       y       z     vdW  Elec       q    Type
REMARK                         _______ _______ _______ _____ _____    ______ ____
ROOT
ATOM      1  C   UNL     1      -3.034  13.528  21.712  0.00  0.00    +0.000 A 
ATOM      2  C   UNL     1      -3.000  13.159  20.366  0.00  0.00    +0.000 A 
ATOM      3  C   UNL     1      -2.051  12.255  19.890  0.00  0.00    +0.000 A 
ATOM      4  C   UNL     1      -1.125  11.665  20.789  0.00  0.00    +0.000 A 
ATOM      5  C   UNL     1      -1.157  12.033  22.168  0.00  0.00    +0.000 A 
ATOM      6  C   UNL     1      -2.121  12.967  22.633  0.00  0.00    +0.000 A 
ATOM      7  C   UNL     1      -0.130  10.703  20.190  0.00  0.00    +0.000 A 
ATOM      8  C   UNL     1      -0.235   9.455  20.678  0.00  0.00    +0.000 A 
ATOM      9  C   UNL     1       0.632   8.323  20.534  0.00  0.00    +0.000 A 
ATOM     10  C   UNL     1       1.640   8.060  19.696  0.00  0.00    +0.000 A 
ATOM     11  C   UNL     1       2.041   8.937  18.546  0.00  0.00    +0.000 A 
ATOM     12  O   UNL     1       2.745   8.454  17.652  0.00  0.00    +0.000 OA
ATOM     13  C   UNL     1       1.650  10.361  18.434  0.00  0.00    +0.000 A 
ATOM     14  C   UNL     1       0.780  11.140  19.108  0.00  0.00    +0.000 A 
ATOM     15  C   UNL     1       0.531  12.595  18.654  0.00  0.00    +0.000 C 
ATOM     16  C   UNL     1      -0.737  12.683  17.771  0.00  0.00    +0.000 C 
ATOM     17  C   UNL     1      -1.971  11.993  18.401  0.00  0.00    +0.000 C 
ENDROOT
BRANCH  15  18
ATOM     18  N   UNL     1       1.671  13.165  17.960  0.00  0.00    +0.000 N 
ATOM     19  C   UNL     1       2.494  14.194  18.335  0.00  0.00    +0.000 C 
ATOM     20  C   UNL     1       2.223  14.955  19.599  0.00  0.00    +0.000 C 
ATOM     21  O   UNL     1       3.438  14.483  17.598  0.00  0.00    +0.000 OA
ATOM     22  H   UNL     1       1.975  12.732  17.080  0.00  0.00    +0.000 HD
ENDBRANCH  15  18
BRANCH   1  24
ATOM     23  C   UNL     1      -5.360  13.840  22.176  0.00  0.00    +0.000 C 
ATOM     24  O   UNL     1      -4.065  14.396  21.982  0.00  0.00    +0.000 OA
ENDBRANCH   1  24
BRANCH   5  25
ATOM     25  O   UNL     1      -0.382  11.399  23.115  0.00  0.00    +0.000 OA
ATOM     26  C   UNL     1      -0.753  10.081  23.510  0.00  0.00    +0.000 C 
ENDBRANCH   5  25
BRANCH   6  27
ATOM     27  O   UNL     1      -2.304  13.379  23.927  0.00  0.00    +0.000 OA
ATOM     28  C   UNL     1      -1.724  14.573  24.417  0.00  0.00    +0.000 C 
ENDBRANCH   6  27
BRANCH  10  29
ATOM     29  N   UNL     1       2.428   6.918  19.900  0.00  0.00    +0.000 N 
ATOM     30  H   UNL     1       2.983   6.674  19.078  0.00  0.00    +0.000 HD
BRANCH  29  31
ATOM     31  C   UNL     1       2.040   5.764  20.716  0.00  0.00    +0.000 C 
BRANCH  31  32
ATOM     32  C   UNL     1       1.761   4.502  19.890  0.00  0.00    +0.000 C 
BRANCH  32  33
ATOM     33  O   UNL     1       0.498   3.939  20.232  0.00  0.00    +0.000 OA
ATOM     34  H   UNL     1       0.469   3.056  19.810  0.00  0.00    +0.000 HD
ENDBRANCH  32  33
ENDBRANCH  31  32
ENDBRANCH  29  31
ENDBRANCH  10  29
TORSDOF 8
ENDMDL
MODEL 7
REMARK VINA RESULT:      -5.7      1.416      1.747
REMARK  Name = 
REMARK  12 active torsions:
REMARK  status: ('A' for Active; 'I' for Inactive)
REMARK    1  A    between atoms: C_1  and  O_2
REMARK    2  A    between atoms: O_2  and  C_3
REMARK    3  A    between atoms: C_7  and  O_8
REMARK    4  A    between atoms: O_8  and  C_9
REMARK    5  A    between atoms: C_10  and  O_11
REMARK    6  A    between atoms: O_11  and  C_12
REMARK    7  A    between atoms: C_16  and  N_17
REMARK    8  A    between atoms: N_17  and  C_18
REMARK    9  A    between atoms: C_18  and  C_19
REMARK   10  A    between atoms: C_19  and  O_20
REMARK   11  A    between atoms: C_25  and  N_26
REMARK   12  A    between atoms: C_27  and  C_28
REMARK                            x       y       z     vdW  Elec       q    Type
REMARK                         _______ _______ _______ _____ _____    ______ ____
ROOT
ATOM      1  C   UNL     1      -5.762  12.462  20.121  0.00  0.00    +0.000 A 
ATOM      2  C   UNL     1      -5.064  13.235  21.052  0.00  0.00    +0.000 A 
ATOM      3  C   UNL     1      -3.676  13.353  20.994  0.00  0.00    +0.000 A 
ATOM      4  C   UNL     1      -2.956  12.714  19.952  0.00  0.00    +0.000 A 
ATOM      5  C   UNL     1      -3.662  11.927  18.994  0.00  0.00    +0.000 A 
ATOM      6  C   UNL     1      -5.076  11.805  19.077  0.00  0.00    +0.000 A 
ATOM      7  C   UNL     1      -1.458  12.889  19.967  0.00  0.00    +0.000 A 
ATOM      8  C   UNL     1      -0.984  13.516  18.877  0.00  0.00    +0.000 A 
ATOM      9  C   UNL     1       0.362  13.688  18.414  0.00  0.00    +0.000 A 
ATOM     10  C   UNL     1       1.548  13.529  19.009  0.00  0.00    +0.000 A 
ATOM     11  C   UNL     1       1.733  13.211  20.464  0.00  0.00    +0.000 A 
ATOM     12  O   UNL     1       2.839  13.415  20.977  0.00  0.00    +0.000 OA
ATOM     13  C   UNL     1       0.660  12.651  21.317  0.00  0.00    +0.000 A 
ATOM     14  C   UNL     1      -0.664  12.472  21.145  0.00  0.00    +0.000 A 
ATOM     15  C   UNL     1      -1.533  11.941  22.306  0.00  0.00    +0.000 C 
ATOM     16  C   UNL     1      -2.223  13.110  23.051  0.00  0.00    +0.000 C 
ATOM     17  C   UNL     1      -2.957  14.091  22.104  0.00  0.00    +0.000 C 
ENDROOT
BRANCH  15  18
ATOM     18  N   UNL     1      -0.777  11.125  23.238  0.00  0.00    +0.000 N 
ATOM     19  C   UNL     1      -0.276   9.860  23.078  0.00  0.00    +0.000 C 
ATOM     20  C   UNL     1      -0.549   9.093  21.819  0.00  0.00    +0.000 C 
ATOM     21  O   UNL     1       0.379   9.373  24.001  0.00  0.00    +0.000 OA
ATOM     22  H   UNL     1      -0.511  11.531  24.143  0.00  0.00    +0.000 HD
ENDBRANCH  15  18
BRANCH   1  24
ATOM     23  C   UNL     1      -7.826  13.635  19.826  0.00  0.00    +0.000 C 
ATOM     24  O   UNL     1      -7.120  12.508  20.330  0.00  0.00    +0.000 OA
ENDBRANCH   1  24
BRANCH   5  25
ATOM     25  O   UNL     1      -3.046  11.395  17.882  0.00  0.00    +0.000 OA
ATOM     26  C   UNL     1      -2.639  10.030  17.931  0.00  0.00    +0.000 C 
ENDBRANCH   5  25
BRANCH   6  27
ATOM     27  O   UNL     1      -5.891  11.127  18.208  0.00  0.00    +0.000 OA
ATOM     28  C   UNL     1      -6.663  10.017  18.623  0.00  0.00    +0.000 C 
ENDBRANCH   6  27
BRANCH  10  29
ATOM     29  N   UNL     1       2.721  13.613  18.246  0.00  0.00    +0.000 N 
ATOM     30  H   UNL     1       3.364  12.841  18.432  0.00  0.00    +0.000 HD
BRANCH  29  31
ATOM     31  C   UNL     1       3.390  14.860  17.866  0.00  0.00    +0.000 C 
BRANCH  31  32
ATOM     32  C   UNL     1       4.906  14.833  18.098  0.00  0.00    +0.000 C 
BRANCH  32  33
ATOM     33  O   UNL     1       5.323  15.956  18.867  0.00  0.00    +0.000 OA
ATOM     34  H   UNL     1       6.075  16.355  18.383  0.00  0.00    +0.000 HD
ENDBRANCH  32  33
ENDBRANCH  31  32
ENDBRANCH  29  31
ENDBRANCH  10  29
TORSDOF 8
ENDMDL
MODEL 8
REMARK VINA RESULT:      -5.7      2.960      6.041
REMARK  Name = 
REMARK  12 active torsions:
REMARK  status: ('A' for Active; 'I' for Inactive)
REMARK    1  A    between atoms: C_1  and  O_2
REMARK    2  A    between atoms: O_2  and  C_3
REMARK    3  A    between atoms: C_7  and  O_8
REMARK    4  A    between atoms: O_8  and  C_9
REMARK    5  A    between atoms: C_10  and  O_11
REMARK    6  A    between atoms: O_11  and  C_12
REMARK    7  A    between atoms: C_16  and  N_17
REMARK    8  A    between atoms: N_17  and  C_18
REMARK    9  A    between atoms: C_18  and  C_19
REMARK   10  A    between atoms: C_19  and  O_20
REMARK   11  A    between atoms: C_25  and  N_26
REMARK   12  A    between atoms: C_27  and  C_28
REMARK                            x       y       z     vdW  Elec       q    Type
REMARK                         _______ _______ _______ _____ _____    ______ ____
ROOT
ATOM      1  C   UNL     1      -4.010  15.175  23.381  0.00  0.00    +0.000 A 
ATOM      2  C   UNL     1      -2.906  15.394  22.555  0.00  0.00    +0.000 A 
ATOM      3  C   UNL     1      -2.575  14.497  21.540  0.00  0.00    +0.000 A 
ATOM      4  C   UNL     1      -3.393  13.360  21.309  0.00  0.00    +0.000 A 
ATOM      5  C   UNL     1      -4.527  13.132  22.145  0.00  0.00    +0.000 A 
ATOM      6  C   UNL     1      -4.840  14.049  23.185  0.00  0.00    +0.000 A 
ATOM      7  C   UNL     1      -2.961  12.439  20.196  0.00  0.00    +0.000 A 
ATOM      8  C   UNL     1      -3.863  12.341  19.205  0.00  0.00    +0.000 A 
ATOM      9  C   UNL     1      -3.933  11.436  18.095  0.00  0.00    +0.000 A 
ATOM     10  C   UNL     1      -3.037  10.608  17.548  0.00  0.00    +0.000 A 
ATOM     11  C   UNL     1      -1.595  10.526  17.957  0.00  0.00    +0.000 A 
ATOM     12  O   UNL     1      -0.792   9.989  17.186  0.00  0.00    +0.000 OA
ATOM     13  C   UNL     1      -1.084  11.043  19.247  0.00  0.00    +0.000 A 
ATOM     14  C   UNL     1      -1.620  11.813  20.216  0.00  0.00    +0.000 A 
ATOM     15  C   UNL     1      -0.756  12.265  21.414  0.00  0.00    +0.000 C 
ATOM     16  C   UNL     1      -0.204  13.692  21.181  0.00  0.00    +0.000 C 
ATOM     17  C   UNL     1      -1.293  14.709  20.763  0.00  0.00    +0.000 C 
ENDROOT
BRANCH  15  18
ATOM     18  N   UNL     1       0.329  11.343  21.696  0.00  0.00    +0.000 N 
ATOM     19  C   UNL     1       0.339  10.229  22.494  0.00  0.00    +0.000 C 
ATOM     20  C   UNL     1      -0.877   9.858  23.289  0.00  0.00    +0.000 C 
ATOM     21  O   UNL     1       1.375   9.565  22.553  0.00  0.00    +0.000 OA
ATOM     22  H   UNL     1       1.224  11.475  21.210  0.00  0.00    +0.000 HD
ENDBRANCH  15  18
BRANCH   1  24
ATOM     23  C   UNL     1      -4.412  17.500  23.776  0.00  0.00    +0.000 C 
ATOM     24  O   UNL     1      -4.183  16.193  24.288  0.00  0.00    +0.000 OA
ENDBRANCH   1  24
BRANCH   5  25
ATOM     25  O   UNL     1      -5.437  12.130  21.891  0.00  0.00    +0.000 OA
ATOM     26  C   UNL     1      -6.583  12.449  21.107  0.00  0.00    +0.000 C 
ENDBRANCH   5  25
BRANCH   6  27
ATOM     27  O   UNL     1      -5.915  13.989  24.032  0.00  0.00    +0.000 OA
ATOM     28  C   UNL     1      -7.102  14.717  23.782  0.00  0.00    +0.000 C 
ENDBRANCH   6  27
BRANCH  10  29
ATOM     29  N   UNL     1      -3.445   9.707  16.555  0.00  0.00    +0.000 N 
ATOM     30  H   UNL     1      -2.876   8.859  16.540  0.00  0.00    +0.000 HD
BRANCH  29  31
ATOM     31  C   UNL     1      -3.976  10.087  15.242  0.00  0.00    +0.000 C 
BRANCH  31  32
ATOM     32  C   UNL     1      -2.928  10.030  14.124  0.00  0.00    +0.000 C 
BRANCH  32  33
ATOM     33  O   UNL     1      -3.552   9.985  12.844  0.00  0.00    +0.000 OA
ATOM     34  H   UNL     1      -3.850  10.897  12.652  0.00  0.00    +0.000 HD
ENDBRANCH  32  33
ENDBRANCH  31  32
ENDBRANCH  29  31
ENDBRANCH  10  29
TORSDOF 8
ENDMDL
MODEL 9
REMARK VINA RESULT:      -5.6      2.855      7.352
REMARK  Name = 
REMARK  12 active torsions:
REMARK  status: ('A' for Active; 'I' for Inactive)
REMARK    1  A    between atoms: C_1  and  O_2
REMARK    2  A    between atoms: O_2  and  C_3
REMARK    3  A    between atoms: C_7  and  O_8
REMARK    4  A    between atoms: O_8  and  C_9
REMARK    5  A    between atoms: C_10  and  O_11
REMARK    6  A    between atoms: O_11  and  C_12
REMARK    7  A    between atoms: C_16  and  N_17
REMARK    8  A    between atoms: N_17  and  C_18
REMARK    9  A    between atoms: C_18  and  C_19
REMARK   10  A    between atoms: C_19  and  O_20
REMARK   11  A    between atoms: C_25  and  N_26
REMARK   12  A    between atoms: C_27  and  C_28
REMARK                            x       y       z     vdW  Elec       q    Type
REMARK                         _______ _______ _______ _____ _____    ______ ____
ROOT
ATOM      1  C   UNL     1      -0.298  15.477  23.324  0.00  0.00    +0.000 A 
ATOM      2  C   UNL     1      -0.011  15.510  21.958  0.00  0.00    +0.000 A 
ATOM      3  C   UNL     1      -0.750  14.754  21.048  0.00  0.00    +0.000 A 
ATOM      4  C   UNL     1      -1.838  13.967  21.504  0.00  0.00    +0.000 A 
ATOM      5  C   UNL     1      -2.142  13.933  22.898  0.00  0.00    +0.000 A 
ATOM      6  C   UNL     1      -1.369  14.697  23.813  0.00  0.00    +0.000 A 
ATOM      7  C   UNL     1      -2.580  13.177  20.454  0.00  0.00    +0.000 A 
ATOM      8  C   UNL     1      -3.872  13.528  20.337  0.00  0.00    +0.000 A 
ATOM      9  C   UNL     1      -4.947  12.899  19.628  0.00  0.00    +0.000 A 
ATOM     10  C   UNL     1      -4.972  11.959  18.677  0.00  0.00    +0.000 A 
ATOM     11  C   UNL     1      -3.753  11.387  18.014  0.00  0.00    +0.000 A 
ATOM     12  O   UNL     1      -3.890  10.788  16.942  0.00  0.00    +0.000 OA
ATOM     13  C   UNL     1      -2.391  11.491  18.587  0.00  0.00    +0.000 A 
ATOM     14  C   UNL     1      -1.866  12.194  19.609  0.00  0.00    +0.000 A 
ATOM     15  C   UNL     1      -0.346  12.150  19.881  0.00  0.00    +0.000 C 
ATOM     16  C   UNL     1       0.358  13.372  19.242  0.00  0.00    +0.000 C 
ATOM     17  C   UNL     1      -0.312  14.720  19.599  0.00  0.00    +0.000 C 
ENDROOT
BRANCH  15  18
ATOM     18  N   UNL     1       0.266  10.917  19.421  0.00  0.00    +0.000 N 
ATOM     19  C   UNL     1       0.656   9.818  20.140  0.00  0.00    +0.000 C 
ATOM     20  C   UNL     1       0.541   9.814  21.635  0.00  0.00    +0.000 C 
ATOM     21  O   UNL     1       1.120   8.856  19.527  0.00  0.00    +0.000 OA
ATOM     22  H   UNL     1       0.397  10.781  18.412  0.00  0.00    +0.000 HD
ENDBRANCH  15  18
BRANCH   1  24
ATOM     23  C   UNL     1       0.272  17.717  23.942  0.00  0.00    +0.000 C 
ATOM     24  O   UNL     1       0.518  16.320  24.041  0.00  0.00    +0.000 OA
ENDBRANCH   1  24
BRANCH   5  25
ATOM     25  O   UNL     1      -3.264  13.303  23.390  0.00  0.00    +0.000 OA
ATOM     26  C   UNL     1      -3.152  11.932  23.765  0.00  0.00    +0.000 C 
ENDBRANCH   5  25
BRANCH   6  27
ATOM     27  O   UNL     1      -1.569  14.801  25.165  0.00  0.00    +0.000 OA
ATOM     28  C   UNL     1      -2.451  15.760  25.716  0.00  0.00    +0.000 C 
ENDBRANCH   6  27
BRANCH  10  29
ATOM     29  N   UNL     1      -6.200  11.412  18.280  0.00  0.00    +0.000 N 
ATOM     30  H   UNL     1      -6.850  12.120  17.933  0.00  0.00    +0.000 HD
BRANCH  29  31
ATOM     31  C   UNL     1      -6.859  10.270  18.921  0.00  0.00    +0.000 C 
BRANCH  31  32
ATOM     32  C   UNL     1      -7.417  10.592  20.312  0.00  0.00    +0.000 C 
BRANCH  32  33
ATOM     33  O   UNL     1      -7.437   9.430  21.135  0.00  0.00    +0.000 OA
ATOM     34  H   UNL     1      -6.893   8.758  20.674  0.00  0.00    +0.000 HD
ENDBRANCH  32  33
ENDBRANCH  31  32
ENDBRANCH  29  31
ENDBRANCH  10  29
TORSDOF 8
ENDMDL
