MODEL 1
REMARK VINA RESULT:      -8.2      0.000      0.000
REMARK  Name = 
REMARK  7 active torsions:
REMARK  status: ('A' for Active; 'I' for Inactive)
REMARK    1  A    between atoms: C_1  and  O_2
REMARK    2  A    between atoms: O_2  and  C_3
REMARK    3  A    between atoms: C_6  and  C_7
REMARK    4  A    between atoms: C_7  and  N_8
REMARK    5  A    between atoms: C_11  and  C_12
REMARK    6  A    between atoms: C_14  and  N_15
REMARK    7  A    between atoms: C_19  and  N_20
REMARK                            x       y       z     vdW  Elec       q    Type
REMARK                         _______ _______ _______ _____ _____    ______ ____
ROOT
ATOM      1  N   UNL     1       1.621   9.038  18.802  0.00  0.00    +0.000 N 
ATOM      2  N   UNL     1       2.121   9.513  17.645  0.00  0.00    +0.000 NA
ATOM      3  N   UNL     1       2.914   8.550  17.192  0.00  0.00    +0.000 NA
ATOM      4  C   UNL     1       2.879   7.538  18.120  0.00  0.00    +0.000 A 
ATOM      5  N   UNL     1       2.074   7.817  19.159  0.00  0.00    +0.000 NA
ENDROOT
BRANCH   4   6
ATOM      6  C   UNL     1       3.671   6.318  18.026  0.00  0.00    +0.000 A 
ATOM      7  C   UNL     1       3.149   5.072  18.406  0.00  0.00    +0.000 A 
ATOM      8  C   UNL     1       3.934   3.911  18.276  0.00  0.00    +0.000 A 
ATOM      9  C   UNL     1       5.239   3.976  17.768  0.00  0.00    +0.000 A 
ATOM     10  C   UNL     1       5.755   5.221  17.395  0.00  0.00    +0.000 A 
ATOM     11  C   UNL     1       4.982   6.382  17.523  0.00  0.00    +0.000 A 
BRANCH   8  12
ATOM     12  N   UNL     1       3.383   2.607  18.673  0.00  0.00    +0.000 N 
ATOM     13  O   UNL     1       2.873   2.518  19.798  0.00  0.00    +0.000 OA
ATOM     14  O   UNL     1       3.463   1.678  17.858  0.00  0.00    +0.000 OA
ENDBRANCH   8  12
BRANCH  10  15
ATOM     15  N   UNL     1       7.118   5.319  16.857  0.00  0.00    +0.000 N 
ATOM     16  O   UNL     1       7.385   6.305  16.154  0.00  0.00    +0.000 OA
ATOM     17  O   UNL     1       7.917   4.417  17.137  0.00  0.00    +0.000 OA
ENDBRANCH  10  15
ENDBRANCH   4   6
BRANCH   1  18
ATOM     18  C   UNL     1       0.911   9.886  19.742  0.00  0.00    +0.000 C 
BRANCH  18  22
ATOM     19  C   UNL     1      -2.832  11.380  18.174  0.00  0.00    +0.000 A 
ATOM     20  C   UNL     1      -2.135  10.377  17.500  0.00  0.00    +0.000 A 
ATOM     21  C   UNL     1      -0.922   9.893  17.998  0.00  0.00    +0.000 A 
ATOM     22  C   UNL     1      -0.383  10.417  19.182  0.00  0.00    +0.000 A 
ATOM     23  C   UNL     1      -1.073  11.445  19.838  0.00  0.00    +0.000 A 
ATOM     24  C   UNL     1      -2.291  11.921  19.340  0.00  0.00    +0.000 A 
BRANCH  19  26
ATOM     25  C   UNL     1      -4.307  11.165  16.338  0.00  0.00    +0.000 C 
ATOM     26  O   UNL     1      -4.001  11.776  17.586  0.00  0.00    +0.000 OA
ENDBRANCH  19  26
ENDBRANCH  18  22
ENDBRANCH   1  18
TORSDOF 6
ENDMDL
MODEL 2
REMARK VINA RESULT:      -8.2      1.244      3.453
REMARK  Name = 
REMARK  7 active torsions:
REMARK  status: ('A' for Active; 'I' for Inactive)
REMARK    1  A    between atoms: C_1  and  O_2
REMARK    2  A    between atoms: O_2  and  C_3
REMARK    3  A    between atoms: C_6  and  C_7
REMARK    4  A    between atoms: C_7  and  N_8
REMARK    5  A    between atoms: C_11  and  C_12
REMARK    6  A    between atoms: C_14  and  N_15
REMARK    7  A    between atoms: C_19  and  N_20
REMARK                            x       y       z     vdW  Elec       q    Type
REMARK                         _______ _______ _______ _____ _____    ______ ____
ROOT
ATOM      1  N   UNL     1       1.379   9.897  19.015  0.00  0.00    +0.000 N 
ATOM      2  N   UNL     1       1.078   9.185  20.119  0.00  0.00    +0.000 NA
ATOM      3  N   UNL     1       1.643   8.000  19.926  0.00  0.00    +0.000 NA
ATOM      4  C   UNL     1       2.240   8.040  18.691  0.00  0.00    +0.000 A 
ATOM      5  N   UNL     1       2.086   9.227  18.080  0.00  0.00    +0.000 NA
ENDROOT
BRANCH   4   6
ATOM      6  C   UNL     1       2.917   6.905  18.074  0.00  0.00    +0.000 A 
ATOM      7  C   UNL     1       4.129   7.059  17.384  0.00  0.00    +0.000 A 
ATOM      8  C   UNL     1       4.767   5.935  16.826  0.00  0.00    +0.000 A 
ATOM      9  C   UNL     1       4.212   4.654  16.948  0.00  0.00    +0.000 A 
ATOM     10  C   UNL     1       3.003   4.508  17.634  0.00  0.00    +0.000 A 
ATOM     11  C   UNL     1       2.358   5.620  18.192  0.00  0.00    +0.000 A 
BRANCH   8  12
ATOM     12  N   UNL     1       6.038   6.100  16.104  0.00  0.00    +0.000 N 
ATOM     13  O   UNL     1       6.111   5.636  14.958  0.00  0.00    +0.000 OA
ATOM     14  O   UNL     1       6.956   6.693  16.686  0.00  0.00    +0.000 OA
ENDBRANCH   8  12
BRANCH  10  15
ATOM     15  N   UNL     1       2.399   3.178  17.783  0.00  0.00    +0.000 N 
ATOM     16  O   UNL     1       3.158   2.197  17.752  0.00  0.00    +0.000 OA
ATOM     17  O   UNL     1       1.172   3.114  17.931  0.00  0.00    +0.000 OA
ENDBRANCH  10  15
ENDBRANCH   4   6
BRANCH   1  18
ATOM     18  C   UNL     1       0.733  11.161  18.711  0.00  0.00    +0.000 C 
BRANCH  18  22
ATOM     19  C   UNL     1      -3.482  10.746  17.841  0.00  0.00    +0.000 A 
ATOM     20  C   UNL     1      -3.034  11.753  18.698  0.00  0.00    +0.000 A 
ATOM     21  C   UNL     1      -1.674  11.890  18.987  0.00  0.00    +0.000 A 
ATOM     22  C   UNL     1      -0.738  11.007  18.427  0.00  0.00    +0.000 A 
ATOM     23  C   UNL     1      -1.198   9.981  17.592  0.00  0.00    +0.000 A 
ATOM     24  C   UNL     1      -2.560   9.852  17.299  0.00  0.00    +0.000 A 
BRANCH  19  26
ATOM     25  C   UNL     1      -5.474  11.967  17.474  0.00  0.00    +0.000 C 
ATOM     26  O   UNL     1      -4.834  10.707  17.641  0.00  0.00    +0.000 OA
ENDBRANCH  19  26
ENDBRANCH  18  22
ENDBRANCH   1  18
TORSDOF 6
ENDMDL
MODEL 3
REMARK VINA RESULT:      -8.2      0.728      1.336
REMARK  Name = 
REMARK  7 active torsions:
REMARK  status: ('A' for Active; 'I' for Inactive)
REMARK    1  A    between atoms: C_1  and  O_2
REMARK    2  A    between atoms: O_2  and  C_3
REMARK    3  A    between atoms: C_6  and  C_7
REMARK    4  A    between atoms: C_7  and  N_8
REMARK    5  A    between atoms: C_11  and  C_12
REMARK    6  A    between atoms: C_14  and  N_15
REMARK    7  A    between atoms: C_19  and  N_20
REMARK                            x       y       z     vdW  Elec       q    Type
REMARK                         _______ _______ _______ _____ _____    ______ ____
ROOT
ATOM      1  N   UNL     1       1.433   9.246  18.656  0.00  0.00    +0.000 N 
ATOM      2  N   UNL     1       2.106   9.873  17.672  0.00  0.00    +0.000 NA
ATOM      3  N   UNL     1       2.925   8.952  17.177  0.00  0.00    +0.000 NA
ATOM      4  C   UNL     1       2.727   7.809  17.911  0.00  0.00    +0.000 A 
ATOM      5  N   UNL     1       1.792   7.961  18.864  0.00  0.00    +0.000 NA
ENDROOT
BRANCH   4   6
ATOM      6  C   UNL     1       3.486   6.578  17.724  0.00  0.00    +0.000 A 
ATOM      7  C   UNL     1       2.896   5.317  17.900  0.00  0.00    +0.000 A 
ATOM      8  C   UNL     1       3.654   4.151  17.684  0.00  0.00    +0.000 A 
ATOM      9  C   UNL     1       4.997   4.224  17.291  0.00  0.00    +0.000 A 
ATOM     10  C   UNL     1       5.579   5.483  17.121  0.00  0.00    +0.000 A 
ATOM     11  C   UNL     1       4.836   6.651  17.336  0.00  0.00    +0.000 A 
BRANCH   8  12
ATOM     12  N   UNL     1       3.032   2.831  17.869  0.00  0.00    +0.000 N 
ATOM     13  O   UNL     1       1.821   2.728  17.629  0.00  0.00    +0.000 OA
ATOM     14  O   UNL     1       3.758   1.903  18.251  0.00  0.00    +0.000 OA
ENDBRANCH   8  12
BRANCH  10  15
ATOM     15  N   UNL     1       6.984   5.592  16.706  0.00  0.00    +0.000 N 
ATOM     16  O   UNL     1       7.561   4.551  16.357  0.00  0.00    +0.000 OA
ATOM     17  O   UNL     1       7.508   6.713  16.728  0.00  0.00    +0.000 OA
ENDBRANCH  10  15
ENDBRANCH   4   6
BRANCH   1  18
ATOM     18  C   UNL     1       0.623   9.970  19.620  0.00  0.00    +0.000 C 
BRANCH  18  22
ATOM     19  C   UNL     1      -3.123  11.312  17.927  0.00  0.00    +0.000 A 
ATOM     20  C   UNL     1      -2.607  11.921  19.072  0.00  0.00    +0.000 A 
ATOM     21  C   UNL     1      -1.400  11.489  19.627  0.00  0.00    +0.000 A 
ATOM     22  C   UNL     1      -0.692  10.427  19.045  0.00  0.00    +0.000 A 
ATOM     23  C   UNL     1      -1.230   9.800  17.914  0.00  0.00    +0.000 A 
ATOM     24  C   UNL     1      -2.436  10.241  17.356  0.00  0.00    +0.000 A 
BRANCH  19  26
ATOM     25  C   UNL     1      -5.482  11.144  17.939  0.00  0.00    +0.000 C 
ATOM     26  O   UNL     1      -4.313  11.816  17.482  0.00  0.00    +0.000 OA
ENDBRANCH  19  26
ENDBRANCH  18  22
ENDBRANCH   1  18
TORSDOF 6
ENDMDL
MODEL 4
REMARK VINA RESULT:      -8.1      0.841      2.941
REMARK  Name = 
REMARK  7 active torsions:
REMARK  status: ('A' for Active; 'I' for Inactive)
REMARK    1  A    between atoms: C_1  and  O_2
REMARK    2  A    between atoms: O_2  and  C_3
REMARK    3  A    between atoms: C_6  and  C_7
REMARK    4  A    between atoms: C_7  and  N_8
REMARK    5  A    between atoms: C_11  and  C_12
REMARK    6  A    between atoms: C_14  and  N_15
REMARK    7  A    between atoms: C_19  and  N_20
REMARK                            x       y       z     vdW  Elec       q    Type
REMARK                         _______ _______ _______ _____ _____    ______ ____
ROOT
ATOM      1  N   UNL     1       1.378   9.172  18.529  0.00  0.00    +0.000 N 
ATOM      2  N   UNL     1       2.181   9.771  17.629  0.00  0.00    +0.000 NA
ATOM      3  N   UNL     1       3.018   8.821  17.231  0.00  0.00    +0.000 NA
ATOM      4  C   UNL     1       2.698   7.689  17.938  0.00  0.00    +0.000 A 
ATOM      5  N   UNL     1       1.666   7.877  18.777  0.00  0.00    +0.000 NA
ENDROOT
BRANCH   4   6
ATOM      6  C   UNL     1       3.431   6.431  17.839  0.00  0.00    +0.000 A 
ATOM      7  C   UNL     1       4.827   6.404  17.695  0.00  0.00    +0.000 A 
ATOM      8  C   UNL     1       5.502   5.171  17.631  0.00  0.00    +0.000 A 
ATOM      9  C   UNL     1       4.802   3.959  17.711  0.00  0.00    +0.000 A 
ATOM     10  C   UNL     1       3.412   3.994  17.850  0.00  0.00    +0.000 A 
ATOM     11  C   UNL     1       2.729   5.216  17.913  0.00  0.00    +0.000 A 
BRANCH   8  12
ATOM     12  N   UNL     1       6.965   5.145  17.482  0.00  0.00    +0.000 N 
ATOM     13  O   UNL     1       7.608   4.425  18.257  0.00  0.00    +0.000 OA
ATOM     14  O   UNL     1       7.463   5.845  16.589  0.00  0.00    +0.000 OA
ENDBRANCH   8  12
BRANCH  10  15
ATOM     15  N   UNL     1       2.651   2.740  17.940  0.00  0.00    +0.000 N 
ATOM     16  O   UNL     1       1.414   2.823  17.980  0.00  0.00    +0.000 OA
ATOM     17  O   UNL     1       3.287   1.679  17.968  0.00  0.00    +0.000 OA
ENDBRANCH  10  15
ENDBRANCH   4   6
BRANCH   1  18
ATOM     18  C   UNL     1       0.489   9.927  19.394  0.00  0.00    +0.000 C 
BRANCH  18  22
ATOM     19  C   UNL     1      -3.212  11.042  17.454  0.00  0.00    +0.000 A 
ATOM     20  C   UNL     1      -2.379  10.078  16.884  0.00  0.00    +0.000 A 
ATOM     21  C   UNL     1      -1.179   9.716  17.503  0.00  0.00    +0.000 A 
ATOM     22  C   UNL     1      -0.790  10.327  18.704  0.00  0.00    +0.000 A 
ATOM     23  C   UNL     1      -1.616  11.315  19.255  0.00  0.00    +0.000 A 
ATOM     24  C   UNL     1      -2.820  11.668  18.637  0.00  0.00    +0.000 A 
BRANCH  19  26
ATOM     25  C   UNL     1      -5.313  12.127  17.422  0.00  0.00    +0.000 C 
ATOM     26  O   UNL     1      -4.353  11.316  16.754  0.00  0.00    +0.000 OA
ENDBRANCH  19  26
ENDBRANCH  18  22
ENDBRANCH   1  18
TORSDOF 6
ENDMDL
MODEL 5
REMARK VINA RESULT:      -8.1      0.623      3.120
REMARK  Name = 
REMARK  7 active torsions:
REMARK  status: ('A' for Active; 'I' for Inactive)
REMARK    1  A    between atoms: C_1  and  O_2
REMARK    2  A    between atoms: O_2  and  C_3
REMARK    3  A    between atoms: C_6  and  C_7
REMARK    4  A    between atoms: C_7  and  N_8
REMARK    5  A    between atoms: C_11  and  C_12
REMARK    6  A    between atoms: C_14  and  N_15
REMARK    7  A    between atoms: C_19  and  N_20
REMARK                            x       y       z     vdW  Elec       q    Type
REMARK                         _______ _______ _______ _____ _____    ______ ____
ROOT
ATOM      1  N   UNL     1       1.441   9.225  18.773  0.00  0.00    +0.000 N 
ATOM      2  N   UNL     1       1.987   9.826  17.698  0.00  0.00    +0.000 NA
ATOM      3  N   UNL     1       2.802   8.918  17.176  0.00  0.00    +0.000 NA
ATOM      4  C   UNL     1       2.734   7.811  17.984  0.00  0.00    +0.000 A 
ATOM      5  N   UNL     1       1.885   7.973  19.013  0.00  0.00    +0.000 NA
ENDROOT
BRANCH   4   6
ATOM      6  C   UNL     1       3.537   6.608  17.790  0.00  0.00    +0.000 A 
ATOM      7  C   UNL     1       4.878   6.678  17.383  0.00  0.00    +0.000 A 
ATOM      8  C   UNL     1       5.629   5.497  17.233  0.00  0.00    +0.000 A 
ATOM      9  C   UNL     1       5.059   4.242  17.486  0.00  0.00    +0.000 A 
ATOM     10  C   UNL     1       3.721   4.180  17.888  0.00  0.00    +0.000 A 
ATOM     11  C   UNL     1       2.964   5.349  18.038  0.00  0.00    +0.000 A 
BRANCH   8  12
ATOM     12  N   UNL     1       7.034   5.574  16.807  0.00  0.00    +0.000 N 
ATOM     13  O   UNL     1       7.658   4.510  16.692  0.00  0.00    +0.000 OA
ATOM     14  O   UNL     1       7.507   6.697  16.590  0.00  0.00    +0.000 OA
ENDBRANCH   8  12
BRANCH  10  15
ATOM     15  N   UNL     1       3.097   2.879  18.164  0.00  0.00    +0.000 N 
ATOM     16  O   UNL     1       2.345   2.409  17.297  0.00  0.00    +0.000 OA
ATOM     17  O   UNL     1       3.359   2.330  19.242  0.00  0.00    +0.000 OA
ENDBRANCH  10  15
ENDBRANCH   4   6
BRANCH   1  18
ATOM     18  C   UNL     1       0.688   9.963  19.771  0.00  0.00    +0.000 C 
BRANCH  18  22
ATOM     19  C   UNL     1      -3.087  11.402  18.229  0.00  0.00    +0.000 A 
ATOM     20  C   UNL     1      -2.478  12.040  19.310  0.00  0.00    +0.000 A 
ATOM     21  C   UNL     1      -1.260  11.577  19.817  0.00  0.00    +0.000 A 
ATOM     22  C   UNL     1      -0.638  10.456  19.250  0.00  0.00    +0.000 A 
ATOM     23  C   UNL     1      -1.270   9.802  18.184  0.00  0.00    +0.000 A 
ATOM     24  C   UNL     1      -2.485  10.273  17.675  0.00  0.00    +0.000 A 
BRANCH  19  26
ATOM     25  C   UNL     1      -5.418  11.098  17.959  0.00  0.00    +0.000 C 
ATOM     26  O   UNL     1      -4.278  11.941  17.828  0.00  0.00    +0.000 OA
ENDBRANCH  19  26
ENDBRANCH  18  22
ENDBRANCH   1  18
TORSDOF 6
ENDMDL
MODEL 6
REMARK VINA RESULT:      -8.1      1.192      3.259
REMARK  Name = 
REMARK  7 active torsions:
REMARK  status: ('A' for Active; 'I' for Inactive)
REMARK    1  A    between atoms: C_1  and  O_2
REMARK    2  A    between atoms: O_2  and  C_3
REMARK    3  A    between atoms: C_6  and  C_7
REMARK    4  A    between atoms: C_7  and  N_8
REMARK    5  A    between atoms: C_11  and  C_12
REMARK    6  A    between atoms: C_14  and  N_15
REMARK    7  A    between atoms: C_19  and  N_20
REMARK                            x       y       z     vdW  Elec       q    Type
REMARK                         _______ _______ _______ _____ _____    ______ ____
ROOT
ATOM      1  N   UNL     1       1.521   9.764  19.021  0.00  0.00    +0.000 N 
ATOM      2  N   UNL     1       1.185   9.093  20.140  0.00  0.00    +0.000 NA
ATOM      3  N   UNL     1       1.688   7.876  19.972  0.00  0.00    +0.000 NA
ATOM      4  C   UNL     1       2.284   7.859  18.736  0.00  0.00    +0.000 A 
ATOM      5  N   UNL     1       2.191   9.040  18.101  0.00  0.00    +0.000 NA
ENDROOT
BRANCH   4   6
ATOM      6  C   UNL     1       2.901   6.678  18.144  0.00  0.00    +0.000 A 
ATOM      7  C   UNL     1       4.120   6.754  17.452  0.00  0.00    +0.000 A 
ATOM      8  C   UNL     1       4.699   5.588  16.918  0.00  0.00    +0.000 A 
ATOM      9  C   UNL     1       4.077   4.340  17.065  0.00  0.00    +0.000 A 
ATOM     10  C   UNL     1       2.862   4.272  17.752  0.00  0.00    +0.000 A 
ATOM     11  C   UNL     1       2.276   5.427  18.286  0.00  0.00    +0.000 A 
BRANCH   8  12
ATOM     12  N   UNL     1       5.977   5.671  16.195  0.00  0.00    +0.000 N 
ATOM     13  O   UNL     1       6.994   5.273  16.779  0.00  0.00    +0.000 OA
ATOM     14  O   UNL     1       5.957   6.134  15.046  0.00  0.00    +0.000 OA
ENDBRANCH   8  12
BRANCH  10  15
ATOM     15  N   UNL     1       2.188   2.978  17.925  0.00  0.00    +0.000 N 
ATOM     16  O   UNL     1       2.900   1.964  17.975  0.00  0.00    +0.000 OA
ATOM     17  O   UNL     1       0.954   2.977  18.013  0.00  0.00    +0.000 OA
ENDBRANCH  10  15
ENDBRANCH   4   6
BRANCH   1  18
ATOM     18  C   UNL     1       0.941  11.054  18.692  0.00  0.00    +0.000 C 
BRANCH  18  22
ATOM     19  C   UNL     1      -3.328  10.807  18.052  0.00  0.00    +0.000 A 
ATOM     20  C   UNL     1      -2.466   9.922  17.404  0.00  0.00    +0.000 A 
ATOM     21  C   UNL     1      -1.084   9.999  17.602  0.00  0.00    +0.000 A 
ATOM     22  C   UNL     1      -0.544  10.978  18.450  0.00  0.00    +0.000 A 
ATOM     23  C   UNL     1      -1.414  11.882  19.074  0.00  0.00    +0.000 A 
ATOM     24  C   UNL     1      -2.796  11.795  18.879  0.00  0.00    +0.000 A 
BRANCH  19  26
ATOM     25  C   UNL     1      -5.324  11.768  17.222  0.00  0.00    +0.000 C 
ATOM     26  O   UNL     1      -4.656  10.638  17.773  0.00  0.00    +0.000 OA
ENDBRANCH  19  26
ENDBRANCH  18  22
ENDBRANCH   1  18
TORSDOF 6
ENDMDL
MODEL 7
REMARK VINA RESULT:      -8.1      1.485      1.728
REMARK  Name = 
REMARK  7 active torsions:
REMARK  status: ('A' for Active; 'I' for Inactive)
REMARK    1  A    between atoms: C_1  and  O_2
REMARK    2  A    between atoms: O_2  and  C_3
REMARK    3  A    between atoms: C_6  and  C_7
REMARK    4  A    between atoms: C_7  and  N_8
REMARK    5  A    between atoms: C_11  and  C_12
REMARK    6  A    between atoms: C_14  and  N_15
REMARK    7  A    between atoms: C_19  and  N_20
REMARK                            x       y       z     vdW  Elec       q    Type
REMARK                         _______ _______ _______ _____ _____    ______ ____
ROOT
ATOM      1  N   UNL     1       1.326   9.484  18.829  0.00  0.00    +0.000 N 
ATOM      2  N   UNL     1       1.964   9.545  17.644  0.00  0.00    +0.000 NA
ATOM      3  N   UNL     1       2.607   8.388  17.542  0.00  0.00    +0.000 NA
ATOM      4  C   UNL     1       2.349   7.687  18.693  0.00  0.00    +0.000 A 
ATOM      5  N   UNL     1       1.545   8.356  19.537  0.00  0.00    +0.000 NA
ENDROOT
BRANCH   4   6
ATOM      6  C   UNL     1       2.929   6.385  19.003  0.00  0.00    +0.000 A 
ATOM      7  C   UNL     1       2.313   5.503  19.904  0.00  0.00    +0.000 A 
ATOM      8  C   UNL     1       2.887   4.243  20.157  0.00  0.00    +0.000 A 
ATOM      9  C   UNL     1       4.072   3.848  19.519  0.00  0.00    +0.000 A 
ATOM     10  C   UNL     1       4.681   4.733  18.626  0.00  0.00    +0.000 A 
ATOM     11  C   UNL     1       4.120   5.990  18.369  0.00  0.00    +0.000 A 
BRANCH   8  12
ATOM     12  N   UNL     1       2.239   3.320  21.101  0.00  0.00    +0.000 N 
ATOM     13  O   UNL     1       1.001   3.284  21.110  0.00  0.00    +0.000 OA
ATOM     14  O   UNL     1       2.971   2.636  21.828  0.00  0.00    +0.000 OA
ENDBRANCH   8  12
BRANCH  10  15
ATOM     15  N   UNL     1       5.921   4.346  17.940  0.00  0.00    +0.000 N 
ATOM     16  O   UNL     1       6.969   4.353  18.604  0.00  0.00    +0.000 OA
ATOM     17  O   UNL     1       5.847   4.036  16.745  0.00  0.00    +0.000 OA
ENDBRANCH  10  15
ENDBRANCH   4   6
BRANCH   1  18
ATOM     18  C   UNL     1       0.716  10.652  19.438  0.00  0.00    +0.000 C 
BRANCH  18  22
ATOM     19  C   UNL     1      -3.338  11.315  18.087  0.00  0.00    +0.000 A 
ATOM     20  C   UNL     1      -2.533  10.361  17.463  0.00  0.00    +0.000 A 
ATOM     21  C   UNL     1      -1.221  10.145  17.891  0.00  0.00    +0.000 A 
ATOM     22  C   UNL     1      -0.689  10.894  18.951  0.00  0.00    +0.000 A 
ATOM     23  C   UNL     1      -1.492  11.871  19.553  0.00  0.00    +0.000 A 
ATOM     24  C   UNL     1      -2.809  12.078  19.127  0.00  0.00    +0.000 A 
BRANCH  19  26
ATOM     25  C   UNL     1      -5.645  10.863  18.350  0.00  0.00    +0.000 C 
ATOM     26  O   UNL     1      -4.599  11.441  17.575  0.00  0.00    +0.000 OA
ENDBRANCH  19  26
ENDBRANCH  18  22
ENDBRANCH   1  18
TORSDOF 6
ENDMDL
MODEL 8
REMARK VINA RESULT:      -8.1      1.525      3.395
REMARK  Name = 
REMARK  7 active torsions:
REMARK  status: ('A' for Active; 'I' for Inactive)
REMARK    1  A    between atoms: C_1  and  O_2
REMARK    2  A    between atoms: O_2  and  C_3
REMARK    3  A    between atoms: C_6  and  C_7
REMARK    4  A    between atoms: C_7  and  N_8
REMARK    5  A    between atoms: C_11  and  C_12
REMARK    6  A    between atoms: C_14  and  N_15
REMARK    7  A    between atoms: C_19  and  N_20
REMARK                            x       y       z     vdW  Elec       q    Type
REMARK                         _______ _______ _______ _____ _____    ______ ____
ROOT
ATOM      1  N   UNL     1       1.247   9.522  18.652  0.00  0.00    +0.000 N 
ATOM      2  N   UNL     1       1.972   9.636  17.522  0.00  0.00    +0.000 NA
ATOM      3  N   UNL     1       2.650   8.498  17.435  0.00  0.00    +0.000 NA
ATOM      4  C   UNL     1       2.324   7.755  18.542  0.00  0.00    +0.000 A 
ATOM      5  N   UNL     1       1.441   8.378  19.341  0.00  0.00    +0.000 NA
ENDROOT
BRANCH   4   6
ATOM      6  C   UNL     1       2.911   6.458  18.856  0.00  0.00    +0.000 A 
ATOM      7  C   UNL     1       4.151   6.065  18.327  0.00  0.00    +0.000 A 
ATOM      8  C   UNL     1       4.699   4.816  18.675  0.00  0.00    +0.000 A 
ATOM      9  C   UNL     1       4.026   3.950  19.549  0.00  0.00    +0.000 A 
ATOM     10  C   UNL     1       2.791   4.347  20.069  0.00  0.00    +0.000 A 
ATOM     11  C   UNL     1       2.235   5.586  19.727  0.00  0.00    +0.000 A 
BRANCH   8  12
ATOM     12  N   UNL     1       5.998   4.408  18.120  0.00  0.00    +0.000 N 
ATOM     13  O   UNL     1       6.022   4.012  16.947  0.00  0.00    +0.000 OA
ATOM     14  O   UNL     1       6.988   4.487  18.860  0.00  0.00    +0.000 OA
ENDBRANCH   8  12
BRANCH  10  15
ATOM     15  N   UNL     1       2.065   3.462  20.990  0.00  0.00    +0.000 N 
ATOM     16  O   UNL     1       0.911   3.132  20.676  0.00  0.00    +0.000 OA
ATOM     17  O   UNL     1       2.645   3.099  22.020  0.00  0.00    +0.000 OA
ENDBRANCH  10  15
ENDBRANCH   4   6
BRANCH   1  18
ATOM     18  C   UNL     1       0.563  10.656  19.248  0.00  0.00    +0.000 C 
BRANCH  18  22
ATOM     19  C   UNL     1      -3.500  11.078  17.830  0.00  0.00    +0.000 A 
ATOM     20  C   UNL     1      -3.049  11.835  18.912  0.00  0.00    +0.000 A 
ATOM     21  C   UNL     1      -1.738  11.700  19.378  0.00  0.00    +0.000 A 
ATOM     22  C   UNL     1      -0.860  10.792  18.770  0.00  0.00    +0.000 A 
ATOM     23  C   UNL     1      -1.329  10.014  17.704  0.00  0.00    +0.000 A 
ATOM     24  C   UNL     1      -2.639  10.158  17.235  0.00  0.00    +0.000 A 
BRANCH  19  26
ATOM     25  C   UNL     1      -5.784  10.882  18.416  0.00  0.00    +0.000 C 
ATOM     26  O   UNL     1      -4.802  11.292  17.470  0.00  0.00    +0.000 OA
ENDBRANCH  19  26
ENDBRANCH  18  22
ENDBRANCH   1  18
TORSDOF 6
ENDMDL
MODEL 9
REMARK VINA RESULT:      -8.0      1.411      1.830
REMARK  Name = 
REMARK  7 active torsions:
REMARK  status: ('A' for Active; 'I' for Inactive)
REMARK    1  A    between atoms: C_1  and  O_2
REMARK    2  A    between atoms: O_2  and  C_3
REMARK    3  A    between atoms: C_6  and  C_7
REMARK    4  A    between atoms: C_7  and  N_8
REMARK    5  A    between atoms: C_11  and  C_12
REMARK    6  A    between atoms: C_14  and  N_15
REMARK    7  A    between atoms: C_19  and  N_20
REMARK                            x       y       z     vdW  Elec       q    Type
REMARK                         _______ _______ _______ _____ _____    ______ ____
ROOT
ATOM      1  N   UNL     1       1.264   9.393  18.672  0.00  0.00    +0.000 N 
ATOM      2  N   UNL     1       2.023   9.530  17.567  0.00  0.00    +0.000 NA
ATOM      3  N   UNL     1       2.726   8.407  17.493  0.00  0.00    +0.000 NA
ATOM      4  C   UNL     1       2.378   7.648  18.583  0.00  0.00    +0.000 A 
ATOM      5  N   UNL     1       1.458   8.247  19.358  0.00  0.00    +0.000 NA
ENDROOT
BRANCH   4   6
ATOM      6  C   UNL     1       2.980   6.360  18.906  0.00  0.00    +0.000 A 
ATOM      7  C   UNL     1       2.327   5.429  19.729  0.00  0.00    +0.000 A 
ATOM      8  C   UNL     1       2.927   4.185  19.996  0.00  0.00    +0.000 A 
ATOM      9  C   UNL     1       4.175   3.852  19.450  0.00  0.00    +0.000 A 
ATOM     10  C   UNL     1       4.821   4.785  18.634  0.00  0.00    +0.000 A 
ATOM     11  C   UNL     1       4.234   6.028  18.364  0.00  0.00    +0.000 A 
BRANCH   8  12
ATOM     12  N   UNL     1       2.240   3.212  20.858  0.00  0.00    +0.000 N 
ATOM     13  O   UNL     1       2.636   3.099  22.026  0.00  0.00    +0.000 OA
ATOM     14  O   UNL     1       1.307   2.565  20.362  0.00  0.00    +0.000 OA
ENDBRANCH   8  12
BRANCH  10  15
ATOM     15  N   UNL     1       6.128   4.464  18.044  0.00  0.00    +0.000 N 
ATOM     16  O   UNL     1       6.157   4.178  16.838  0.00  0.00    +0.000 OA
ATOM     17  O   UNL     1       7.119   4.500  18.784  0.00  0.00    +0.000 OA
ENDBRANCH  10  15
ENDBRANCH   4   6
BRANCH   1  18
ATOM     18  C   UNL     1       0.539  10.509  19.254  0.00  0.00    +0.000 C 
BRANCH  18  22
ATOM     19  C   UNL     1      -3.376  11.040  17.496  0.00  0.00    +0.000 A 
ATOM     20  C   UNL     1      -2.981  11.816  18.586  0.00  0.00    +0.000 A 
ATOM     21  C   UNL     1      -1.719  11.647  19.163  0.00  0.00    +0.000 A 
ATOM     22  C   UNL     1      -0.834  10.683  18.658  0.00  0.00    +0.000 A 
ATOM     23  C   UNL     1      -1.248   9.887  17.582  0.00  0.00    +0.000 A 
ATOM     24  C   UNL     1      -2.509  10.066  17.003  0.00  0.00    +0.000 A 
BRANCH  19  26
ATOM     25  C   UNL     1      -5.526  11.921  17.938  0.00  0.00    +0.000 C 
ATOM     26  O   UNL     1      -4.634  11.292  17.024  0.00  0.00    +0.000 OA
ENDBRANCH  19  26
ENDBRANCH  18  22
ENDBRANCH   1  18
TORSDOF 6
ENDMDL
