MODEL 1
REMARK VINA RESULT:      -8.9      0.000      0.000
REMARK  Name = 
REMARK  6 active torsions:
REMARK  status: ('A' for Active; 'I' for Inactive)
REMARK    1  A    between atoms: C_1  and  C_2
REMARK    2  A    between atoms: C_2  and  N_3
REMARK    3  A    between atoms: C_2  and  C_12
REMARK    4  A    between atoms: C_4  and  C_6
REMARK    5  A    between atoms: C_15  and  N_16
REMARK    6  A    between atoms: C_22  and  C_23
REMARK                            x       y       z     vdW  Elec       q    Type
REMARK                         _______ _______ _______ _____ _____    ______ ____
ROOT
ATOM      1  C   UNL     1       4.237   6.271  18.343  0.00  0.00    +0.000 A 
ATOM      2  C   UNL     1       4.373   7.211  17.308  0.00  0.00    +0.000 A 
ATOM      3  C   UNL     1       3.424   8.227  17.104  0.00  0.00    +0.000 A 
ATOM      4  C   UNL     1       2.318   8.362  17.939  0.00  0.00    +0.000 A 
ATOM      5  C   UNL     1       2.213   7.458  19.014  0.00  0.00    +0.000 A 
ATOM      6  C   UNL     1       3.155   6.431  19.217  0.00  0.00    +0.000 A 
ENDROOT
BRANCH   4   7
ATOM      7  N   UNL     1       1.287   9.282  17.710  0.00  0.00    +0.000 N 
ATOM      8  C   UNL     1       0.413  10.006  18.526  0.00  0.00    +0.000 A 
ATOM      9  N   UNL     1      -0.608  10.563  17.856  0.00  0.00    +0.000 NA
ATOM     10  C   UNL     1      -1.493  11.282  18.568  0.00  0.00    +0.000 A 
ATOM     11  C   UNL     1      -1.400  11.503  19.928  0.00  0.00    +0.000 A 
ATOM     12  C   UNL     1      -2.349  12.265  20.652  0.00  0.00    +0.000 A 
ATOM     13  C   UNL     1      -2.201  12.537  22.022  0.00  0.00    +0.000 A 
ATOM     14  C   UNL     1      -1.064  11.988  22.632  0.00  0.00    +0.000 A 
ATOM     15  C   UNL     1      -0.138  11.206  21.903  0.00  0.00    +0.000 A 
ATOM     16  C   UNL     1      -0.286  10.933  20.539  0.00  0.00    +0.000 A 
ATOM     17  N   UNL     1       0.602  10.180  19.850  0.00  0.00    +0.000 NA
ATOM     18  H   UNL     1       0.990   9.389  16.750  0.00  0.00    +0.000 HD
BRANCH  13  19
ATOM     19  C   UNL     1      -3.185  13.388  22.750  0.00  0.00    +0.000 A 
ATOM     20  C   UNL     1      -2.805  14.397  23.645  0.00  0.00    +0.000 A 
ATOM     21  C   UNL     1      -3.786  15.148  24.289  0.00  0.00    +0.000 A 
ATOM     22  N   UNL     1      -5.113  14.969  24.120  0.00  0.00    +0.000 NA
ATOM     23  C   UNL     1      -5.472  14.004  23.264  0.00  0.00    +0.000 A 
ATOM     24  C   UNL     1      -4.569  13.207  22.570  0.00  0.00    +0.000 A 
ENDBRANCH  13  19
ENDBRANCH   4   7
BRANCH   1  26
ATOM     25  C   UNL     1       6.527   5.449  19.129  0.00  0.00    +0.000 C 
ATOM     26  C   UNL     1       5.211   5.100  18.432  0.00  0.00    +0.000 C 
BRANCH  26  27
ATOM     27  N   UNL     1       4.582   3.955  19.082  0.00  0.00    +0.000 N 
ATOM     28  C   UNL     1       3.775   3.063  18.394  0.00  0.00    +0.000 C 
ATOM     29  O   UNL     1       3.502   3.204  17.206  0.00  0.00    +0.000 OA
ATOM     30  H   UNL     1       4.823   3.756  20.041  0.00  0.00    +0.000 HD
BRANCH  28  31
ATOM     31  C   UNL     1       3.212   1.911  19.273  0.00  0.00    +0.000 C 
ATOM     32  C   UNL     1       3.343   2.170  20.781  0.00  0.00    +0.000 C 
ATOM     33  C   UNL     1       2.370   3.231  21.289  0.00  0.00    +0.000 C 
ATOM     34  C   UNL     1       0.947   2.942  20.832  0.00  0.00    +0.000 C 
ATOM     35  C   UNL     1       0.865   2.616  19.342  0.00  0.00    +0.000 C 
ATOM     36  N   UNL     1       1.810   1.579  18.930  0.00  0.00    +0.000 NA
ATOM     37  H   UNL     1       1.716   1.409  17.933  0.00  0.00    +0.000 HD
ENDBRANCH  28  31
ENDBRANCH  26  27
ENDBRANCH   1  26
TORSDOF 5
ENDMDL
MODEL 2
REMARK VINA RESULT:      -8.8      1.813      3.593
REMARK  Name = 
REMARK  6 active torsions:
REMARK  status: ('A' for Active; 'I' for Inactive)
REMARK    1  A    between atoms: C_1  and  C_2
REMARK    2  A    between atoms: C_2  and  N_3
REMARK    3  A    between atoms: C_2  and  C_12
REMARK    4  A    between atoms: C_4  and  C_6
REMARK    5  A    between atoms: C_15  and  N_16
REMARK    6  A    between atoms: C_22  and  C_23
REMARK                            x       y       z     vdW  Elec       q    Type
REMARK                         _______ _______ _______ _____ _____    ______ ____
ROOT
ATOM      1  C   UNL     1       2.326   6.809  19.446  0.00  0.00    +0.000 A 
ATOM      2  C   UNL     1       1.713   7.429  20.547  0.00  0.00    +0.000 A 
ATOM      3  C   UNL     1       1.219   8.742  20.475  0.00  0.00    +0.000 A 
ATOM      4  C   UNL     1       1.292   9.477  19.295  0.00  0.00    +0.000 A 
ATOM      5  C   UNL     1       1.851   8.836  18.173  0.00  0.00    +0.000 A 
ATOM      6  C   UNL     1       2.358   7.524  18.242  0.00  0.00    +0.000 A 
ENDROOT
BRANCH   4   7
ATOM      7  N   UNL     1       0.921  10.825  19.203  0.00  0.00    +0.000 N 
ATOM      8  C   UNL     1       0.007  11.644  19.874  0.00  0.00    +0.000 A 
ATOM      9  N   UNL     1      -0.213  12.817  19.260  0.00  0.00    +0.000 NA
ATOM     10  C   UNL     1      -1.076  13.666  19.842  0.00  0.00    +0.000 A 
ATOM     11  C   UNL     1      -1.723  13.418  21.037  0.00  0.00    +0.000 A 
ATOM     12  C   UNL     1      -2.629  14.332  21.628  0.00  0.00    +0.000 A 
ATOM     13  C   UNL     1      -3.224  14.093  22.877  0.00  0.00    +0.000 A 
ATOM     14  C   UNL     1      -2.880  12.882  23.494  0.00  0.00    +0.000 A 
ATOM     15  C   UNL     1      -1.994  11.965  22.880  0.00  0.00    +0.000 A 
ATOM     16  C   UNL     1      -1.403  12.201  21.635  0.00  0.00    +0.000 A 
ATOM     17  N   UNL     1      -0.560  11.317  21.053  0.00  0.00    +0.000 NA
ATOM     18  H   UNL     1       1.282  11.334  18.408  0.00  0.00    +0.000 HD
BRANCH  13  19
ATOM     19  C   UNL     1      -4.132  15.096  23.503  0.00  0.00    +0.000 A 
ATOM     20  C   UNL     1      -3.696  16.034  24.448  0.00  0.00    +0.000 A 
ATOM     21  C   UNL     1      -4.607  16.938  24.990  0.00  0.00    +0.000 A 
ATOM     22  N   UNL     1      -5.918  16.976  24.674  0.00  0.00    +0.000 NA
ATOM     23  C   UNL     1      -6.332  16.078  23.770  0.00  0.00    +0.000 A 
ATOM     24  C   UNL     1      -5.498  15.142  23.168  0.00  0.00    +0.000 A 
ENDBRANCH  13  19
ENDBRANCH   4   7
BRANCH   1  26
ATOM     25  C   UNL     1       1.984   4.279  19.590  0.00  0.00    +0.000 C 
ATOM     26  C   UNL     1       2.979   5.440  19.618  0.00  0.00    +0.000 C 
BRANCH  26  27
ATOM     27  N   UNL     1       4.021   5.237  18.616  0.00  0.00    +0.000 N 
ATOM     28  C   UNL     1       5.027   4.296  18.773  0.00  0.00    +0.000 C 
ATOM     29  O   UNL     1       5.129   3.604  19.782  0.00  0.00    +0.000 OA
ATOM     30  H   UNL     1       3.949   5.734  17.741  0.00  0.00    +0.000 HD
BRANCH  28  31
ATOM     31  C   UNL     1       6.030   4.238  17.587  0.00  0.00    +0.000 C 
ATOM     32  C   UNL     1       5.723   5.250  16.474  0.00  0.00    +0.000 C 
ATOM     33  C   UNL     1       6.049   6.687  16.871  0.00  0.00    +0.000 C 
ATOM     34  C   UNL     1       7.457   6.800  17.439  0.00  0.00    +0.000 C 
ATOM     35  C   UNL     1       7.752   5.731  18.489  0.00  0.00    +0.000 C 
ATOM     36  N   UNL     1       7.434   4.378  18.034  0.00  0.00    +0.000 NA
ATOM     37  H   UNL     1       7.644   3.713  18.772  0.00  0.00    +0.000 HD
ENDBRANCH  28  31
ENDBRANCH  26  27
ENDBRANCH   1  26
TORSDOF 5
ENDMDL
MODEL 3
REMARK VINA RESULT:      -8.8      2.845      4.654
REMARK  Name = 
REMARK  6 active torsions:
REMARK  status: ('A' for Active; 'I' for Inactive)
REMARK    1  A    between atoms: C_1  and  C_2
REMARK    2  A    between atoms: C_2  and  N_3
REMARK    3  A    between atoms: C_2  and  C_12
REMARK    4  A    between atoms: C_4  and  C_6
REMARK    5  A    between atoms: C_15  and  N_16
REMARK    6  A    between atoms: C_22  and  C_23
REMARK                            x       y       z     vdW  Elec       q    Type
REMARK                         _______ _______ _______ _____ _____    ______ ____
ROOT
ATOM      1  C   UNL     1       2.642   4.873  18.845  0.00  0.00    +0.000 A 
ATOM      2  C   UNL     1       1.860   4.657  19.991  0.00  0.00    +0.000 A 
ATOM      3  C   UNL     1       1.384   5.723  20.773  0.00  0.00    +0.000 A 
ATOM      4  C   UNL     1       1.649   7.046  20.428  0.00  0.00    +0.000 A 
ATOM      5  C   UNL     1       2.381   7.266  19.246  0.00  0.00    +0.000 A 
ATOM      6  C   UNL     1       2.869   6.201  18.464  0.00  0.00    +0.000 A 
ENDROOT
BRANCH   4   7
ATOM      7  N   UNL     1       1.299   8.137  21.234  0.00  0.00    +0.000 N 
ATOM      8  C   UNL     1       0.968   9.474  20.993  0.00  0.00    +0.000 A 
ATOM      9  N   UNL     1       0.974  10.236  22.098  0.00  0.00    +0.000 NA
ATOM     10  C   UNL     1       0.662  11.535  21.954  0.00  0.00    +0.000 A 
ATOM     11  C   UNL     1       0.311  12.121  20.753  0.00  0.00    +0.000 A 
ATOM     12  C   UNL     1      -0.013  13.495  20.631  0.00  0.00    +0.000 A 
ATOM     13  C   UNL     1      -0.433  14.059  19.416  0.00  0.00    +0.000 A 
ATOM     14  C   UNL     1      -0.493  13.179  18.325  0.00  0.00    +0.000 A 
ATOM     15  C   UNL     1      -0.140  11.815  18.455  0.00  0.00    +0.000 A 
ATOM     16  C   UNL     1       0.281  11.253  19.665  0.00  0.00    +0.000 A 
ATOM     17  N   UNL     1       0.621   9.949  19.779  0.00  0.00    +0.000 NA
ATOM     18  H   UNL     1       1.412   8.011  22.230  0.00  0.00    +0.000 HD
BRANCH  13  19
ATOM     19  C   UNL     1      -0.821  15.495  19.326  0.00  0.00    +0.000 A 
ATOM     20  C   UNL     1      -0.313  16.362  18.349  0.00  0.00    +0.000 A 
ATOM     21  C   UNL     1      -0.722  17.694  18.334  0.00  0.00    +0.000 A 
ATOM     22  N   UNL     1      -1.589  18.232  19.216  0.00  0.00    +0.000 NA
ATOM     23  C   UNL     1      -2.072  17.401  20.149  0.00  0.00    +0.000 A 
ATOM     24  C   UNL     1      -1.730  16.057  20.242  0.00  0.00    +0.000 A 
ENDBRANCH  13  19
ENDBRANCH   4   7
BRANCH   1  26
ATOM     25  C   UNL     1       2.329   3.054  17.076  0.00  0.00    +0.000 C 
ATOM     26  C   UNL     1       3.257   3.682  18.116  0.00  0.00    +0.000 C 
BRANCH  26  27
ATOM     27  N   UNL     1       4.527   4.055  17.501  0.00  0.00    +0.000 N 
ATOM     28  C   UNL     1       5.717   4.075  18.211  0.00  0.00    +0.000 C 
ATOM     29  O   UNL     1       5.772   3.823  19.411  0.00  0.00    +0.000 OA
ATOM     30  H   UNL     1       4.550   4.209  16.505  0.00  0.00    +0.000 HD
BRANCH  28  31
ATOM     31  C   UNL     1       6.952   4.493  17.365  0.00  0.00    +0.000 C 
ATOM     32  C   UNL     1       6.660   5.626  16.371  0.00  0.00    +0.000 C 
ATOM     33  C   UNL     1       6.482   6.981  17.051  0.00  0.00    +0.000 C 
ATOM     34  C   UNL     1       7.630   7.277  18.007  0.00  0.00    +0.000 C 
ATOM     35  C   UNL     1       7.942   6.100  18.930  0.00  0.00    +0.000 C 
ATOM     36  N   UNL     1       8.118   4.840  18.210  0.00  0.00    +0.000 NA
ATOM     37  H   UNL     1       8.316   4.095  18.872  0.00  0.00    +0.000 HD
ENDBRANCH  28  31
ENDBRANCH  26  27
ENDBRANCH   1  26
TORSDOF 5
ENDMDL
MODEL 4
REMARK VINA RESULT:      -8.6      1.713      3.299
REMARK  Name = 
REMARK  6 active torsions:
REMARK  status: ('A' for Active; 'I' for Inactive)
REMARK    1  A    between atoms: C_1  and  C_2
REMARK    2  A    between atoms: C_2  and  N_3
REMARK    3  A    between atoms: C_2  and  C_12
REMARK    4  A    between atoms: C_4  and  C_6
REMARK    5  A    between atoms: C_15  and  N_16
REMARK    6  A    between atoms: C_22  and  C_23
REMARK                            x       y       z     vdW  Elec       q    Type
REMARK                         _______ _______ _______ _____ _____    ______ ____
ROOT
ATOM      1  C   UNL     1       2.423   6.424  19.489  0.00  0.00    +0.000 A 
ATOM      2  C   UNL     1       2.633   7.078  18.264  0.00  0.00    +0.000 A 
ATOM      3  C   UNL     1       2.192   8.394  18.044  0.00  0.00    +0.000 A 
ATOM      4  C   UNL     1       1.547   9.117  19.044  0.00  0.00    +0.000 A 
ATOM      5  C   UNL     1       1.390   8.484  20.292  0.00  0.00    +0.000 A 
ATOM      6  C   UNL     1       1.821   7.162  20.516  0.00  0.00    +0.000 A 
ENDROOT
BRANCH   4   7
ATOM      7  N   UNL     1       0.987  10.384  18.840  0.00  0.00    +0.000 N 
ATOM      8  C   UNL     1       0.055  11.172  19.522  0.00  0.00    +0.000 A 
ATOM      9  N   UNL     1      -0.395  12.214  18.806  0.00  0.00    +0.000 NA
ATOM     10  C   UNL     1      -1.292  13.025  19.391  0.00  0.00    +0.000 A 
ATOM     11  C   UNL     1      -1.753  12.868  20.684  0.00  0.00    +0.000 A 
ATOM     12  C   UNL     1      -2.700  13.739  21.276  0.00  0.00    +0.000 A 
ATOM     13  C   UNL     1      -3.106  13.605  22.613  0.00  0.00    +0.000 A 
ATOM     14  C   UNL     1      -2.529  12.540  23.321  0.00  0.00    +0.000 A 
ATOM     15  C   UNL     1      -1.605  11.661  22.709  0.00  0.00    +0.000 A 
ATOM     16  C   UNL     1      -1.202  11.793  21.376  0.00  0.00    +0.000 A 
ATOM     17  N   UNL     1      -0.320  10.945  20.798  0.00  0.00    +0.000 NA
ATOM     18  H   UNL     1       1.178  10.818  17.947  0.00  0.00    +0.000 HD
BRANCH  13  19
ATOM     19  C   UNL     1      -4.063  14.568  23.229  0.00  0.00    +0.000 A 
ATOM     20  C   UNL     1      -3.652  15.735  23.887  0.00  0.00    +0.000 A 
ATOM     21  C   UNL     1      -4.608  16.584  24.440  0.00  0.00    +0.000 A 
ATOM     22  N   UNL     1      -5.938  16.360  24.398  0.00  0.00    +0.000 NA
ATOM     23  C   UNL     1      -6.327  15.243  23.768  0.00  0.00    +0.000 A 
ATOM     24  C   UNL     1      -5.451  14.339  23.180  0.00  0.00    +0.000 A 
ENDBRANCH  13  19
ENDBRANCH   4   7
BRANCH   1  26
ATOM     25  C   UNL     1       1.577   4.015  19.613  0.00  0.00    +0.000 C 
ATOM     26  C   UNL     1       2.787   4.949  19.629  0.00  0.00    +0.000 C 
BRANCH  26  27
ATOM     27  N   UNL     1       3.744   4.555  18.600  0.00  0.00    +0.000 N 
ATOM     28  C   UNL     1       5.085   4.340  18.877  0.00  0.00    +0.000 C 
ATOM     29  O   UNL     1       5.560   4.508  19.997  0.00  0.00    +0.000 OA
ATOM     30  H   UNL     1       3.395   4.342  17.678  0.00  0.00    +0.000 HD
BRANCH  28  31
ATOM     31  C   UNL     1       5.928   3.920  17.641  0.00  0.00    +0.000 C 
ATOM     32  C   UNL     1       5.316   4.360  16.303  0.00  0.00    +0.000 C 
ATOM     33  C   UNL     1       5.435   5.862  16.060  0.00  0.00    +0.000 C 
ATOM     34  C   UNL     1       6.863   6.346  16.276  0.00  0.00    +0.000 C 
ATOM     35  C   UNL     1       7.465   5.829  17.581  0.00  0.00    +0.000 C 
ATOM     36  N   UNL     1       7.332   4.381  17.738  0.00  0.00    +0.000 NA
ATOM     37  H   UNL     1       7.742   4.096  18.622  0.00  0.00    +0.000 HD
ENDBRANCH  28  31
ENDBRANCH  26  27
ENDBRANCH   1  26
TORSDOF 5
ENDMDL
MODEL 5
REMARK VINA RESULT:      -8.6      1.747      3.591
REMARK  Name = 
REMARK  6 active torsions:
REMARK  status: ('A' for Active; 'I' for Inactive)
REMARK    1  A    between atoms: C_1  and  C_2
REMARK    2  A    between atoms: C_2  and  N_3
REMARK    3  A    between atoms: C_2  and  C_12
REMARK    4  A    between atoms: C_4  and  C_6
REMARK    5  A    between atoms: C_15  and  N_16
REMARK    6  A    between atoms: C_22  and  C_23
REMARK                            x       y       z     vdW  Elec       q    Type
REMARK                         _______ _______ _______ _____ _____    ______ ____
ROOT
ATOM      1  C   UNL     1       2.390   6.468  19.721  0.00  0.00    +0.000 A 
ATOM      2  C   UNL     1       1.653   7.086  20.744  0.00  0.00    +0.000 A 
ATOM      3  C   UNL     1       1.146   8.390  20.606  0.00  0.00    +0.000 A 
ATOM      4  C   UNL     1       1.331   9.115  19.432  0.00  0.00    +0.000 A 
ATOM      5  C   UNL     1       2.016   8.474  18.383  0.00  0.00    +0.000 A 
ATOM      6  C   UNL     1       2.536   7.172  18.519  0.00  0.00    +0.000 A 
ENDROOT
BRANCH   4   7
ATOM      7  N   UNL     1       0.948  10.455  19.286  0.00  0.00    +0.000 N 
ATOM      8  C   UNL     1       0.038  11.296  19.934  0.00  0.00    +0.000 A 
ATOM      9  N   UNL     1      -0.200  12.439  19.272  0.00  0.00    +0.000 NA
ATOM     10  C   UNL     1      -1.061  13.308  19.831  0.00  0.00    +0.000 A 
ATOM     11  C   UNL     1      -1.687  13.108  21.046  0.00  0.00    +0.000 A 
ATOM     12  C   UNL     1      -2.591  14.041  21.610  0.00  0.00    +0.000 A 
ATOM     13  C   UNL     1      -3.164  13.854  22.878  0.00  0.00    +0.000 A 
ATOM     14  C   UNL     1      -2.801  12.674  23.542  0.00  0.00    +0.000 A 
ATOM     15  C   UNL     1      -1.918  11.737  22.955  0.00  0.00    +0.000 A 
ATOM     16  C   UNL     1      -1.348  11.922  21.692  0.00  0.00    +0.000 A 
ATOM     17  N   UNL     1      -0.508  11.018  21.136  0.00  0.00    +0.000 NA
ATOM     18  H   UNL     1       1.292  10.930  18.463  0.00  0.00    +0.000 HD
BRANCH  13  19
ATOM     19  C   UNL     1      -4.070  14.877  23.473  0.00  0.00    +0.000 A 
ATOM     20  C   UNL     1      -5.458  14.868  23.284  0.00  0.00    +0.000 A 
ATOM     21  C   UNL     1      -6.238  15.863  23.872  0.00  0.00    +0.000 A 
ATOM     22  N   UNL     1      -5.745  16.869  24.623  0.00  0.00    +0.000 NA
ATOM     23  C   UNL     1      -4.417  16.875  24.801  0.00  0.00    +0.000 A 
ATOM     24  C   UNL     1      -3.558  15.924  24.263  0.00  0.00    +0.000 A 
ENDBRANCH  13  19
ENDBRANCH   4   7
BRANCH   1  26
ATOM     25  C   UNL     1       2.061   4.032  20.424  0.00  0.00    +0.000 C 
ATOM     26  C   UNL     1       3.045   5.114  19.976  0.00  0.00    +0.000 C 
BRANCH  26  27
ATOM     27  N   UNL     1       3.783   4.668  18.797  0.00  0.00    +0.000 N 
ATOM     28  C   UNL     1       5.147   4.425  18.826  0.00  0.00    +0.000 C 
ATOM     29  O   UNL     1       5.828   4.608  19.831  0.00  0.00    +0.000 OA
ATOM     30  H   UNL     1       3.263   4.441  17.964  0.00  0.00    +0.000 HD
BRANCH  28  31
ATOM     31  C   UNL     1       5.734   3.952  17.466  0.00  0.00    +0.000 C 
ATOM     32  C   UNL     1       4.941   4.450  16.250  0.00  0.00    +0.000 C 
ATOM     33  C   UNL     1       5.135   5.940  15.983  0.00  0.00    +0.000 C 
ATOM     34  C   UNL     1       6.611   6.310  15.953  0.00  0.00    +0.000 C 
ATOM     35  C   UNL     1       7.383   5.736  17.139  0.00  0.00    +0.000 C 
ATOM     36  N   UNL     1       7.166   4.302  17.323  0.00  0.00    +0.000 NA
ATOM     37  H   UNL     1       7.696   3.978  18.126  0.00  0.00    +0.000 HD
ENDBRANCH  28  31
ENDBRANCH  26  27
ENDBRANCH   1  26
TORSDOF 5
ENDMDL
MODEL 6
REMARK VINA RESULT:      -8.5      3.100      4.897
REMARK  Name = 
REMARK  6 active torsions:
REMARK  status: ('A' for Active; 'I' for Inactive)
REMARK    1  A    between atoms: C_1  and  C_2
REMARK    2  A    between atoms: C_2  and  N_3
REMARK    3  A    between atoms: C_2  and  C_12
REMARK    4  A    between atoms: C_4  and  C_6
REMARK    5  A    between atoms: C_15  and  N_16
REMARK    6  A    between atoms: C_22  and  C_23
REMARK                            x       y       z     vdW  Elec       q    Type
REMARK                         _______ _______ _______ _____ _____    ______ ____
ROOT
ATOM      1  C   UNL     1       3.456   4.395  19.602  0.00  0.00    +0.000 A 
ATOM      2  C   UNL     1       2.338   4.068  20.387  0.00  0.00    +0.000 A 
ATOM      3  C   UNL     1       1.452   5.052  20.857  0.00  0.00    +0.000 A 
ATOM      4  C   UNL     1       1.631   6.396  20.540  0.00  0.00    +0.000 A 
ATOM      5  C   UNL     1       2.716   6.718  19.702  0.00  0.00    +0.000 A 
ATOM      6  C   UNL     1       3.613   5.737  19.237  0.00  0.00    +0.000 A 
ENDROOT
BRANCH   4   7
ATOM      7  N   UNL     1       0.846   7.425  21.076  0.00  0.00    +0.000 N 
ATOM      8  C   UNL     1       0.747   8.803  20.861  0.00  0.00    +0.000 A 
ATOM      9  N   UNL     1       0.044   9.444  21.807  0.00  0.00    +0.000 NA
ATOM     10  C   UNL     1      -0.103  10.773  21.673  0.00  0.00    +0.000 A 
ATOM     11  C   UNL     1       0.398  11.507  20.615  0.00  0.00    +0.000 A 
ATOM     12  C   UNL     1       0.228  12.909  20.500  0.00  0.00    +0.000 A 
ATOM     13  C   UNL     1       0.684  13.628  19.383  0.00  0.00    +0.000 A 
ATOM     14  C   UNL     1       1.337  12.873  18.398  0.00  0.00    +0.000 A 
ATOM     15  C   UNL     1       1.524  11.477  18.539  0.00  0.00    +0.000 A 
ATOM     16  C   UNL     1       1.072  10.761  19.652  0.00  0.00    +0.000 A 
ATOM     17  N   UNL     1       1.259   9.427  19.780  0.00  0.00    +0.000 NA
ATOM     18  H   UNL     1       0.295   7.188  21.889  0.00  0.00    +0.000 HD
BRANCH  13  19
ATOM     19  C   UNL     1       0.445  15.094  19.260  0.00  0.00    +0.000 A 
ATOM     20  C   UNL     1      -0.747  15.708  19.668  0.00  0.00    +0.000 A 
ATOM     21  C   UNL     1      -0.897  17.085  19.517  0.00  0.00    +0.000 A 
ATOM     22  N   UNL     1       0.041  17.896  18.985  0.00  0.00    +0.000 NA
ATOM     23  C   UNL     1       1.178  17.306  18.596  0.00  0.00    +0.000 A 
ATOM     24  C   UNL     1       1.424  15.943  18.712  0.00  0.00    +0.000 A 
ENDBRANCH  13  19
ENDBRANCH   4   7
BRANCH   1  26
ATOM     25  C   UNL     1       3.835   1.944  18.980  0.00  0.00    +0.000 C 
ATOM     26  C   UNL     1       4.468   3.311  19.242  0.00  0.00    +0.000 C 
BRANCH  26  27
ATOM     27  N   UNL     1       5.278   3.721  18.099  0.00  0.00    +0.000 N 
ATOM     28  C   UNL     1       6.476   4.402  18.246  0.00  0.00    +0.000 C 
ATOM     29  O   UNL     1       6.911   4.741  19.343  0.00  0.00    +0.000 OA
ATOM     30  H   UNL     1       5.000   3.414  17.180  0.00  0.00    +0.000 HD
BRANCH  28  31
ATOM     31  C   UNL     1       7.182   4.738  16.902  0.00  0.00    +0.000 C 
ATOM     32  C   UNL     1       6.469   4.157  15.673  0.00  0.00    +0.000 C 
ATOM     33  C   UNL     1       5.168   4.885  15.341  0.00  0.00    +0.000 C 
ATOM     34  C   UNL     1       5.377   6.392  15.282  0.00  0.00    +0.000 C 
ATOM     35  C   UNL     1       6.155   6.924  16.484  0.00  0.00    +0.000 C 
ATOM     36  N   UNL     1       7.397   6.193  16.731  0.00  0.00    +0.000 NA
ATOM     37  H   UNL     1       7.867   6.584  17.542  0.00  0.00    +0.000 HD
ENDBRANCH  28  31
ENDBRANCH  26  27
ENDBRANCH   1  26
TORSDOF 5
ENDMDL
MODEL 7
REMARK VINA RESULT:      -8.5      3.255      4.891
REMARK  Name = 
REMARK  6 active torsions:
REMARK  status: ('A' for Active; 'I' for Inactive)
REMARK    1  A    between atoms: C_1  and  C_2
REMARK    2  A    between atoms: C_2  and  N_3
REMARK    3  A    between atoms: C_2  and  C_12
REMARK    4  A    between atoms: C_4  and  C_6
REMARK    5  A    between atoms: C_15  and  N_16
REMARK    6  A    between atoms: C_22  and  C_23
REMARK                            x       y       z     vdW  Elec       q    Type
REMARK                         _______ _______ _______ _____ _____    ______ ____
ROOT
ATOM      1  C   UNL     1       2.692   4.786  19.267  0.00  0.00    +0.000 A 
ATOM      2  C   UNL     1       2.906   6.090  18.792  0.00  0.00    +0.000 A 
ATOM      3  C   UNL     1       2.309   7.206  19.402  0.00  0.00    +0.000 A 
ATOM      4  C   UNL     1       1.497   7.068  20.524  0.00  0.00    +0.000 A 
ATOM      5  C   UNL     1       1.330   5.768  21.039  0.00  0.00    +0.000 A 
ATOM      6  C   UNL     1       1.918   4.644  20.426  0.00  0.00    +0.000 A 
ENDROOT
BRANCH   4   7
ATOM      7  N   UNL     1       0.787   8.131  21.097  0.00  0.00    +0.000 N 
ATOM      8  C   UNL     1       0.720   9.508  20.868  0.00  0.00    +0.000 A 
ATOM      9  N   UNL     1       0.107  10.186  21.851  0.00  0.00    +0.000 NA
ATOM     10  C   UNL     1      -0.004  11.518  21.707  0.00  0.00    +0.000 A 
ATOM     11  C   UNL     1       0.445  12.219  20.604  0.00  0.00    +0.000 A 
ATOM     12  C   UNL     1       0.314  13.624  20.479  0.00  0.00    +0.000 A 
ATOM     13  C   UNL     1       0.714  14.312  19.322  0.00  0.00    +0.000 A 
ATOM     14  C   UNL     1       1.270  13.521  18.306  0.00  0.00    +0.000 A 
ATOM     15  C   UNL     1       1.419  12.123  18.455  0.00  0.00    +0.000 A 
ATOM     16  C   UNL     1       1.023  11.437  19.608  0.00  0.00    +0.000 A 
ATOM     17  N   UNL     1       1.174  10.100  19.744  0.00  0.00    +0.000 NA
ATOM     18  H   UNL     1       0.287   7.924  21.951  0.00  0.00    +0.000 HD
BRANCH  13  19
ATOM     19  C   UNL     1       0.516  15.783  19.193  0.00  0.00    +0.000 A 
ATOM     20  C   UNL     1       1.576  16.682  19.010  0.00  0.00    +0.000 A 
ATOM     21  C   UNL     1       1.309  18.045  18.901  0.00  0.00    +0.000 A 
ATOM     22  N   UNL     1       0.074  18.585  18.969  0.00  0.00    +0.000 NA
ATOM     23  C   UNL     1      -0.937  17.723  19.144  0.00  0.00    +0.000 A 
ATOM     24  C   UNL     1      -0.772  16.347  19.256  0.00  0.00    +0.000 A 
ENDBRANCH  13  19
ENDBRANCH   4   7
BRANCH   1  26
ATOM     25  C   UNL     1       2.187   2.884  17.635  0.00  0.00    +0.000 C 
ATOM     26  C   UNL     1       3.241   3.597  18.484  0.00  0.00    +0.000 C 
BRANCH  26  27
ATOM     27  N   UNL     1       4.368   4.006  17.651  0.00  0.00    +0.000 N 
ATOM     28  C   UNL     1       5.651   4.144  18.157  0.00  0.00    +0.000 C 
ATOM     29  O   UNL     1       5.912   3.974  19.345  0.00  0.00    +0.000 OA
ATOM     30  H   UNL     1       4.222   4.097  16.658  0.00  0.00    +0.000 HD
BRANCH  28  31
ATOM     31  C   UNL     1       6.705   4.580  17.101  0.00  0.00    +0.000 C 
ATOM     32  C   UNL     1       6.204   5.679  16.153  0.00  0.00    +0.000 C 
ATOM     33  C   UNL     1       6.098   7.044  16.827  0.00  0.00    +0.000 C 
ATOM     34  C   UNL     1       7.383   7.399  17.562  0.00  0.00    +0.000 C 
ATOM     35  C   UNL     1       7.892   6.257  18.438  0.00  0.00    +0.000 C 
ATOM     36  N   UNL     1       7.986   4.985  17.722  0.00  0.00    +0.000 NA
ATOM     37  H   UNL     1       8.322   4.264  18.353  0.00  0.00    +0.000 HD
ENDBRANCH  28  31
ENDBRANCH  26  27
ENDBRANCH   1  26
TORSDOF 5
ENDMDL
MODEL 8
REMARK VINA RESULT:      -8.5      3.105      4.867
REMARK  Name = 
REMARK  6 active torsions:
REMARK  status: ('A' for Active; 'I' for Inactive)
REMARK    1  A    between atoms: C_1  and  C_2
REMARK    2  A    between atoms: C_2  and  N_3
REMARK    3  A    between atoms: C_2  and  C_12
REMARK    4  A    between atoms: C_4  and  C_6
REMARK    5  A    between atoms: C_15  and  N_16
REMARK    6  A    between atoms: C_22  and  C_23
REMARK                            x       y       z     vdW  Elec       q    Type
REMARK                         _______ _______ _______ _____ _____    ______ ____
ROOT
ATOM      1  C   UNL     1       3.219   4.082  19.528  0.00  0.00    +0.000 A 
ATOM      2  C   UNL     1       1.896   3.866  19.947  0.00  0.00    +0.000 A 
ATOM      3  C   UNL     1       1.102   4.909  20.455  0.00  0.00    +0.000 A 
ATOM      4  C   UNL     1       1.589   6.210  20.540  0.00  0.00    +0.000 A 
ATOM      5  C   UNL     1       2.894   6.440  20.064  0.00  0.00    +0.000 A 
ATOM      6  C   UNL     1       3.697   5.397  19.563  0.00  0.00    +0.000 A 
ENDROOT
BRANCH   4   7
ATOM      7  N   UNL     1       0.883   7.259  21.144  0.00  0.00    +0.000 N 
ATOM      8  C   UNL     1       0.817   8.642  20.953  0.00  0.00    +0.000 A 
ATOM      9  N   UNL     1       0.208   9.294  21.955  0.00  0.00    +0.000 NA
ATOM     10  C   UNL     1       0.099  10.629  21.848  0.00  0.00    +0.000 A 
ATOM     11  C   UNL     1       0.548  11.360  20.764  0.00  0.00    +0.000 A 
ATOM     12  C   UNL     1       0.420  12.768  20.678  0.00  0.00    +0.000 A 
ATOM     13  C   UNL     1       0.819  13.486  19.539  0.00  0.00    +0.000 A 
ATOM     14  C   UNL     1       1.371  12.723  18.500  0.00  0.00    +0.000 A 
ATOM     15  C   UNL     1       1.518  11.320  18.611  0.00  0.00    +0.000 A 
ATOM     16  C   UNL     1       1.123  10.604  19.745  0.00  0.00    +0.000 A 
ATOM     17  N   UNL     1       1.271   9.263  19.845  0.00  0.00    +0.000 NA
ATOM     18  H   UNL     1       0.384   7.030  21.993  0.00  0.00    +0.000 HD
BRANCH  13  19
ATOM     19  C   UNL     1       0.623  14.961  19.451  0.00  0.00    +0.000 A 
ATOM     20  C   UNL     1      -0.625  15.551  19.211  0.00  0.00    +0.000 A 
ATOM     21  C   UNL     1      -0.726  16.939  19.139  0.00  0.00    +0.000 A 
ATOM     22  N   UNL     1       0.316  17.784  19.277  0.00  0.00    +0.000 NA
ATOM     23  C   UNL     1       1.508  17.217  19.506  0.00  0.00    +0.000 A 
ATOM     24  C   UNL     1       1.708  15.845  19.602  0.00  0.00    +0.000 A 
ENDBRANCH  13  19
ENDBRANCH   4   7
BRANCH   1  26
ATOM     25  C   UNL     1       3.375   1.901  18.202  0.00  0.00    +0.000 C 
ATOM     26  C   UNL     1       4.086   2.893  19.124  0.00  0.00    +0.000 C 
BRANCH  26  27
ATOM     27  N   UNL     1       5.332   3.347  18.515  0.00  0.00    +0.000 N 
ATOM     28  C   UNL     1       5.372   3.939  17.262  0.00  0.00    +0.000 C 
ATOM     29  O   UNL     1       4.368   4.081  16.569  0.00  0.00    +0.000 OA
ATOM     30  H   UNL     1       6.175   3.312  19.066  0.00  0.00    +0.000 HD
BRANCH  28  31
ATOM     31  C   UNL     1       6.798   4.355  16.804  0.00  0.00    +0.000 C 
ATOM     32  C   UNL     1       6.838   5.706  16.077  0.00  0.00    +0.000 C 
ATOM     33  C   UNL     1       6.634   6.892  17.015  0.00  0.00    +0.000 C 
ATOM     34  C   UNL     1       7.561   6.810  18.221  0.00  0.00    +0.000 C 
ATOM     35  C   UNL     1       7.550   5.429  18.874  0.00  0.00    +0.000 C 
ATOM     36  N   UNL     1       7.770   4.343  17.920  0.00  0.00    +0.000 NA
ATOM     37  H   UNL     1       7.747   3.453  18.407  0.00  0.00    +0.000 HD
ENDBRANCH  28  31
ENDBRANCH  26  27
ENDBRANCH   1  26
TORSDOF 5
ENDMDL
MODEL 9
REMARK VINA RESULT:      -8.5      1.727      3.423
REMARK  Name = 
REMARK  6 active torsions:
REMARK  status: ('A' for Active; 'I' for Inactive)
REMARK    1  A    between atoms: C_1  and  C_2
REMARK    2  A    between atoms: C_2  and  N_3
REMARK    3  A    between atoms: C_2  and  C_12
REMARK    4  A    between atoms: C_4  and  C_6
REMARK    5  A    between atoms: C_15  and  N_16
REMARK    6  A    between atoms: C_22  and  C_23
REMARK                            x       y       z     vdW  Elec       q    Type
REMARK                         _______ _______ _______ _____ _____    ______ ____
ROOT
ATOM      1  C   UNL     1       2.642   5.898  19.496  0.00  0.00    +0.000 A 
ATOM      2  C   UNL     1       1.998   6.551  20.559  0.00  0.00    +0.000 A 
ATOM      3  C   UNL     1       1.520   7.867  20.438  0.00  0.00    +0.000 A 
ATOM      4  C   UNL     1       1.642   8.572  19.244  0.00  0.00    +0.000 A 
ATOM      5  C   UNL     1       2.232   7.897  18.158  0.00  0.00    +0.000 A 
ATOM      6  C   UNL     1       2.723   6.582  18.277  0.00  0.00    +0.000 A 
ENDROOT
BRANCH   4   7
ATOM      7  N   UNL     1       1.289   9.921  19.106  0.00  0.00    +0.000 N 
ATOM      8  C   UNL     1       0.408  10.781  19.767  0.00  0.00    +0.000 A 
ATOM      9  N   UNL     1       0.187  11.931  19.111  0.00  0.00    +0.000 NA
ATOM     10  C   UNL     1      -0.646  12.818  19.682  0.00  0.00    +0.000 A 
ATOM     11  C   UNL     1      -1.261  12.630  20.905  0.00  0.00    +0.000 A 
ATOM     12  C   UNL     1      -2.135  13.583  21.482  0.00  0.00    +0.000 A 
ATOM     13  C   UNL     1      -2.697  13.406  22.757  0.00  0.00    +0.000 A 
ATOM     14  C   UNL     1      -2.353  12.216  23.414  0.00  0.00    +0.000 A 
ATOM     15  C   UNL     1      -1.500  11.260  22.813  0.00  0.00    +0.000 A 
ATOM     16  C   UNL     1      -0.941  11.434  21.543  0.00  0.00    +0.000 A 
ATOM     17  N   UNL     1      -0.130  10.513  20.975  0.00  0.00    +0.000 NA
ATOM     18  H   UNL     1       1.634  10.390  18.280  0.00  0.00    +0.000 HD
BRANCH  13  19
ATOM     19  C   UNL     1      -3.571  14.449  23.366  0.00  0.00    +0.000 A 
ATOM     20  C   UNL     1      -3.066  15.539  24.088  0.00  0.00    +0.000 A 
ATOM     21  C   UNL     1      -3.949  16.471  24.630  0.00  0.00    +0.000 A 
ATOM     22  N   UNL     1      -5.292  16.399  24.518  0.00  0.00    +0.000 NA
ATOM     23  C   UNL     1      -5.770  15.356  23.828  0.00  0.00    +0.000 A 
ATOM     24  C   UNL     1      -4.971  14.379  23.244  0.00  0.00    +0.000 A 
ENDBRANCH  13  19
ENDBRANCH   4   7
BRANCH   1  26
ATOM     25  C   UNL     1       2.253   3.396  19.851  0.00  0.00    +0.000 C 
ATOM     26  C   UNL     1       3.273   4.528  19.723  0.00  0.00    +0.000 C 
BRANCH  26  27
ATOM     27  N   UNL     1       4.237   4.223  18.670  0.00  0.00    +0.000 N 
ATOM     28  C   UNL     1       5.584   4.527  18.787  0.00  0.00    +0.000 C 
ATOM     29  O   UNL     1       6.045   5.109  19.765  0.00  0.00    +0.000 OA
ATOM     30  H   UNL     1       3.924   3.689  17.874  0.00  0.00    +0.000 HD
BRANCH  28  31
ATOM     31  C   UNL     1       6.436   4.111  17.555  0.00  0.00    +0.000 C 
ATOM     32  C   UNL     1       5.627   4.015  16.254  0.00  0.00    +0.000 C 
ATOM     33  C   UNL     1       5.225   5.380  15.701  0.00  0.00    +0.000 C 
ATOM     34  C   UNL     1       6.422   6.318  15.618  0.00  0.00    +0.000 C 
ATOM     35  C   UNL     1       7.245   6.332  16.904  0.00  0.00    +0.000 C 
ATOM     36  N   UNL     1       7.611   4.993  17.364  0.00  0.00    +0.000 NA
ATOM     37  H   UNL     1       8.150   5.063  18.222  0.00  0.00    +0.000 HD
ENDBRANCH  28  31
ENDBRANCH  26  27
ENDBRANCH   1  26
TORSDOF 5
ENDMDL
