MODEL 1
REMARK VINA RESULT:      -8.4      0.000      0.000
REMARK  Name = 
REMARK  3 active torsions:
REMARK  status: ('A' for Active; 'I' for Inactive)
REMARK    1  A    between atoms: C_6  and  C_7
REMARK    2  A    between atoms: C_14  and  N_15
REMARK    3  A    between atoms: N_15  and  C_16
REMARK                            x       y       z     vdW  Elec       q    Type
REMARK                         _______ _______ _______ _____ _____    ______ ____
ROOT
ATOM      1  O   UNL     1       4.368   0.648  18.454  0.00  0.00    +0.000 OA
ATOM      2  C   UNL     1       3.601   1.588  18.428  0.00  0.00    +0.000 C 
ATOM      3  N   UNL     1       2.278   1.539  18.145  0.00  0.00    +0.000 N 
ATOM      4  C   UNL     1       1.704   2.748  18.306  0.00  0.00    +0.000 C 
ATOM      5  O   UNL     1       0.517   3.007  18.235  0.00  0.00    +0.000 OA
ATOM      6  C   UNL     1       2.778   3.701  18.639  0.00  0.00    +0.000 C 
ATOM      7  C   UNL     1       3.928   3.015  18.732  0.00  0.00    +0.000 C 
ATOM      8  H   UNL     1       1.771   0.692  17.951  0.00  0.00    +0.000 HD
ENDROOT
BRANCH   6   9
ATOM      9  C   UNL     1       2.592   5.131  18.867  0.00  0.00    +0.000 A 
ATOM     10  C   UNL     1       2.778   6.013  17.793  0.00  0.00    +0.000 A 
ATOM     11  C   UNL     1       2.573   7.385  17.956  0.00  0.00    +0.000 A 
ATOM     12  C   UNL     1       2.177   7.891  19.191  0.00  0.00    +0.000 A 
ATOM     13  C   UNL     1       2.000   7.026  20.271  0.00  0.00    +0.000 A 
ATOM     14  C   UNL     1       2.213   5.652  20.113  0.00  0.00    +0.000 A 
ATOM     15 CL   UNL     1       2.000   4.640  21.500  0.00  0.00    +0.000 Cl
ENDBRANCH   6   9
BRANCH   7  16
ATOM     16  N   UNL     1       5.186   3.440  19.070  0.00  0.00    +0.000 N 
ATOM     17  H   UNL     1       5.551   3.096  19.950  0.00  0.00    +0.000 HD
BRANCH  16  18
ATOM     18  C   UNL     1       5.969   4.379  18.379  0.00  0.00    +0.000 A 
ATOM     19  C   UNL     1       6.544   5.493  19.009  0.00  0.00    +0.000 A 
ATOM     20  C   UNL     1       7.257   6.450  18.281  0.00  0.00    +0.000 A 
ATOM     21  C   UNL     1       7.402   6.310  16.904  0.00  0.00    +0.000 A 
ATOM     22  C   UNL     1       6.846   5.205  16.266  0.00  0.00    +0.000 A 
ATOM     23 CL   UNL     1       7.014   5.032  14.561  0.00  0.00    +0.000 Cl
ATOM     24  C   UNL     1       6.138   4.246  16.994  0.00  0.00    +0.000 A 
ENDBRANCH  16  18
ENDBRANCH   7  16
TORSDOF 3
ENDMDL
MODEL 2
REMARK VINA RESULT:      -8.1      2.056      5.430
REMARK  Name = 
REMARK  3 active torsions:
REMARK  status: ('A' for Active; 'I' for Inactive)
REMARK    1  A    between atoms: C_6  and  C_7
REMARK    2  A    between atoms: C_14  and  N_15
REMARK    3  A    between atoms: N_15  and  C_16
REMARK                            x       y       z     vdW  Elec       q    Type
REMARK                         _______ _______ _______ _____ _____    ______ ____
ROOT
ATOM      1  O   UNL     1       1.246   3.755  18.713  0.00  0.00    +0.000 OA
ATOM      2  C   UNL     1       2.392   3.900  18.342  0.00  0.00    +0.000 C 
ATOM      3  N   UNL     1       3.039   3.152  17.417  0.00  0.00    +0.000 N 
ATOM      4  C   UNL     1       4.268   3.647  17.167  0.00  0.00    +0.000 C 
ATOM      5  O   UNL     1       5.048   3.267  16.315  0.00  0.00    +0.000 OA
ATOM      6  C   UNL     1       4.477   4.780  18.087  0.00  0.00    +0.000 C 
ATOM      7  C   UNL     1       3.349   4.956  18.793  0.00  0.00    +0.000 C 
ATOM      8  H   UNL     1       2.618   2.395  16.905  0.00  0.00    +0.000 HD
ENDROOT
BRANCH   6   9
ATOM      9  C   UNL     1       5.694   5.583  18.168  0.00  0.00    +0.000 A 
ATOM     10  C   UNL     1       6.598   5.333  19.209  0.00  0.00    +0.000 A 
ATOM     11  C   UNL     1       7.792   6.051  19.303  0.00  0.00    +0.000 A 
ATOM     12  C   UNL     1       8.099   7.024  18.356  0.00  0.00    +0.000 A 
ATOM     13  C   UNL     1       7.203   7.292  17.320  0.00  0.00    +0.000 A 
ATOM     14  C   UNL     1       6.002   6.581  17.229  0.00  0.00    +0.000 A 
ATOM     15 CL   UNL     1       4.925   6.981  15.936  0.00  0.00    +0.000 Cl
ENDBRANCH   6   9
BRANCH   7  16
ATOM     16  N   UNL     1       3.030   5.906  19.728  0.00  0.00    +0.000 N 
ATOM     17  H   UNL     1       3.244   5.672  20.690  0.00  0.00    +0.000 HD
BRANCH  16  18
ATOM     18  C   UNL     1       2.346   7.111  19.502  0.00  0.00    +0.000 A 
ATOM     19  C   UNL     1       2.364   7.771  18.264  0.00  0.00    +0.000 A 
ATOM     20  C   UNL     1       1.733   9.006  18.091  0.00  0.00    +0.000 A 
ATOM     21  C   UNL     1       1.075   9.607  19.160  0.00  0.00    +0.000 A 
ATOM     22  C   UNL     1       1.039   8.960  20.392  0.00  0.00    +0.000 A 
ATOM     23 CL   UNL     1       0.236   9.703  21.721  0.00  0.00    +0.000 Cl
ATOM     24  C   UNL     1       1.666   7.724  20.564  0.00  0.00    +0.000 A 
ENDBRANCH  16  18
ENDBRANCH   7  16
TORSDOF 3
ENDMDL
MODEL 3
REMARK VINA RESULT:      -8.1      1.082      1.484
REMARK  Name = 
REMARK  3 active torsions:
REMARK  status: ('A' for Active; 'I' for Inactive)
REMARK    1  A    between atoms: C_6  and  C_7
REMARK    2  A    between atoms: C_14  and  N_15
REMARK    3  A    between atoms: N_15  and  C_16
REMARK                            x       y       z     vdW  Elec       q    Type
REMARK                         _______ _______ _______ _____ _____    ______ ____
ROOT
ATOM      1  O   UNL     1       4.318   0.601  18.523  0.00  0.00    +0.000 OA
ATOM      2  C   UNL     1       3.535   1.527  18.556  0.00  0.00    +0.000 C 
ATOM      3  N   UNL     1       2.186   1.444  18.464  0.00  0.00    +0.000 N 
ATOM      4  C   UNL     1       1.614   2.652  18.642  0.00  0.00    +0.000 C 
ATOM      5  O   UNL     1       0.424   2.890  18.724  0.00  0.00    +0.000 OA
ATOM      6  C   UNL     1       2.704   3.636  18.772  0.00  0.00    +0.000 C 
ATOM      7  C   UNL     1       3.870   2.972  18.739  0.00  0.00    +0.000 C 
ATOM      8  H   UNL     1       1.675   0.581  18.386  0.00  0.00    +0.000 HD
ENDROOT
BRANCH   6   9
ATOM      9  C   UNL     1       2.521   5.074  18.951  0.00  0.00    +0.000 A 
ATOM     10  C   UNL     1       2.622   5.909  17.830  0.00  0.00    +0.000 A 
ATOM     11  C   UNL     1       2.416   7.285  17.947  0.00  0.00    +0.000 A 
ATOM     12  C   UNL     1       2.103   7.843  19.184  0.00  0.00    +0.000 A 
ATOM     13  C   UNL     1       2.011   7.025  20.311  0.00  0.00    +0.000 A 
ATOM     14  C   UNL     1       2.226   5.647  20.197  0.00  0.00    +0.000 A 
ATOM     15 CL   UNL     1       2.121   4.695  21.638  0.00  0.00    +0.000 Cl
ENDBRANCH   6   9
BRANCH   7  16
ATOM     16  N   UNL     1       5.154   3.432  18.875  0.00  0.00    +0.000 N 
ATOM     17  H   UNL     1       5.650   3.128  19.704  0.00  0.00    +0.000 HD
BRANCH  16  18
ATOM     18  C   UNL     1       5.806   4.360  18.047  0.00  0.00    +0.000 A 
ATOM     19  C   UNL     1       5.760   4.286  16.646  0.00  0.00    +0.000 A 
ATOM     20  C   UNL     1       6.480   5.181  15.849  0.00  0.00    +0.000 A 
ATOM     21  C   UNL     1       7.265   6.166  16.443  0.00  0.00    +0.000 A 
ATOM     22  C   UNL     1       7.312   6.258  17.831  0.00  0.00    +0.000 A 
ATOM     23 CL   UNL     1       8.289   7.467  18.571  0.00  0.00    +0.000 Cl
ATOM     24  C   UNL     1       6.590   5.367  18.628  0.00  0.00    +0.000 A 
ENDBRANCH  16  18
ENDBRANCH   7  16
TORSDOF 3
ENDMDL
MODEL 4
REMARK VINA RESULT:      -7.6      1.152      1.543
REMARK  Name = 
REMARK  3 active torsions:
REMARK  status: ('A' for Active; 'I' for Inactive)
REMARK    1  A    between atoms: C_6  and  C_7
REMARK    2  A    between atoms: C_14  and  N_15
REMARK    3  A    between atoms: N_15  and  C_16
REMARK                            x       y       z     vdW  Elec       q    Type
REMARK                         _______ _______ _______ _____ _____    ______ ____
ROOT
ATOM      1  O   UNL     1       4.288   0.761  18.482  0.00  0.00    +0.000 OA
ATOM      2  C   UNL     1       3.489   1.673  18.530  0.00  0.00    +0.000 C 
ATOM      3  N   UNL     1       2.176   1.609  18.205  0.00  0.00    +0.000 N 
ATOM      4  C   UNL     1       1.555   2.776  18.473  0.00  0.00    +0.000 C 
ATOM      5  O   UNL     1       0.362   3.002  18.394  0.00  0.00    +0.000 OA
ATOM      6  C   UNL     1       2.585   3.724  18.934  0.00  0.00    +0.000 C 
ATOM      7  C   UNL     1       3.757   3.070  18.990  0.00  0.00    +0.000 C 
ATOM      8  H   UNL     1       1.705   0.771  17.910  0.00  0.00    +0.000 HD
ENDROOT
BRANCH   6   9
ATOM      9  C   UNL     1       2.343   5.115  19.302  0.00  0.00    +0.000 A 
ATOM     10  C   UNL     1       1.722   5.388  20.528  0.00  0.00    +0.000 A 
ATOM     11  C   UNL     1       1.505   6.705  20.939  0.00  0.00    +0.000 A 
ATOM     12  C   UNL     1       1.909   7.765  20.132  0.00  0.00    +0.000 A 
ATOM     13  C   UNL     1       2.518   7.508  18.903  0.00  0.00    +0.000 A 
ATOM     14  C   UNL     1       2.729   6.189  18.485  0.00  0.00    +0.000 A 
ATOM     15 CL   UNL     1       3.466   5.943  16.940  0.00  0.00    +0.000 Cl
ENDBRANCH   6   9
BRANCH   7  16
ATOM     16  N   UNL     1       4.990   3.499  19.406  0.00  0.00    +0.000 N 
ATOM     17  H   UNL     1       5.257   3.239  20.348  0.00  0.00    +0.000 HD
BRANCH  16  18
ATOM     18  C   UNL     1       5.865   4.344  18.706  0.00  0.00    +0.000 A 
ATOM     19  C   UNL     1       6.519   5.427  19.314  0.00  0.00    +0.000 A 
ATOM     20  C   UNL     1       7.327   6.295  18.574  0.00  0.00    +0.000 A 
ATOM     21  C   UNL     1       7.492   6.096  17.206  0.00  0.00    +0.000 A 
ATOM     22  C   UNL     1       6.859   5.020  16.590  0.00  0.00    +0.000 A 
ATOM     23 CL   UNL     1       7.051   4.775  14.898  0.00  0.00    +0.000 Cl
ATOM     24  C   UNL     1       6.054   4.150  17.330  0.00  0.00    +0.000 A 
ENDBRANCH  16  18
ENDBRANCH   7  16
TORSDOF 3
ENDMDL
MODEL 5
REMARK VINA RESULT:      -7.5      2.219      5.065
REMARK  Name = 
REMARK  3 active torsions:
REMARK  status: ('A' for Active; 'I' for Inactive)
REMARK    1  A    between atoms: C_6  and  C_7
REMARK    2  A    between atoms: C_14  and  N_15
REMARK    3  A    between atoms: N_15  and  C_16
REMARK                            x       y       z     vdW  Elec       q    Type
REMARK                         _______ _______ _______ _____ _____    ______ ____
ROOT
ATOM      1  O   UNL     1       1.810   4.142  21.401  0.00  0.00    +0.000 OA
ATOM      2  C   UNL     1       2.511   3.799  20.472  0.00  0.00    +0.000 C 
ATOM      3  N   UNL     1       2.606   2.552  19.954  0.00  0.00    +0.000 N 
ATOM      4  C   UNL     1       3.397   2.540  18.862  0.00  0.00    +0.000 C 
ATOM      5  O   UNL     1       3.595   1.602  18.114  0.00  0.00    +0.000 OA
ATOM      6  C   UNL     1       3.945   3.900  18.706  0.00  0.00    +0.000 C 
ATOM      7  C   UNL     1       3.408   4.677  19.660  0.00  0.00    +0.000 C 
ATOM      8  H   UNL     1       2.070   1.762  20.274  0.00  0.00    +0.000 HD
ENDROOT
BRANCH   6   9
ATOM      9  C   UNL     1       4.875   4.316  17.660  0.00  0.00    +0.000 A 
ATOM     10  C   UNL     1       4.497   4.156  16.320  0.00  0.00    +0.000 A 
ATOM     11  C   UNL     1       5.338   4.576  15.288  0.00  0.00    +0.000 A 
ATOM     12  C   UNL     1       6.565   5.165  15.582  0.00  0.00    +0.000 A 
ATOM     13  C   UNL     1       6.960   5.320  16.911  0.00  0.00    +0.000 A 
ATOM     14  C   UNL     1       6.123   4.892  17.947  0.00  0.00    +0.000 A 
ATOM     15 CL   UNL     1       6.685   5.092  19.571  0.00  0.00    +0.000 Cl
ENDBRANCH   6   9
BRANCH   7  16
ATOM     16  N   UNL     1       3.559   6.018  19.897  0.00  0.00    +0.000 N 
ATOM     17  H   UNL     1       4.284   6.275  20.557  0.00  0.00    +0.000 HD
BRANCH  16  18
ATOM     18  C   UNL     1       2.749   7.055  19.407  0.00  0.00    +0.000 A 
ATOM     19  C   UNL     1       2.814   7.501  18.078  0.00  0.00    +0.000 A 
ATOM     20  C   UNL     1       2.047   8.584  17.638  0.00  0.00    +0.000 A 
ATOM     21  C   UNL     1       1.202   9.245  18.527  0.00  0.00    +0.000 A 
ATOM     22  C   UNL     1       1.119   8.807  19.845  0.00  0.00    +0.000 A 
ATOM     23 CL   UNL     1       0.084   9.626  20.951  0.00  0.00    +0.000 Cl
ATOM     24  C   UNL     1       1.882   7.722  20.284  0.00  0.00    +0.000 A 
ENDBRANCH  16  18
ENDBRANCH   7  16
TORSDOF 3
ENDMDL
MODEL 6
REMARK VINA RESULT:      -7.5      3.228      4.775
REMARK  Name = 
REMARK  3 active torsions:
REMARK  status: ('A' for Active; 'I' for Inactive)
REMARK    1  A    between atoms: C_6  and  C_7
REMARK    2  A    between atoms: C_14  and  N_15
REMARK    3  A    between atoms: N_15  and  C_16
REMARK                            x       y       z     vdW  Elec       q    Type
REMARK                         _______ _______ _______ _____ _____    ______ ____
ROOT
ATOM      1  O   UNL     1       7.841   6.531  16.323  0.00  0.00    +0.000 OA
ATOM      2  C   UNL     1       7.066   5.934  17.041  0.00  0.00    +0.000 C 
ATOM      3  N   UNL     1       7.193   5.738  18.374  0.00  0.00    +0.000 N 
ATOM      4  C   UNL     1       6.103   5.126  18.879  0.00  0.00    +0.000 C 
ATOM      5  O   UNL     1       5.866   4.908  20.052  0.00  0.00    +0.000 OA
ATOM      6  C   UNL     1       5.215   4.810  17.745  0.00  0.00    +0.000 C 
ATOM      7  C   UNL     1       5.773   5.306  16.630  0.00  0.00    +0.000 C 
ATOM      8  H   UNL     1       7.949   6.100  18.931  0.00  0.00    +0.000 HD
ENDROOT
BRANCH   6   9
ATOM      9  C   UNL     1       3.934   4.117  17.848  0.00  0.00    +0.000 A 
ATOM     10  C   UNL     1       3.918   2.718  17.779  0.00  0.00    +0.000 A 
ATOM     11  C   UNL     1       2.721   2.012  17.912  0.00  0.00    +0.000 A 
ATOM     12  C   UNL     1       1.526   2.695  18.119  0.00  0.00    +0.000 A 
ATOM     13  C   UNL     1       1.524   4.089  18.179  0.00  0.00    +0.000 A 
ATOM     14  C   UNL     1       2.722   4.799  18.037  0.00  0.00    +0.000 A 
ATOM     15 CL   UNL     1       2.645   6.527  18.096  0.00  0.00    +0.000 Cl
ENDBRANCH   6   9
BRANCH   7  16
ATOM     16  N   UNL     1       5.312   5.316  15.339  0.00  0.00    +0.000 N 
ATOM     17  H   UNL     1       4.367   5.657  15.207  0.00  0.00    +0.000 HD
BRANCH  16  18
ATOM     18  C   UNL     1       5.969   4.807  14.208  0.00  0.00    +0.000 A 
ATOM     19  C   UNL     1       7.175   5.341  13.730  0.00  0.00    +0.000 A 
ATOM     20  C   UNL     1       7.767   4.860  12.558  0.00  0.00    +0.000 A 
ATOM     21  C   UNL     1       7.157   3.836  11.840  0.00  0.00    +0.000 A 
ATOM     22  C   UNL     1       5.965   3.288  12.307  0.00  0.00    +0.000 A 
ATOM     23 CL   UNL     1       5.201   2.028  11.418  0.00  0.00    +0.000 Cl
ATOM     24  C   UNL     1       5.376   3.766  13.480  0.00  0.00    +0.000 A 
ENDBRANCH  16  18
ENDBRANCH   7  16
TORSDOF 3
ENDMDL
MODEL 7
REMARK VINA RESULT:      -7.5      2.072      5.208
REMARK  Name = 
REMARK  3 active torsions:
REMARK  status: ('A' for Active; 'I' for Inactive)
REMARK    1  A    between atoms: C_6  and  C_7
REMARK    2  A    between atoms: C_14  and  N_15
REMARK    3  A    between atoms: N_15  and  C_16
REMARK                            x       y       z     vdW  Elec       q    Type
REMARK                         _______ _______ _______ _____ _____    ______ ____
ROOT
ATOM      1  O   UNL     1       0.925   3.935  20.796  0.00  0.00    +0.000 OA
ATOM      2  C   UNL     1       1.958   3.755  20.184  0.00  0.00    +0.000 C 
ATOM      3  N   UNL     1       2.356   2.601  19.600  0.00  0.00    +0.000 N 
ATOM      4  C   UNL     1       3.505   2.776  18.916  0.00  0.00    +0.000 C 
ATOM      5  O   UNL     1       4.059   1.964  18.199  0.00  0.00    +0.000 OA
ATOM      6  C   UNL     1       3.948   4.163  19.154  0.00  0.00    +0.000 C 
ATOM      7  C   UNL     1       3.017   4.773  19.904  0.00  0.00    +0.000 C 
ATOM      8  H   UNL     1       1.811   1.756  19.584  0.00  0.00    +0.000 HD
ENDROOT
BRANCH   6   9
ATOM      9  C   UNL     1       5.168   4.759  18.618  0.00  0.00    +0.000 A 
ATOM     10  C   UNL     1       6.159   5.182  19.514  0.00  0.00    +0.000 A 
ATOM     11  C   UNL     1       7.359   5.722  19.045  0.00  0.00    +0.000 A 
ATOM     12  C   UNL     1       7.584   5.842  17.676  0.00  0.00    +0.000 A 
ATOM     13  C   UNL     1       6.601   5.436  16.773  0.00  0.00    +0.000 A 
ATOM     14  C   UNL     1       5.395   4.903  17.241  0.00  0.00    +0.000 A 
ATOM     15 CL   UNL     1       4.210   4.443  16.067  0.00  0.00    +0.000 Cl
ENDBRANCH   6   9
BRANCH   7  16
ATOM     16  N   UNL     1       2.945   6.069  20.342  0.00  0.00    +0.000 N 
ATOM     17  H   UNL     1       3.268   6.239  21.288  0.00  0.00    +0.000 HD
BRANCH  16  18
ATOM     18  C   UNL     1       2.375   7.156  19.660  0.00  0.00    +0.000 A 
ATOM     19  C   UNL     1       2.631   7.417  18.305  0.00  0.00    +0.000 A 
ATOM     20  C   UNL     1       2.107   8.548  17.672  0.00  0.00    +0.000 A 
ATOM     21  C   UNL     1       1.319   9.444  18.390  0.00  0.00    +0.000 A 
ATOM     22  C   UNL     1       1.047   9.194  19.732  0.00  0.00    +0.000 A 
ATOM     23 CL   UNL     1       0.082  10.303  20.626  0.00  0.00    +0.000 Cl
ATOM     24  C   UNL     1       1.567   8.061  20.363  0.00  0.00    +0.000 A 
ENDBRANCH  16  18
ENDBRANCH   7  16
TORSDOF 3
ENDMDL
MODEL 8
REMARK VINA RESULT:      -7.3      2.212      5.024
REMARK  Name = 
REMARK  3 active torsions:
REMARK  status: ('A' for Active; 'I' for Inactive)
REMARK    1  A    between atoms: C_6  and  C_7
REMARK    2  A    between atoms: C_14  and  N_15
REMARK    3  A    between atoms: N_15  and  C_16
REMARK                            x       y       z     vdW  Elec       q    Type
REMARK                         _______ _______ _______ _____ _____    ______ ____
ROOT
ATOM      1  O   UNL     1       1.467   3.330  18.717  0.00  0.00    +0.000 OA
ATOM      2  C   UNL     1       2.567   3.613  18.290  0.00  0.00    +0.000 C 
ATOM      3  N   UNL     1       3.171   3.079  17.203  0.00  0.00    +0.000 N 
ATOM      4  C   UNL     1       4.344   3.692  16.949  0.00  0.00    +0.000 C 
ATOM      5  O   UNL     1       5.067   3.516  15.987  0.00  0.00    +0.000 OA
ATOM      6  C   UNL     1       4.572   4.664  18.034  0.00  0.00    +0.000 C 
ATOM      7  C   UNL     1       3.501   4.641  18.844  0.00  0.00    +0.000 C 
ATOM      8  H   UNL     1       2.748   2.392  16.600  0.00  0.00    +0.000 HD
ENDROOT
BRANCH   6   9
ATOM      9  C   UNL     1       5.745   5.523  18.161  0.00  0.00    +0.000 A 
ATOM     10  C   UNL     1       6.675   5.249  19.173  0.00  0.00    +0.000 A 
ATOM     11  C   UNL     1       7.831   6.020  19.307  0.00  0.00    +0.000 A 
ATOM     12  C   UNL     1       8.074   7.073  18.428  0.00  0.00    +0.000 A 
ATOM     13  C   UNL     1       7.152   7.366  17.423  0.00  0.00    +0.000 A 
ATOM     14  C   UNL     1       5.988   6.599  17.293  0.00  0.00    +0.000 A 
ATOM     15 CL   UNL     1       4.875   7.033  16.041  0.00  0.00    +0.000 Cl
ENDBRANCH   6   9
BRANCH   7  16
ATOM     16  N   UNL     1       3.214   5.395  19.952  0.00  0.00    +0.000 N 
ATOM     17  H   UNL     1       3.458   4.983  20.845  0.00  0.00    +0.000 HD
BRANCH  16  18
ATOM     18  C   UNL     1       2.526   6.618  19.981  0.00  0.00    +0.000 A 
ATOM     19  C   UNL     1       1.720   7.006  21.063  0.00  0.00    +0.000 A 
ATOM     20  C   UNL     1       0.988   8.197  21.031  0.00  0.00    +0.000 A 
ATOM     21  C   UNL     1       1.047   9.020  19.909  0.00  0.00    +0.000 A 
ATOM     22  C   UNL     1       1.850   8.654  18.833  0.00  0.00    +0.000 A 
ATOM     23 CL   UNL     1       1.919   9.662  17.440  0.00  0.00    +0.000 Cl
ATOM     24  C   UNL     1       2.585   7.466  18.866  0.00  0.00    +0.000 A 
ENDBRANCH  16  18
ENDBRANCH   7  16
TORSDOF 3
ENDMDL
MODEL 9
REMARK VINA RESULT:      -7.1      2.845      5.666
REMARK  Name = 
REMARK  3 active torsions:
REMARK  status: ('A' for Active; 'I' for Inactive)
REMARK    1  A    between atoms: C_6  and  C_7
REMARK    2  A    between atoms: C_14  and  N_15
REMARK    3  A    between atoms: N_15  and  C_16
REMARK                            x       y       z     vdW  Elec       q    Type
REMARK                         _______ _______ _______ _____ _____    ______ ____
ROOT
ATOM      1  O   UNL     1       5.292   7.644  16.856  0.00  0.00    +0.000 OA
ATOM      2  C   UNL     1       5.092   6.649  17.521  0.00  0.00    +0.000 C 
ATOM      3  N   UNL     1       6.031   5.795  17.994  0.00  0.00    +0.000 N 
ATOM      4  C   UNL     1       5.475   4.853  18.783  0.00  0.00    +0.000 C 
ATOM      5  O   UNL     1       6.060   4.013  19.439  0.00  0.00    +0.000 OA
ATOM      6  C   UNL     1       4.016   5.059  18.747  0.00  0.00    +0.000 C 
ATOM      7  C   UNL     1       3.768   6.149  18.003  0.00  0.00    +0.000 C 
ATOM      8  H   UNL     1       7.022   5.914  17.866  0.00  0.00    +0.000 HD
ENDROOT
BRANCH   6   9
ATOM      9  C   UNL     1       3.033   4.235  19.443  0.00  0.00    +0.000 A 
ATOM     10  C   UNL     1       2.823   4.451  20.812  0.00  0.00    +0.000 A 
ATOM     11  C   UNL     1       1.865   3.712  21.510  0.00  0.00    +0.000 A 
ATOM     12  C   UNL     1       1.103   2.752  20.849  0.00  0.00    +0.000 A 
ATOM     13  C   UNL     1       1.310   2.518  19.489  0.00  0.00    +0.000 A 
ATOM     14  C   UNL     1       2.275   3.251  18.789  0.00  0.00    +0.000 A 
ATOM     15 CL   UNL     1       2.497   2.893  17.111  0.00  0.00    +0.000 Cl
ENDBRANCH   6   9
BRANCH   7  16
ATOM     16  N   UNL     1       2.583   6.774  17.717  0.00  0.00    +0.000 N 
ATOM     17  H   UNL     1       2.097   6.452  16.889  0.00  0.00    +0.000 HD
BRANCH  16  18
ATOM     18  C   UNL     1       2.032   7.878  18.389  0.00  0.00    +0.000 A 
ATOM     19  C   UNL     1       1.735   9.086  17.740  0.00  0.00    +0.000 A 
ATOM     20  C   UNL     1       1.256  10.192  18.449  0.00  0.00    +0.000 A 
ATOM     21  C   UNL     1       1.072  10.108  19.826  0.00  0.00    +0.000 A 
ATOM     22  C   UNL     1       1.352   8.913  20.483  0.00  0.00    +0.000 A 
ATOM     23 CL   UNL     1       1.135   8.806  22.187  0.00  0.00    +0.000 Cl
ATOM     24  C   UNL     1       1.826   7.807  19.773  0.00  0.00    +0.000 A 
ENDBRANCH  16  18
ENDBRANCH   7  16
TORSDOF 3
ENDMDL
