MODEL 1
REMARK VINA RESULT:      -8.1      0.000      0.000
REMARK  Name = 
REMARK  10 active torsions:
REMARK  status: ('A' for Active; 'I' for Inactive)
REMARK    1  A    between atoms: C_1  and  O_2
REMARK    2  A    between atoms: O_2  and  C_3
REMARK    3  A    between atoms: C_6  and  C_7
REMARK    4  A    between atoms: N_12  and  C_13
REMARK    5  A    between atoms: C_13  and  C_14
REMARK    6  A    between atoms: N_16  and  C_17
REMARK    7  A    between atoms: C_20  and  O_21
REMARK    8  A    between atoms: O_21  and  C_22
REMARK    9  A    between atoms: C_23  and  O_24
REMARK   10  A    between atoms: O_24  and  C_25
REMARK                            x       y       z     vdW  Elec       q    Type
REMARK                         _______ _______ _______ _____ _____    ______ ____
ROOT
ATOM      1  C   UNL     1       2.955   6.909  18.296  0.00  0.00    +0.000 A 
ATOM      2  C   UNL     1       2.360   8.128  17.879  0.00  0.00    +0.000 A 
ATOM      3  C   UNL     1       1.699   8.597  18.984  0.00  0.00    +0.000 A 
ATOM      4  C   UNL     1       0.950   9.774  19.265  0.00  0.00    +0.000 A 
ATOM      5  N   UNL     1       0.707  10.770  18.461  0.00  0.00    +0.000 NA
ATOM      6  N   UNL     1      -0.052  11.625  19.242  0.00  0.00    +0.000 N 
ATOM      7  C   UNL     1      -0.229  11.103  20.537  0.00  0.00    +0.000 A 
ATOM      8  O   UNL     1      -0.839  11.615  21.461  0.00  0.00    +0.000 OA
ATOM      9  N   UNL     1       0.434   9.899  20.519  0.00  0.00    +0.000 N 
ATOM     10  C   UNL     1       0.589   8.967  21.518  0.00  0.00    +0.000 A 
ATOM     11  C   UNL     1       1.296   7.853  21.253  0.00  0.00    +0.000 A 
ATOM     12  N   UNL     1       1.864   7.656  19.988  0.00  0.00    +0.000 N 
ATOM     13  N   UNL     1       2.630   6.627  19.570  0.00  0.00    +0.000 NA
ENDROOT
BRANCH   1  17
ATOM     14  C   UNL     1       5.505   4.420  15.920  0.00  0.00    +0.000 A 
ATOM     15  C   UNL     1       5.642   5.807  15.893  0.00  0.00    +0.000 A 
ATOM     16  C   UNL     1       4.834   6.619  16.696  0.00  0.00    +0.000 A 
ATOM     17  C   UNL     1       3.855   6.052  17.521  0.00  0.00    +0.000 A 
ATOM     18  C   UNL     1       3.724   4.656  17.544  0.00  0.00    +0.000 A 
ATOM     19  C   UNL     1       4.543   3.844  16.748  0.00  0.00    +0.000 A 
BRANCH  14  21
ATOM     20  C   UNL     1       6.073   3.913  13.679  0.00  0.00    +0.000 C 
ATOM     21  O   UNL     1       6.330   3.739  15.068  0.00  0.00    +0.000 OA
ENDBRANCH  14  21
ENDBRANCH   1  17
BRANCH   6  22
ATOM     22  C   UNL     1      -0.670  12.827  18.735  0.00  0.00    +0.000 C 
BRANCH  22  23
ATOM     23  C   UNL     1       0.238  14.052  18.775  0.00  0.00    +0.000 C 
ATOM     24  O   UNL     1      -0.228  15.175  18.579  0.00  0.00    +0.000 OA
ATOM     25  N   UNL     1       1.589  13.773  18.897  0.00  0.00    +0.000 N 
ATOM     26  H   UNL     1       1.859  12.831  18.632  0.00  0.00    +0.000 HD
BRANCH  25  27
ATOM     27  C   UNL     1       2.583  14.769  18.924  0.00  0.00    +0.000 A 
ATOM     28  C   UNL     1       3.174  15.252  17.762  0.00  0.00    +0.000 A 
ATOM     29  C   UNL     1       4.177  16.219  17.846  0.00  0.00    +0.000 A 
ATOM     30  C   UNL     1       4.626  16.690  19.089  0.00  0.00    +0.000 A 
ATOM     31  C   UNL     1       4.038  16.196  20.269  0.00  0.00    +0.000 A 
ATOM     32  C   UNL     1       2.983  15.270  20.165  0.00  0.00    +0.000 A 
BRANCH  30  33
ATOM     33  O   UNL     1       5.632  17.615  18.950  0.00  0.00    +0.000 OA
ATOM     34  C   UNL     1       6.981  17.172  18.971  0.00  0.00    +0.000 C 
ENDBRANCH  30  33
BRANCH  31  35
ATOM     35  O   UNL     1       4.528  16.623  21.471  0.00  0.00    +0.000 OA
ATOM     36  C   UNL     1       5.338  15.730  22.224  0.00  0.00    +0.000 C 
ENDBRANCH  31  35
ENDBRANCH  25  27
ENDBRANCH  22  23
ENDBRANCH   6  22
TORSDOF 7
ENDMDL
MODEL 2
REMARK VINA RESULT:      -8.0      0.889      1.392
REMARK  Name = 
REMARK  10 active torsions:
REMARK  status: ('A' for Active; 'I' for Inactive)
REMARK    1  A    between atoms: C_1  and  O_2
REMARK    2  A    between atoms: O_2  and  C_3
REMARK    3  A    between atoms: C_6  and  C_7
REMARK    4  A    between atoms: N_12  and  C_13
REMARK    5  A    between atoms: C_13  and  C_14
REMARK    6  A    between atoms: N_16  and  C_17
REMARK    7  A    between atoms: C_20  and  O_21
REMARK    8  A    between atoms: O_21  and  C_22
REMARK    9  A    between atoms: C_23  and  O_24
REMARK   10  A    between atoms: O_24  and  C_25
REMARK                            x       y       z     vdW  Elec       q    Type
REMARK                         _______ _______ _______ _____ _____    ______ ____
ROOT
ATOM      1  C   UNL     1       2.764   7.062  18.480  0.00  0.00    +0.000 A 
ATOM      2  C   UNL     1       2.242   8.309  18.049  0.00  0.00    +0.000 A 
ATOM      3  C   UNL     1       1.591   8.819  19.143  0.00  0.00    +0.000 A 
ATOM      4  C   UNL     1       0.903  10.036  19.407  0.00  0.00    +0.000 A 
ATOM      5  N   UNL     1       0.726  11.040  18.596  0.00  0.00    +0.000 NA
ATOM      6  N   UNL     1       0.002  11.938  19.363  0.00  0.00    +0.000 N 
ATOM      7  C   UNL     1      -0.221  11.432  20.657  0.00  0.00    +0.000 A 
ATOM      8  O   UNL     1      -0.816  11.981  21.570  0.00  0.00    +0.000 OA
ATOM      9  N   UNL     1       0.376  10.194  20.654  0.00  0.00    +0.000 N 
ATOM     10  C   UNL     1       0.466   9.261  21.658  0.00  0.00    +0.000 A 
ATOM     11  C   UNL     1       1.116   8.108  21.409  0.00  0.00    +0.000 A 
ATOM     12  N   UNL     1       1.691   7.875  20.153  0.00  0.00    +0.000 N 
ATOM     13  N   UNL     1       2.406   6.804  19.750  0.00  0.00    +0.000 NA
ENDROOT
BRANCH   1  17
ATOM     14  C   UNL     1       5.216   4.434  16.150  0.00  0.00    +0.000 A 
ATOM     15  C   UNL     1       5.470   5.806  16.175  0.00  0.00    +0.000 A 
ATOM     16  C   UNL     1       4.692   6.659  16.964  0.00  0.00    +0.000 A 
ATOM     17  C   UNL     1       3.628   6.154  17.722  0.00  0.00    +0.000 A 
ATOM     18  C   UNL     1       3.380   4.775  17.693  0.00  0.00    +0.000 A 
ATOM     19  C   UNL     1       4.168   3.919  16.912  0.00  0.00    +0.000 A 
BRANCH  14  21
ATOM     20  C   UNL     1       5.998   4.083  13.944  0.00  0.00    +0.000 C 
ATOM     21  O   UNL     1       6.023   3.710  15.318  0.00  0.00    +0.000 OA
ENDBRANCH  14  21
ENDBRANCH   1  17
BRANCH   6  22
ATOM     22  C   UNL     1      -0.543  13.169  18.841  0.00  0.00    +0.000 C 
BRANCH  22  23
ATOM     23  C   UNL     1       0.450  14.328  18.831  0.00  0.00    +0.000 C 
ATOM     24  O   UNL     1       0.095  15.443  18.448  0.00  0.00    +0.000 OA
ATOM     25  N   UNL     1       1.755  13.980  19.135  0.00  0.00    +0.000 N 
ATOM     26  H   UNL     1       1.976  12.996  19.019  0.00  0.00    +0.000 HD
BRANCH  25  27
ATOM     27  C   UNL     1       2.816  14.905  19.149  0.00  0.00    +0.000 A 
ATOM     28  C   UNL     1       2.745  16.097  19.861  0.00  0.00    +0.000 A 
ATOM     29  C   UNL     1       3.814  16.994  19.818  0.00  0.00    +0.000 A 
ATOM     30  C   UNL     1       4.949  16.729  19.037  0.00  0.00    +0.000 A 
ATOM     31  C   UNL     1       5.022  15.528  18.306  0.00  0.00    +0.000 A 
ATOM     32  C   UNL     1       3.964  14.605  18.413  0.00  0.00    +0.000 A 
BRANCH  30  33
ATOM     33  O   UNL     1       5.868  17.747  19.113  0.00  0.00    +0.000 OA
ATOM     34  C   UNL     1       6.938  17.641  20.040  0.00  0.00    +0.000 C 
ENDBRANCH  30  33
BRANCH  31  35
ATOM     35  O   UNL     1       6.108  15.315  17.506  0.00  0.00    +0.000 OA
ATOM     36  C   UNL     1       7.063  14.341  17.910  0.00  0.00    +0.000 C 
ENDBRANCH  31  35
ENDBRANCH  25  27
ENDBRANCH  22  23
ENDBRANCH   6  22
TORSDOF 7
ENDMDL
MODEL 3
REMARK VINA RESULT:      -7.7      3.779      6.282
REMARK  Name = 
REMARK  10 active torsions:
REMARK  status: ('A' for Active; 'I' for Inactive)
REMARK    1  A    between atoms: C_1  and  O_2
REMARK    2  A    between atoms: O_2  and  C_3
REMARK    3  A    between atoms: C_6  and  C_7
REMARK    4  A    between atoms: N_12  and  C_13
REMARK    5  A    between atoms: C_13  and  C_14
REMARK    6  A    between atoms: N_16  and  C_17
REMARK    7  A    between atoms: C_20  and  O_21
REMARK    8  A    between atoms: O_21  and  C_22
REMARK    9  A    between atoms: C_23  and  O_24
REMARK   10  A    between atoms: O_24  and  C_25
REMARK                            x       y       z     vdW  Elec       q    Type
REMARK                         _______ _______ _______ _____ _____    ______ ____
ROOT
ATOM      1  C   UNL     1       3.094   6.796  18.211  0.00  0.00    +0.000 A 
ATOM      2  C   UNL     1       2.411   7.975  17.814  0.00  0.00    +0.000 A 
ATOM      3  C   UNL     1       1.804   8.435  18.954  0.00  0.00    +0.000 A 
ATOM      4  C   UNL     1       1.018   9.580  19.264  0.00  0.00    +0.000 A 
ATOM      5  N   UNL     1       0.670  10.545  18.462  0.00  0.00    +0.000 NA
ATOM      6  N   UNL     1      -0.076  11.378  19.278  0.00  0.00    +0.000 N 
ATOM      7  C   UNL     1      -0.136  10.876  20.591  0.00  0.00    +0.000 A 
ATOM      8  O   UNL     1      -0.707  11.378  21.546  0.00  0.00    +0.000 OA
ATOM      9  N   UNL     1       0.584   9.707  20.550  0.00  0.00    +0.000 N 
ATOM     10  C   UNL     1       0.854   8.806  21.552  0.00  0.00    +0.000 A 
ATOM     11  C   UNL     1       1.597   7.722  21.259  0.00  0.00    +0.000 A 
ATOM     12  N   UNL     1       2.086   7.526  19.961  0.00  0.00    +0.000 N 
ATOM     13  N   UNL     1       2.873   6.526  19.510  0.00  0.00    +0.000 NA
ENDROOT
BRANCH   1  17
ATOM     14  C   UNL     1       5.592   4.372  15.715  0.00  0.00    +0.000 A 
ATOM     15  C   UNL     1       5.564   5.758  15.560  0.00  0.00    +0.000 A 
ATOM     16  C   UNL     1       4.777   6.553  16.399  0.00  0.00    +0.000 A 
ATOM     17  C   UNL     1       3.981   5.968  17.391  0.00  0.00    +0.000 A 
ATOM     18  C   UNL     1       4.014   4.574  17.542  0.00  0.00    +0.000 A 
ATOM     19  C   UNL     1       4.814   3.780  16.709  0.00  0.00    +0.000 A 
BRANCH  14  21
ATOM     20  C   UNL     1       6.055   3.900  13.443  0.00  0.00    +0.000 C 
ATOM     21  O   UNL     1       6.374   3.703  14.816  0.00  0.00    +0.000 OA
ENDBRANCH  14  21
ENDBRANCH   1  17
BRANCH   6  22
ATOM     22  C   UNL     1      -0.788  12.537  18.793  0.00  0.00    +0.000 C 
BRANCH  22  23
ATOM     23  C   UNL     1      -2.256  12.577  19.206  0.00  0.00    +0.000 C 
ATOM     24  O   UNL     1      -3.093  11.928  18.579  0.00  0.00    +0.000 OA
ATOM     25  N   UNL     1      -2.555  13.485  20.208  0.00  0.00    +0.000 N 
ATOM     26  H   UNL     1      -1.873  14.226  20.334  0.00  0.00    +0.000 HD
BRANCH  25  27
ATOM     27  C   UNL     1      -3.857  13.685  20.703  0.00  0.00    +0.000 A 
ATOM     28  C   UNL     1      -4.333  14.948  21.035  0.00  0.00    +0.000 A 
ATOM     29  C   UNL     1      -5.623  15.089  21.550  0.00  0.00    +0.000 A 
ATOM     30  C   UNL     1      -6.438  13.969  21.774  0.00  0.00    +0.000 A 
ATOM     31  C   UNL     1      -5.957  12.687  21.449  0.00  0.00    +0.000 A 
ATOM     32  C   UNL     1      -4.680  12.569  20.869  0.00  0.00    +0.000 A 
BRANCH  30  33
ATOM     33  O   UNL     1      -7.653  14.323  22.308  0.00  0.00    +0.000 OA
ATOM     34  C   UNL     1      -7.917  14.029  23.672  0.00  0.00    +0.000 C 
ENDBRANCH  30  33
BRANCH  31  35
ATOM     35  O   UNL     1      -6.743  11.605  21.728  0.00  0.00    +0.000 OA
ATOM     36  C   UNL     1      -7.391  10.945  20.648  0.00  0.00    +0.000 C 
ENDBRANCH  31  35
ENDBRANCH  25  27
ENDBRANCH  22  23
ENDBRANCH   6  22
TORSDOF 7
ENDMDL
MODEL 4
REMARK VINA RESULT:      -7.6      1.185      1.827
REMARK  Name = 
REMARK  10 active torsions:
REMARK  status: ('A' for Active; 'I' for Inactive)
REMARK    1  A    between atoms: C_1  and  O_2
REMARK    2  A    between atoms: O_2  and  C_3
REMARK    3  A    between atoms: C_6  and  C_7
REMARK    4  A    between atoms: N_12  and  C_13
REMARK    5  A    between atoms: C_13  and  C_14
REMARK    6  A    between atoms: N_16  and  C_17
REMARK    7  A    between atoms: C_20  and  O_21
REMARK    8  A    between atoms: O_21  and  C_22
REMARK    9  A    between atoms: C_23  and  O_24
REMARK   10  A    between atoms: O_24  and  C_25
REMARK                            x       y       z     vdW  Elec       q    Type
REMARK                         _______ _______ _______ _____ _____    ______ ____
ROOT
ATOM      1  C   UNL     1       2.384   7.506  18.826  0.00  0.00    +0.000 A 
ATOM      2  C   UNL     1       1.900   8.796  18.488  0.00  0.00    +0.000 A 
ATOM      3  C   UNL     1       1.278   9.251  19.622  0.00  0.00    +0.000 A 
ATOM      4  C   UNL     1       0.635  10.470  19.977  0.00  0.00    +0.000 A 
ATOM      5  N   UNL     1       0.484  11.532  19.238  0.00  0.00    +0.000 NA
ATOM      6  N   UNL     1      -0.200  12.399  20.073  0.00  0.00    +0.000 N 
ATOM      7  C   UNL     1      -0.427  11.814  21.332  0.00  0.00    +0.000 A 
ATOM      8  O   UNL     1      -0.994  12.319  22.288  0.00  0.00    +0.000 OA
ATOM      9  N   UNL     1       0.127  10.560  21.238  0.00  0.00    +0.000 N 
ATOM     10  C   UNL     1       0.196   9.558  22.175  0.00  0.00    +0.000 A 
ATOM     11  C   UNL     1       0.803   8.404  21.840  0.00  0.00    +0.000 A 
ATOM     12  N   UNL     1       1.356   8.238  20.564  0.00  0.00    +0.000 N 
ATOM     13  N   UNL     1       2.031   7.174  20.080  0.00  0.00    +0.000 NA
ENDROOT
BRANCH   1  17
ATOM     14  C   UNL     1       4.872   4.896  16.514  0.00  0.00    +0.000 A 
ATOM     15  C   UNL     1       3.806   4.388  17.256  0.00  0.00    +0.000 A 
ATOM     16  C   UNL     1       2.971   5.243  17.982  0.00  0.00    +0.000 A 
ATOM     17  C   UNL     1       3.208   6.623  17.997  0.00  0.00    +0.000 A 
ATOM     18  C   UNL     1       4.281   7.128  17.248  0.00  0.00    +0.000 A 
ATOM     19  C   UNL     1       5.109   6.270  16.511  0.00  0.00    +0.000 A 
BRANCH  14  21
ATOM     20  C   UNL     1       6.952   4.360  15.521  0.00  0.00    +0.000 C 
ATOM     21  O   UNL     1       5.633   3.958  15.874  0.00  0.00    +0.000 OA
ENDBRANCH  14  21
ENDBRANCH   1  17
BRANCH   6  22
ATOM     22  C   UNL     1      -0.708  13.681  19.643  0.00  0.00    +0.000 C 
BRANCH  22  23
ATOM     23  C   UNL     1       0.381  14.705  19.337  0.00  0.00    +0.000 C 
ATOM     24  O   UNL     1       0.143  15.657  18.595  0.00  0.00    +0.000 OA
ATOM     25  N   UNL     1       1.635  14.388  19.832  0.00  0.00    +0.000 N 
ATOM     26  H   UNL     1       1.775  13.407  20.052  0.00  0.00    +0.000 HD
BRANCH  25  27
ATOM     27  C   UNL     1       2.770  15.195  19.629  0.00  0.00    +0.000 A 
ATOM     28  C   UNL     1       2.912  16.435  20.242  0.00  0.00    +0.000 A 
ATOM     29  C   UNL     1       4.044  17.209  19.984  0.00  0.00    +0.000 A 
ATOM     30  C   UNL     1       5.030  16.773  19.085  0.00  0.00    +0.000 A 
ATOM     31  C   UNL     1       4.885  15.523  18.454  0.00  0.00    +0.000 A 
ATOM     32  C   UNL     1       3.771  14.726  18.776  0.00  0.00    +0.000 A 
BRANCH  30  33
ATOM     33  O   UNL     1       6.042  17.692  18.955  0.00  0.00    +0.000 OA
ATOM     34  C   UNL     1       6.975  17.842  20.014  0.00  0.00    +0.000 C 
ENDBRANCH  30  33
BRANCH  31  35
ATOM     35  O   UNL     1       5.825  15.141  17.538  0.00  0.00    +0.000 OA
ATOM     36  C   UNL     1       6.984  14.462  18.004  0.00  0.00    +0.000 C 
ENDBRANCH  31  35
ENDBRANCH  25  27
ENDBRANCH  22  23
ENDBRANCH   6  22
TORSDOF 7
ENDMDL
MODEL 5
REMARK VINA RESULT:      -7.5      0.921      1.850
REMARK  Name = 
REMARK  10 active torsions:
REMARK  status: ('A' for Active; 'I' for Inactive)
REMARK    1  A    between atoms: C_1  and  O_2
REMARK    2  A    between atoms: O_2  and  C_3
REMARK    3  A    between atoms: C_6  and  C_7
REMARK    4  A    between atoms: N_12  and  C_13
REMARK    5  A    between atoms: C_13  and  C_14
REMARK    6  A    between atoms: N_16  and  C_17
REMARK    7  A    between atoms: C_20  and  O_21
REMARK    8  A    between atoms: O_21  and  C_22
REMARK    9  A    between atoms: C_23  and  O_24
REMARK   10  A    between atoms: O_24  and  C_25
REMARK                            x       y       z     vdW  Elec       q    Type
REMARK                         _______ _______ _______ _____ _____    ______ ____
ROOT
ATOM      1  C   UNL     1       3.071   6.900  18.157  0.00  0.00    +0.000 A 
ATOM      2  C   UNL     1       2.401   8.125  17.902  0.00  0.00    +0.000 A 
ATOM      3  C   UNL     1       1.763   8.433  19.076  0.00  0.00    +0.000 A 
ATOM      4  C   UNL     1       0.970   9.530  19.514  0.00  0.00    +0.000 A 
ATOM      5  N   UNL     1       0.646  10.594  18.837  0.00  0.00    +0.000 NA
ATOM      6  N   UNL     1      -0.122  11.316  19.736  0.00  0.00    +0.000 N 
ATOM      7  C   UNL     1      -0.219  10.645  20.969  0.00  0.00    +0.000 A 
ATOM      8  O   UNL     1      -0.814  11.018  21.966  0.00  0.00    +0.000 OA
ATOM      9  N   UNL     1       0.501   9.487  20.792  0.00  0.00    +0.000 N 
ATOM     10  C   UNL     1       0.743   8.460  21.673  0.00  0.00    +0.000 A 
ATOM     11  C   UNL     1       1.492   7.421  21.259  0.00  0.00    +0.000 A 
ATOM     12  N   UNL     1       2.016   7.397  19.961  0.00  0.00    +0.000 N 
ATOM     13  N   UNL     1       2.814   6.462  19.402  0.00  0.00    +0.000 NA
ENDROOT
BRANCH   1  17
ATOM     14  C   UNL     1       5.807   4.773  15.640  0.00  0.00    +0.000 A 
ATOM     15  C   UNL     1       4.794   4.096  16.320  0.00  0.00    +0.000 A 
ATOM     16  C   UNL     1       3.879   4.795  17.113  0.00  0.00    +0.000 A 
ATOM     17  C   UNL     1       3.979   6.184  17.258  0.00  0.00    +0.000 A 
ATOM     18  C   UNL     1       4.999   6.858  16.572  0.00  0.00    +0.000 A 
ATOM     19  C   UNL     1       5.908   6.158  15.767  0.00  0.00    +0.000 A 
BRANCH  14  21
ATOM     20  C   UNL     1       6.262   3.684  13.589  0.00  0.00    +0.000 C 
ATOM     21  O   UNL     1       6.657   3.978  14.924  0.00  0.00    +0.000 OA
ENDBRANCH  14  21
ENDBRANCH   1  17
BRANCH   6  22
ATOM     22  C   UNL     1      -0.819  12.532  19.390  0.00  0.00    +0.000 C 
BRANCH  22  23
ATOM     23  C   UNL     1       0.070  13.772  19.385  0.00  0.00    +0.000 C 
ATOM     24  O   UNL     1      -0.435  14.895  19.369  0.00  0.00    +0.000 OA
ATOM     25  N   UNL     1       1.425  13.518  19.254  0.00  0.00    +0.000 N 
ATOM     26  H   UNL     1       1.656  12.609  18.866  0.00  0.00    +0.000 HD
BRANCH  25  27
ATOM     27  C   UNL     1       2.398  14.534  19.202  0.00  0.00    +0.000 A 
ATOM     28  C   UNL     1       3.424  14.620  20.136  0.00  0.00    +0.000 A 
ATOM     29  C   UNL     1       4.347  15.664  20.057  0.00  0.00    +0.000 A 
ATOM     30  C   UNL     1       4.236  16.654  19.068  0.00  0.00    +0.000 A 
ATOM     31  C   UNL     1       3.192  16.577  18.126  0.00  0.00    +0.000 A 
ATOM     32  C   UNL     1       2.310  15.482  18.180  0.00  0.00    +0.000 A 
BRANCH  30  33
ATOM     33  O   UNL     1       5.224  17.600  19.183  0.00  0.00    +0.000 OA
ATOM     34  C   UNL     1       6.559  17.244  18.857  0.00  0.00    +0.000 C 
ENDBRANCH  30  33
BRANCH  31  35
ATOM     35  O   UNL     1       3.066  17.581  17.208  0.00  0.00    +0.000 OA
ATOM     36  C   UNL     1       1.760  17.938  16.774  0.00  0.00    +0.000 C 
ENDBRANCH  31  35
ENDBRANCH  25  27
ENDBRANCH  22  23
ENDBRANCH   6  22
TORSDOF 7
ENDMDL
MODEL 6
REMARK VINA RESULT:      -7.3      0.906      1.261
REMARK  Name = 
REMARK  10 active torsions:
REMARK  status: ('A' for Active; 'I' for Inactive)
REMARK    1  A    between atoms: C_1  and  O_2
REMARK    2  A    between atoms: O_2  and  C_3
REMARK    3  A    between atoms: C_6  and  C_7
REMARK    4  A    between atoms: N_12  and  C_13
REMARK    5  A    between atoms: C_13  and  C_14
REMARK    6  A    between atoms: N_16  and  C_17
REMARK    7  A    between atoms: C_20  and  O_21
REMARK    8  A    between atoms: O_21  and  C_22
REMARK    9  A    between atoms: C_23  and  O_24
REMARK   10  A    between atoms: O_24  and  C_25
REMARK                            x       y       z     vdW  Elec       q    Type
REMARK                         _______ _______ _______ _____ _____    ______ ____
ROOT
ATOM      1  C   UNL     1       2.856   7.067  18.274  0.00  0.00    +0.000 A 
ATOM      2  C   UNL     1       2.265   8.309  17.925  0.00  0.00    +0.000 A 
ATOM      3  C   UNL     1       1.642   8.740  19.068  0.00  0.00    +0.000 A 
ATOM      4  C   UNL     1       0.916   9.913  19.418  0.00  0.00    +0.000 A 
ATOM      5  N   UNL     1       0.663  10.944  18.664  0.00  0.00    +0.000 NA
ATOM      6  N   UNL     1      -0.063  11.774  19.501  0.00  0.00    +0.000 N 
ATOM      7  C   UNL     1      -0.209  11.201  20.778  0.00  0.00    +0.000 A 
ATOM      8  O   UNL     1      -0.786  11.681  21.740  0.00  0.00    +0.000 OA
ATOM      9  N   UNL     1       0.438   9.991  20.691  0.00  0.00    +0.000 N 
ATOM     10  C   UNL     1       0.610   9.017  21.646  0.00  0.00    +0.000 A 
ATOM     11  C   UNL     1       1.295   7.906  21.315  0.00  0.00    +0.000 A 
ATOM     12  N   UNL     1       1.824   7.756  20.027  0.00  0.00    +0.000 N 
ATOM     13  N   UNL     1       2.565   6.736  19.544  0.00  0.00    +0.000 NA
ENDROOT
BRANCH   1  17
ATOM     14  C   UNL     1       5.472   4.604  15.943  0.00  0.00    +0.000 A 
ATOM     15  C   UNL     1       4.452   4.035  16.704  0.00  0.00    +0.000 A 
ATOM     16  C   UNL     1       3.575   4.840  17.436  0.00  0.00    +0.000 A 
ATOM     17  C   UNL     1       3.723   6.233  17.439  0.00  0.00    +0.000 A 
ATOM     18  C   UNL     1       4.750   6.799  16.670  0.00  0.00    +0.000 A 
ATOM     19  C   UNL     1       5.620   5.991  15.926  0.00  0.00    +0.000 A 
BRANCH  14  21
ATOM     20  C   UNL     1       6.283   3.784  13.876  0.00  0.00    +0.000 C 
ATOM     21  O   UNL     1       6.282   3.712  15.297  0.00  0.00    +0.000 OA
ENDBRANCH  14  21
ENDBRANCH   1  17
BRANCH   6  22
ATOM     22  C   UNL     1      -0.681  13.003  19.062  0.00  0.00    +0.000 C 
BRANCH  22  23
ATOM     23  C   UNL     1       0.210  14.232  19.221  0.00  0.00    +0.000 C 
ATOM     24  O   UNL     1      -0.277  15.361  19.156  0.00  0.00    +0.000 OA
ATOM     25  N   UNL     1       1.566  13.964  19.290  0.00  0.00    +0.000 N 
ATOM     26  H   UNL     1       1.846  13.061  18.920  0.00  0.00    +0.000 HD
BRANCH  25  27
ATOM     27  C   UNL     1       2.545  14.968  19.410  0.00  0.00    +0.000 A 
ATOM     28  C   UNL     1       2.244  16.315  19.243  0.00  0.00    +0.000 A 
ATOM     29  C   UNL     1       3.258  17.269  19.342  0.00  0.00    +0.000 A 
ATOM     30  C   UNL     1       4.588  16.889  19.575  0.00  0.00    +0.000 A 
ATOM     31  C   UNL     1       4.901  15.526  19.734  0.00  0.00    +0.000 A 
ATOM     32  C   UNL     1       3.857  14.582  19.697  0.00  0.00    +0.000 A 
BRANCH  30  33
ATOM     33  O   UNL     1       5.429  17.975  19.611  0.00  0.00    +0.000 OA
ATOM     34  C   UNL     1       5.675  18.613  20.855  0.00  0.00    +0.000 C 
ENDBRANCH  30  33
BRANCH  31  35
ATOM     35  O   UNL     1       6.209  15.171  19.901  0.00  0.00    +0.000 OA
ATOM     36  C   UNL     1       6.700  15.005  21.225  0.00  0.00    +0.000 C 
ENDBRANCH  31  35
ENDBRANCH  25  27
ENDBRANCH  22  23
ENDBRANCH   6  22
TORSDOF 7
ENDMDL
MODEL 7
REMARK VINA RESULT:      -7.2      1.358      1.829
REMARK  Name = 
REMARK  10 active torsions:
REMARK  status: ('A' for Active; 'I' for Inactive)
REMARK    1  A    between atoms: C_1  and  O_2
REMARK    2  A    between atoms: O_2  and  C_3
REMARK    3  A    between atoms: C_6  and  C_7
REMARK    4  A    between atoms: N_12  and  C_13
REMARK    5  A    between atoms: C_13  and  C_14
REMARK    6  A    between atoms: N_16  and  C_17
REMARK    7  A    between atoms: C_20  and  O_21
REMARK    8  A    between atoms: O_21  and  C_22
REMARK    9  A    between atoms: C_23  and  O_24
REMARK   10  A    between atoms: O_24  and  C_25
REMARK                            x       y       z     vdW  Elec       q    Type
REMARK                         _______ _______ _______ _____ _____    ______ ____
ROOT
ATOM      1  C   UNL     1       3.334   6.391  18.027  0.00  0.00    +0.000 A 
ATOM      2  C   UNL     1       2.687   7.642  17.856  0.00  0.00    +0.000 A 
ATOM      3  C   UNL     1       2.009   7.855  19.029  0.00  0.00    +0.000 A 
ATOM      4  C   UNL     1       1.212   8.921  19.531  0.00  0.00    +0.000 A 
ATOM      5  N   UNL     1       0.925  10.045  18.939  0.00  0.00    +0.000 NA
ATOM      6  N   UNL     1       0.132  10.695  19.869  0.00  0.00    +0.000 N 
ATOM      7  C   UNL     1      -0.019   9.921  21.034  0.00  0.00    +0.000 A 
ATOM      8  O   UNL     1      -0.648  10.214  22.038  0.00  0.00    +0.000 OA
ATOM      9  N   UNL     1       0.694   8.773  20.783  0.00  0.00    +0.000 N 
ATOM     10  C   UNL     1       0.891   7.670  21.578  0.00  0.00    +0.000 A 
ATOM     11  C   UNL     1       1.644   6.660  21.103  0.00  0.00    +0.000 A 
ATOM     12  N   UNL     1       2.217   6.742  19.828  0.00  0.00    +0.000 N 
ATOM     13  N   UNL     1       3.025   5.849  19.218  0.00  0.00    +0.000 NA
ENDROOT
BRANCH   1  17
ATOM     14  C   UNL     1       5.966   4.494  15.231  0.00  0.00    +0.000 A 
ATOM     15  C   UNL     1       5.804   5.879  15.226  0.00  0.00    +0.000 A 
ATOM     16  C   UNL     1       4.973   6.502  16.162  0.00  0.00    +0.000 A 
ATOM     17  C   UNL     1       4.269   5.742  17.104  0.00  0.00    +0.000 A 
ATOM     18  C   UNL     1       4.437   4.351  17.104  0.00  0.00    +0.000 A 
ATOM     19  C   UNL     1       5.281   3.729  16.173  0.00  0.00    +0.000 A 
BRANCH  14  21
ATOM     20  C   UNL     1       6.122   3.484  13.096  0.00  0.00    +0.000 C 
ATOM     21  O   UNL     1       6.779   4.002  14.248  0.00  0.00    +0.000 OA
ENDBRANCH  14  21
ENDBRANCH   1  17
BRANCH   6  22
ATOM     22  C   UNL     1      -0.538  11.947  19.606  0.00  0.00    +0.000 C 
BRANCH  22  23
ATOM     23  C   UNL     1       0.313  13.178  19.907  0.00  0.00    +0.000 C 
ATOM     24  O   UNL     1       0.004  13.932  20.829  0.00  0.00    +0.000 OA
ATOM     25  N   UNL     1       1.322  13.426  18.992  0.00  0.00    +0.000 N 
ATOM     26  H   UNL     1       1.200  12.985  18.086  0.00  0.00    +0.000 HD
BRANCH  25  27
ATOM     27  C   UNL     1       2.193  14.528  19.086  0.00  0.00    +0.000 A 
ATOM     28  C   UNL     1       3.464  14.419  19.638  0.00  0.00    +0.000 A 
ATOM     29  C   UNL     1       4.277  15.550  19.734  0.00  0.00    +0.000 A 
ATOM     30  C   UNL     1       3.818  16.808  19.314  0.00  0.00    +0.000 A 
ATOM     31  C   UNL     1       2.528  16.926  18.764  0.00  0.00    +0.000 A 
ATOM     32  C   UNL     1       1.746  15.765  18.614  0.00  0.00    +0.000 A 
BRANCH  30  33
ATOM     33  O   UNL     1       4.759  17.787  19.520  0.00  0.00    +0.000 OA
ATOM     34  C   UNL     1       6.125  17.416  19.632  0.00  0.00    +0.000 C 
ENDBRANCH  30  33
BRANCH  31  35
ATOM     35  O   UNL     1       2.078  18.168  18.416  0.00  0.00    +0.000 OA
ATOM     36  C   UNL     1       1.235  18.285  17.276  0.00  0.00    +0.000 C 
ENDBRANCH  31  35
ENDBRANCH  25  27
ENDBRANCH  22  23
ENDBRANCH   6  22
TORSDOF 7
ENDMDL
MODEL 8
REMARK VINA RESULT:      -7.1      2.840      4.517
REMARK  Name = 
REMARK  10 active torsions:
REMARK  status: ('A' for Active; 'I' for Inactive)
REMARK    1  A    between atoms: C_1  and  O_2
REMARK    2  A    between atoms: O_2  and  C_3
REMARK    3  A    between atoms: C_6  and  C_7
REMARK    4  A    between atoms: N_12  and  C_13
REMARK    5  A    between atoms: C_13  and  C_14
REMARK    6  A    between atoms: N_16  and  C_17
REMARK    7  A    between atoms: C_20  and  O_21
REMARK    8  A    between atoms: O_21  and  C_22
REMARK    9  A    between atoms: C_23  and  O_24
REMARK   10  A    between atoms: O_24  and  C_25
REMARK                            x       y       z     vdW  Elec       q    Type
REMARK                         _______ _______ _______ _____ _____    ______ ____
ROOT
ATOM      1  C   UNL     1       0.843  10.240  19.257  0.00  0.00    +0.000 A 
ATOM      2  C   UNL     1       1.418  11.484  18.891  0.00  0.00    +0.000 A 
ATOM      3  C   UNL     1       0.484  12.425  19.241  0.00  0.00    +0.000 A 
ATOM      4  C   UNL     1       0.445  13.846  19.194  0.00  0.00    +0.000 A 
ATOM      5  N   UNL     1       1.379  14.653  18.777  0.00  0.00    +0.000 NA
ATOM      6  N   UNL     1       0.814  15.904  18.954  0.00  0.00    +0.000 N 
ATOM      7  C   UNL     1      -0.476  15.803  19.508  0.00  0.00    +0.000 A 
ATOM      8  O   UNL     1      -1.230  16.719  19.791  0.00  0.00    +0.000 OA
ATOM      9  N   UNL     1      -0.686  14.452  19.652  0.00  0.00    +0.000 N 
ATOM     10  C   UNL     1      -1.779  13.782  20.147  0.00  0.00    +0.000 A 
ATOM     11  C   UNL     1      -1.744  12.437  20.190  0.00  0.00    +0.000 A 
ATOM     12  N   UNL     1      -0.612  11.743  19.744  0.00  0.00    +0.000 N 
ATOM     13  N   UNL     1      -0.394  10.410  19.755  0.00  0.00    +0.000 NA
ENDROOT
BRANCH   1  17
ATOM     14  C   UNL     1       2.793   6.429  19.104  0.00  0.00    +0.000 A 
ATOM     15  C   UNL     1       2.157   6.855  20.270  0.00  0.00    +0.000 A 
ATOM     16  C   UNL     1       1.489   8.083  20.309  0.00  0.00    +0.000 A 
ATOM     17  C   UNL     1       1.470   8.918  19.185  0.00  0.00    +0.000 A 
ATOM     18  C   UNL     1       2.110   8.484  18.016  0.00  0.00    +0.000 A 
ATOM     19  C   UNL     1       2.768   7.246  17.974  0.00  0.00    +0.000 A 
BRANCH  14  21
ATOM     20  C   UNL     1       2.755   4.210  19.925  0.00  0.00    +0.000 C 
ATOM     21  O   UNL     1       3.437   5.227  19.200  0.00  0.00    +0.000 OA
ENDBRANCH  14  21
ENDBRANCH   1  17
BRANCH   6  22
ATOM     22  C   UNL     1       1.438  17.128  18.508  0.00  0.00    +0.000 C 
BRANCH  22  23
ATOM     23  C   UNL     1       2.863  16.942  17.994  0.00  0.00    +0.000 C 
ATOM     24  O   UNL     1       3.137  17.209  16.824  0.00  0.00    +0.000 OA
ATOM     25  N   UNL     1       3.729  16.335  18.887  0.00  0.00    +0.000 N 
ATOM     26  H   UNL     1       3.282  15.804  19.627  0.00  0.00    +0.000 HD
BRANCH  25  27
ATOM     27  C   UNL     1       5.075  16.054  18.584  0.00  0.00    +0.000 A 
ATOM     28  C   UNL     1       5.459  14.873  17.958  0.00  0.00    +0.000 A 
ATOM     29  C   UNL     1       6.811  14.630  17.707  0.00  0.00    +0.000 A 
ATOM     30  C   UNL     1       7.797  15.545  18.108  0.00  0.00    +0.000 A 
ATOM     31  C   UNL     1       7.414  16.737  18.751  0.00  0.00    +0.000 A 
ATOM     32  C   UNL     1       6.043  16.997  18.938  0.00  0.00    +0.000 A 
BRANCH  30  33
ATOM     33  O   UNL     1       9.058  15.104  17.791  0.00  0.00    +0.000 OA
ATOM     34  C   UNL     1       9.757  14.291  18.721  0.00  0.00    +0.000 C 
ENDBRANCH  30  33
BRANCH  31  35
ATOM     35  O   UNL     1       8.391  17.587  19.186  0.00  0.00    +0.000 OA
ATOM     36  C   UNL     1       9.019  18.436  18.235  0.00  0.00    +0.000 C 
ENDBRANCH  31  35
ENDBRANCH  25  27
ENDBRANCH  22  23
ENDBRANCH   6  22
TORSDOF 7
ENDMDL
MODEL 9
REMARK VINA RESULT:      -7.0      2.998      4.457
REMARK  Name = 
REMARK  10 active torsions:
REMARK  status: ('A' for Active; 'I' for Inactive)
REMARK    1  A    between atoms: C_1  and  O_2
REMARK    2  A    between atoms: O_2  and  C_3
REMARK    3  A    between atoms: C_6  and  C_7
REMARK    4  A    between atoms: N_12  and  C_13
REMARK    5  A    between atoms: C_13  and  C_14
REMARK    6  A    between atoms: N_16  and  C_17
REMARK    7  A    between atoms: C_20  and  O_21
REMARK    8  A    between atoms: O_21  and  C_22
REMARK    9  A    between atoms: C_23  and  O_24
REMARK   10  A    between atoms: O_24  and  C_25
REMARK                            x       y       z     vdW  Elec       q    Type
REMARK                         _______ _______ _______ _____ _____    ______ ____
ROOT
ATOM      1  C   UNL     1       2.013   8.720  18.025  0.00  0.00    +0.000 A 
ATOM      2  C   UNL     1       2.767   9.919  17.950  0.00  0.00    +0.000 A 
ATOM      3  C   UNL     1       1.869  10.921  18.212  0.00  0.00    +0.000 A 
ATOM      4  C   UNL     1       1.973  12.335  18.340  0.00  0.00    +0.000 A 
ATOM      5  N   UNL     1       3.047  13.065  18.236  0.00  0.00    +0.000 NA
ATOM      6  N   UNL     1       2.574  14.349  18.448  0.00  0.00    +0.000 N 
ATOM      7  C   UNL     1       1.190  14.343  18.699  0.00  0.00    +0.000 A 
ATOM      8  O   UNL     1       0.479  15.306  18.931  0.00  0.00    +0.000 OA
ATOM      9  N   UNL     1       0.829  13.019  18.622  0.00  0.00    +0.000 N 
ATOM     10  C   UNL     1      -0.404  12.434  18.786  0.00  0.00    +0.000 A 
ATOM     11  C   UNL     1      -0.503  11.097  18.663  0.00  0.00    +0.000 A 
ATOM     12  N   UNL     1       0.630  10.324  18.382  0.00  0.00    +0.000 N 
ATOM     13  N   UNL     1       0.717   8.982  18.269  0.00  0.00    +0.000 NA
ENDROOT
BRANCH   1  17
ATOM     14  C   UNL     1       3.458   4.713  17.580  0.00  0.00    +0.000 A 
ATOM     15  C   UNL     1       4.295   5.801  17.335  0.00  0.00    +0.000 A 
ATOM     16  C   UNL     1       3.835   7.109  17.515  0.00  0.00    +0.000 A 
ATOM     17  C   UNL     1       2.516   7.348  17.920  0.00  0.00    +0.000 A 
ATOM     18  C   UNL     1       1.680   6.250  18.166  0.00  0.00    +0.000 A 
ATOM     19  C   UNL     1       2.147   4.939  17.997  0.00  0.00    +0.000 A 
BRANCH  14  21
ATOM     20  C   UNL     1       3.950   2.551  18.408  0.00  0.00    +0.000 C 
ATOM     21  O   UNL     1       4.013   3.487  17.338  0.00  0.00    +0.000 OA
ENDBRANCH  14  21
ENDBRANCH   1  17
BRANCH   6  22
ATOM     22  C   UNL     1       3.392  15.530  18.303  0.00  0.00    +0.000 C 
BRANCH  22  23
ATOM     23  C   UNL     1       4.847  15.327  18.715  0.00  0.00    +0.000 C 
ATOM     24  O   UNL     1       5.204  15.574  19.867  0.00  0.00    +0.000 OA
ATOM     25  N   UNL     1       5.706  15.000  17.679  0.00  0.00    +0.000 N 
ATOM     26  H   UNL     1       5.369  15.237  16.751  0.00  0.00    +0.000 HD
BRANCH  25  27
ATOM     27  C   UNL     1       7.088  14.801  17.857  0.00  0.00    +0.000 A 
ATOM     28  C   UNL     1       7.955  15.853  18.127  0.00  0.00    +0.000 A 
ATOM     29  C   UNL     1       9.322  15.605  18.265  0.00  0.00    +0.000 A 
ATOM     30  C   UNL     1       9.843  14.313  18.101  0.00  0.00    +0.000 A 
ATOM     31  C   UNL     1       8.970  13.246  17.817  0.00  0.00    +0.000 A 
ATOM     32  C   UNL     1       7.588  13.502  17.746  0.00  0.00    +0.000 A 
BRANCH  30  33
ATOM     33  O   UNL     1      11.208  14.292  18.252  0.00  0.00    +0.000 OA
ATOM     34  C   UNL     1      12.022  14.838  17.225  0.00  0.00    +0.000 C 
ENDBRANCH  30  33
BRANCH  31  35
ATOM     35  O   UNL     1       9.502  12.006  17.603  0.00  0.00    +0.000 OA
ATOM     36  C   UNL     1       9.227  10.981  18.549  0.00  0.00    +0.000 C 
ENDBRANCH  31  35
ENDBRANCH  25  27
ENDBRANCH  22  23
ENDBRANCH   6  22
TORSDOF 7
ENDMDL
