MODEL 1
REMARK VINA RESULT:      -5.2      0.000      0.000
REMARK  Name = 
REMARK  4 active torsions:
REMARK  status: ('A' for Active; 'I' for Inactive)
REMARK    1  A    between atoms: N_1  and  O_2
REMARK    2  A    between atoms: O_2  and  C_3
REMARK    3  A    between atoms: C_3  and  C_4
REMARK    4  A    between atoms: C_9  and  O_10
REMARK                            x       y       z     vdW  Elec       q    Type
REMARK                         _______ _______ _______ _____ _____    ______ ____
ROOT
ATOM      1  C   UNL     1       6.312   5.399  17.719  0.00  0.00    +0.000 A 
ATOM      2  C   UNL     1       5.268   6.056  17.045  0.00  0.00    +0.000 A 
ATOM      3  C   UNL     1       5.129   5.944  15.659  0.00  0.00    +0.000 A 
ATOM      4  C   UNL     1       6.032   5.174  14.929  0.00  0.00    +0.000 A 
ATOM      5  C   UNL     1       7.072   4.515  15.582  0.00  0.00    +0.000 A 
ATOM      6  C   UNL     1       7.208   4.633  16.966  0.00  0.00    +0.000 A 
ENDROOT
BRANCH   6   7
ATOM      7  O   UNL     1       8.237   3.998  17.602  0.00  0.00    +0.000 OA
ATOM      8  H   UNL     1       7.874   3.280  18.147  0.00  0.00    +0.000 HD
ENDBRANCH   6   7
BRANCH   1   9
ATOM      9  C   UNL     1       6.468   5.573  19.210  0.00  0.00    +0.000 C 
BRANCH   9  10
ATOM     10  O   UNL     1       7.808   5.998  19.509  0.00  0.00    +0.000 OA
BRANCH  10  11
ATOM     11  N   UNL     1       8.286   5.262  20.678  0.00  0.00    +0.000 NA
ATOM     12  H   UNL     1       7.456   4.716  20.914  0.00  0.00    +0.000 HD
ATOM     13  H   UNL     1       8.336   6.009  21.374  0.00  0.00    +0.000 HD
ENDBRANCH  10  11
ENDBRANCH   9  10
ENDBRANCH   1   9
TORSDOF 4
ENDMDL
MODEL 2
REMARK VINA RESULT:      -5.0      3.370      3.661
REMARK  Name = 
REMARK  4 active torsions:
REMARK  status: ('A' for Active; 'I' for Inactive)
REMARK    1  A    between atoms: N_1  and  O_2
REMARK    2  A    between atoms: O_2  and  C_3
REMARK    3  A    between atoms: C_3  and  C_4
REMARK    4  A    between atoms: C_9  and  O_10
REMARK                            x       y       z     vdW  Elec       q    Type
REMARK                         _______ _______ _______ _____ _____    ______ ____
ROOT
ATOM      1  C   UNL     1       4.163   4.120  18.810  0.00  0.00    +0.000 A 
ATOM      2  C   UNL     1       3.158   4.539  17.922  0.00  0.00    +0.000 A 
ATOM      3  C   UNL     1       2.244   3.624  17.392  0.00  0.00    +0.000 A 
ATOM      4  C   UNL     1       2.324   2.278  17.742  0.00  0.00    +0.000 A 
ATOM      5  C   UNL     1       3.316   1.846  18.623  0.00  0.00    +0.000 A 
ATOM      6  C   UNL     1       4.227   2.763  19.147  0.00  0.00    +0.000 A 
ENDROOT
BRANCH   6   7
ATOM      7  O   UNL     1       5.206   2.335  19.999  0.00  0.00    +0.000 OA
ATOM      8  H   UNL     1       5.984   2.076  19.478  0.00  0.00    +0.000 HD
ENDBRANCH   6   7
BRANCH   1   9
ATOM      9  C   UNL     1       5.166   5.119  19.333  0.00  0.00    +0.000 C 
BRANCH   9  10
ATOM     10  O   UNL     1       6.499   4.639  19.089  0.00  0.00    +0.000 OA
BRANCH  10  11
ATOM     11  N   UNL     1       7.428   5.371  19.948  0.00  0.00    +0.000 NA
ATOM     12  H   UNL     1       7.752   6.097  19.307  0.00  0.00    +0.000 HD
ATOM     13  H   UNL     1       8.197   4.701  20.022  0.00  0.00    +0.000 HD
ENDBRANCH  10  11
ENDBRANCH   9  10
ENDBRANCH   1   9
TORSDOF 4
ENDMDL
MODEL 3
REMARK VINA RESULT:      -5.0      4.252      4.858
REMARK  Name = 
REMARK  4 active torsions:
REMARK  status: ('A' for Active; 'I' for Inactive)
REMARK    1  A    between atoms: N_1  and  O_2
REMARK    2  A    between atoms: O_2  and  C_3
REMARK    3  A    between atoms: C_3  and  C_4
REMARK    4  A    between atoms: C_9  and  O_10
REMARK                            x       y       z     vdW  Elec       q    Type
REMARK                         _______ _______ _______ _____ _____    ______ ____
ROOT
ATOM      1  C   UNL     1       3.438   4.340  19.503  0.00  0.00    +0.000 A 
ATOM      2  C   UNL     1       2.450   4.925  20.314  0.00  0.00    +0.000 A 
ATOM      3  C   UNL     1       1.250   4.258  20.574  0.00  0.00    +0.000 A 
ATOM      4  C   UNL     1       1.022   2.997  20.028  0.00  0.00    +0.000 A 
ATOM      5  C   UNL     1       1.992   2.401  19.223  0.00  0.00    +0.000 A 
ATOM      6  C   UNL     1       3.187   3.073  18.964  0.00  0.00    +0.000 A 
ENDROOT
BRANCH   6   7
ATOM      7  O   UNL     1       4.131   2.493  18.163  0.00  0.00    +0.000 OA
ATOM      8  H   UNL     1       4.949   2.379  18.674  0.00  0.00    +0.000 HD
ENDBRANCH   6   7
BRANCH   1   9
ATOM      9  C   UNL     1       4.706   5.099  19.199  0.00  0.00    +0.000 C 
BRANCH   9  10
ATOM     10  O   UNL     1       5.845   4.254  19.436  0.00  0.00    +0.000 OA
BRANCH  10  11
ATOM     11  N   UNL     1       6.651   4.198  18.218  0.00  0.00    +0.000 NA
ATOM     12  H   UNL     1       7.230   3.378  18.408  0.00  0.00    +0.000 HD
ATOM     13  H   UNL     1       7.262   5.008  18.350  0.00  0.00    +0.000 HD
ENDBRANCH  10  11
ENDBRANCH   9  10
ENDBRANCH   1   9
TORSDOF 4
ENDMDL
MODEL 4
REMARK VINA RESULT:      -5.0      4.401      5.222
REMARK  Name = 
REMARK  4 active torsions:
REMARK  status: ('A' for Active; 'I' for Inactive)
REMARK    1  A    between atoms: N_1  and  O_2
REMARK    2  A    between atoms: O_2  and  C_3
REMARK    3  A    between atoms: C_3  and  C_4
REMARK    4  A    between atoms: C_9  and  O_10
REMARK                            x       y       z     vdW  Elec       q    Type
REMARK                         _______ _______ _______ _____ _____    ______ ____
ROOT
ATOM      1  C   UNL     1       3.173   3.584  18.997  0.00  0.00    +0.000 A 
ATOM      2  C   UNL     1       1.862   4.091  19.034  0.00  0.00    +0.000 A 
ATOM      3  C   UNL     1       1.026   3.836  20.124  0.00  0.00    +0.000 A 
ATOM      4  C   UNL     1       1.489   3.070  21.192  0.00  0.00    +0.000 A 
ATOM      5  C   UNL     1       2.787   2.559  21.172  0.00  0.00    +0.000 A 
ATOM      6  C   UNL     1       3.616   2.815  20.079  0.00  0.00    +0.000 A 
ENDROOT
BRANCH   6   7
ATOM      7  O   UNL     1       4.883   2.302  20.055  0.00  0.00    +0.000 OA
ATOM      8  H   UNL     1       4.832   1.336  20.147  0.00  0.00    +0.000 HD
ENDBRANCH   6   7
BRANCH   1   9
ATOM      9  C   UNL     1       4.040   3.834  17.789  0.00  0.00    +0.000 C 
BRANCH   9  10
ATOM     10  O   UNL     1       5.087   4.759  18.128  0.00  0.00    +0.000 OA
BRANCH  10  11
ATOM     11  N   UNL     1       6.364   4.047  18.128  0.00  0.00    +0.000 NA
ATOM     12  H   UNL     1       6.838   4.503  17.347  0.00  0.00    +0.000 HD
ATOM     13  H   UNL     1       6.077   3.129  17.782  0.00  0.00    +0.000 HD
ENDBRANCH  10  11
ENDBRANCH   9  10
ENDBRANCH   1   9
TORSDOF 4
ENDMDL
MODEL 5
REMARK VINA RESULT:      -4.9      1.467      1.731
REMARK  Name = 
REMARK  4 active torsions:
REMARK  status: ('A' for Active; 'I' for Inactive)
REMARK    1  A    between atoms: N_1  and  O_2
REMARK    2  A    between atoms: O_2  and  C_3
REMARK    3  A    between atoms: C_3  and  C_4
REMARK    4  A    between atoms: C_9  and  O_10
REMARK                            x       y       z     vdW  Elec       q    Type
REMARK                         _______ _______ _______ _____ _____    ______ ____
ROOT
ATOM      1  C   UNL     1       6.744   5.523  17.817  0.00  0.00    +0.000 A 
ATOM      2  C   UNL     1       6.813   5.955  16.481  0.00  0.00    +0.000 A 
ATOM      3  C   UNL     1       5.964   5.416  15.510  0.00  0.00    +0.000 A 
ATOM      4  C   UNL     1       5.036   4.439  15.862  0.00  0.00    +0.000 A 
ATOM      5  C   UNL     1       4.954   4.000  17.183  0.00  0.00    +0.000 A 
ATOM      6  C   UNL     1       5.806   4.539  18.148  0.00  0.00    +0.000 A 
ENDROOT
BRANCH   6   7
ATOM      7  O   UNL     1       5.733   4.097  19.439  0.00  0.00    +0.000 OA
ATOM      8  H   UNL     1       5.411   4.821  20.001  0.00  0.00    +0.000 HD
ENDBRANCH   6   7
BRANCH   1   9
ATOM      9  C   UNL     1       7.702   6.086  18.838  0.00  0.00    +0.000 C 
BRANCH   9  10
ATOM     10  O   UNL     1       8.349   5.010  19.539  0.00  0.00    +0.000 OA
BRANCH  10  11
ATOM     11  N   UNL     1       8.217   5.238  20.977  0.00  0.00    +0.000 NA
ATOM     12  H   UNL     1       7.203   5.319  21.066  0.00  0.00    +0.000 HD
ATOM     13  H   UNL     1       8.582   6.189  21.059  0.00  0.00    +0.000 HD
ENDBRANCH  10  11
ENDBRANCH   9  10
ENDBRANCH   1   9
TORSDOF 4
ENDMDL
MODEL 6
REMARK VINA RESULT:      -4.9      2.826      3.355
REMARK  Name = 
REMARK  4 active torsions:
REMARK  status: ('A' for Active; 'I' for Inactive)
REMARK    1  A    between atoms: N_1  and  O_2
REMARK    2  A    between atoms: O_2  and  C_3
REMARK    3  A    between atoms: C_3  and  C_4
REMARK    4  A    between atoms: C_9  and  O_10
REMARK                            x       y       z     vdW  Elec       q    Type
REMARK                         _______ _______ _______ _____ _____    ______ ____
ROOT
ATOM      1  C   UNL     1       4.676   4.733  18.572  0.00  0.00    +0.000 A 
ATOM      2  C   UNL     1       3.701   5.588  18.029  0.00  0.00    +0.000 A 
ATOM      3  C   UNL     1       2.372   5.174  17.908  0.00  0.00    +0.000 A 
ATOM      4  C   UNL     1       2.000   3.898  18.328  0.00  0.00    +0.000 A 
ATOM      5  C   UNL     1       2.954   3.037  18.869  0.00  0.00    +0.000 A 
ATOM      6  C   UNL     1       4.280   3.455  18.985  0.00  0.00    +0.000 A 
ENDROOT
BRANCH   6   7
ATOM      7  O   UNL     1       5.216   2.605  19.502  0.00  0.00    +0.000 OA
ATOM      8  H   UNL     1       5.002   1.698  19.228  0.00  0.00    +0.000 HD
ENDBRANCH   6   7
BRANCH   1   9
ATOM      9  C   UNL     1       6.112   5.186  18.649  0.00  0.00    +0.000 C 
BRANCH   9  10
ATOM     10  O   UNL     1       6.569   5.116  20.010  0.00  0.00    +0.000 OA
BRANCH  10  11
ATOM     11  N   UNL     1       7.970   5.533  20.060  0.00  0.00    +0.000 NA
ATOM     12  H   UNL     1       8.223   5.243  21.006  0.00  0.00    +0.000 HD
ATOM     13  H   UNL     1       7.871   6.550  20.096  0.00  0.00    +0.000 HD
ENDBRANCH  10  11
ENDBRANCH   9  10
ENDBRANCH   1   9
TORSDOF 4
ENDMDL
MODEL 7
REMARK VINA RESULT:      -4.9      3.807      4.406
REMARK  Name = 
REMARK  4 active torsions:
REMARK  status: ('A' for Active; 'I' for Inactive)
REMARK    1  A    between atoms: N_1  and  O_2
REMARK    2  A    between atoms: O_2  and  C_3
REMARK    3  A    between atoms: C_3  and  C_4
REMARK    4  A    between atoms: C_9  and  O_10
REMARK                            x       y       z     vdW  Elec       q    Type
REMARK                         _______ _______ _______ _____ _____    ______ ____
ROOT
ATOM      1  C   UNL     1       3.794   3.668  17.978  0.00  0.00    +0.000 A 
ATOM      2  C   UNL     1       2.500   3.990  17.531  0.00  0.00    +0.000 A 
ATOM      3  C   UNL     1       1.374   3.601  18.261  0.00  0.00    +0.000 A 
ATOM      4  C   UNL     1       1.526   2.885  19.447  0.00  0.00    +0.000 A 
ATOM      5  C   UNL     1       2.802   2.558  19.904  0.00  0.00    +0.000 A 
ATOM      6  C   UNL     1       3.923   2.946  19.170  0.00  0.00    +0.000 A 
ENDROOT
BRANCH   6   7
ATOM      7  O   UNL     1       5.172   2.612  19.613  0.00  0.00    +0.000 OA
ATOM      8  H   UNL     1       5.219   1.648  19.722  0.00  0.00    +0.000 HD
ENDBRANCH   6   7
BRANCH   1   9
ATOM      9  C   UNL     1       4.992   4.058  17.148  0.00  0.00    +0.000 C 
BRANCH   9  10
ATOM     10  O   UNL     1       5.862   4.901  17.922  0.00  0.00    +0.000 OA
BRANCH  10  11
ATOM     11  N   UNL     1       7.180   4.272  18.002  0.00  0.00    +0.000 NA
ATOM     12  H   UNL     1       7.104   3.782  18.895  0.00  0.00    +0.000 HD
ATOM     13  H   UNL     1       7.775   5.085  18.179  0.00  0.00    +0.000 HD
ENDBRANCH  10  11
ENDBRANCH   9  10
ENDBRANCH   1   9
TORSDOF 4
ENDMDL
MODEL 8
REMARK VINA RESULT:      -4.9      2.373      3.461
REMARK  Name = 
REMARK  4 active torsions:
REMARK  status: ('A' for Active; 'I' for Inactive)
REMARK    1  A    between atoms: N_1  and  O_2
REMARK    2  A    between atoms: O_2  and  C_3
REMARK    3  A    between atoms: C_3  and  C_4
REMARK    4  A    between atoms: C_9  and  O_10
REMARK                            x       y       z     vdW  Elec       q    Type
REMARK                         _______ _______ _______ _____ _____    ______ ____
ROOT
ATOM      1  C   UNL     1       5.206   4.718  16.354  0.00  0.00    +0.000 A 
ATOM      2  C   UNL     1       4.255   3.830  16.885  0.00  0.00    +0.000 A 
ATOM      3  C   UNL     1       3.202   4.297  17.675  0.00  0.00    +0.000 A 
ATOM      4  C   UNL     1       3.085   5.659  17.945  0.00  0.00    +0.000 A 
ATOM      5  C   UNL     1       4.020   6.554  17.426  0.00  0.00    +0.000 A 
ATOM      6  C   UNL     1       5.072   6.081  16.640  0.00  0.00    +0.000 A 
ENDROOT
BRANCH   6   7
ATOM      7  O   UNL     1       5.995   6.959  16.144  0.00  0.00    +0.000 OA
ATOM      8  H   UNL     1       6.629   7.177  16.847  0.00  0.00    +0.000 HD
ENDBRANCH   6   7
BRANCH   1   9
ATOM      9  C   UNL     1       6.360   4.184  15.542  0.00  0.00    +0.000 C 
BRANCH   9  10
ATOM     10  O   UNL     1       7.588   4.777  15.999  0.00  0.00    +0.000 OA
BRANCH  10  11
ATOM     11  N   UNL     1       7.964   4.162  17.271  0.00  0.00    +0.000 NA
ATOM     12  H   UNL     1       8.974   4.308  17.264  0.00  0.00    +0.000 HD
ATOM     13  H   UNL     1       7.822   3.172  17.060  0.00  0.00    +0.000 HD
ENDBRANCH  10  11
ENDBRANCH   9  10
ENDBRANCH   1   9
TORSDOF 4
ENDMDL
MODEL 9
REMARK VINA RESULT:      -4.8      4.316      5.131
REMARK  Name = 
REMARK  4 active torsions:
REMARK  status: ('A' for Active; 'I' for Inactive)
REMARK    1  A    between atoms: N_1  and  O_2
REMARK    2  A    between atoms: O_2  and  C_3
REMARK    3  A    between atoms: C_3  and  C_4
REMARK    4  A    between atoms: C_9  and  O_10
REMARK                            x       y       z     vdW  Elec       q    Type
REMARK                         _______ _______ _______ _____ _____    ______ ____
ROOT
ATOM      1  C   UNL     1       3.276   3.752  18.760  0.00  0.00    +0.000 A 
ATOM      2  C   UNL     1       2.574   2.643  18.255  0.00  0.00    +0.000 A 
ATOM      3  C   UNL     1       1.303   2.321  18.737  0.00  0.00    +0.000 A 
ATOM      4  C   UNL     1       0.716   3.102  19.731  0.00  0.00    +0.000 A 
ATOM      5  C   UNL     1       1.399   4.206  20.242  0.00  0.00    +0.000 A 
ATOM      6  C   UNL     1       2.669   4.522  19.759  0.00  0.00    +0.000 A 
ENDROOT
BRANCH   6   7
ATOM      7  O   UNL     1       3.341   5.595  20.271  0.00  0.00    +0.000 OA
ATOM      8  H   UNL     1       2.854   6.406  20.049  0.00  0.00    +0.000 HD
ENDBRANCH   6   7
BRANCH   1   9
ATOM      9  C   UNL     1       4.666   4.053  18.256  0.00  0.00    +0.000 C 
BRANCH   9  10
ATOM     10  O   UNL     1       5.616   3.873  19.320  0.00  0.00    +0.000 OA
BRANCH  10  11
ATOM     11  N   UNL     1       6.297   5.143  19.564  0.00  0.00    +0.000 NA
ATOM     12  H   UNL     1       6.133   5.260  20.565  0.00  0.00    +0.000 HD
ATOM     13  H   UNL     1       5.664   5.798  19.099  0.00  0.00    +0.000 HD
ENDBRANCH  10  11
ENDBRANCH   9  10
ENDBRANCH   1   9
TORSDOF 4
ENDMDL
