MODEL 1
REMARK VINA RESULT:      -6.5      0.000      0.000
REMARK  Name = 
REMARK  10 active torsions:
REMARK  status: ('A' for Active; 'I' for Inactive)
REMARK    1  A    between atoms: C_1  and  C_2
REMARK    2  A    between atoms: C_2  and  C_3
REMARK    3  A    between atoms: C_2  and  N_4
REMARK    4  A    between atoms: N_4  and  C_5
REMARK    5  A    between atoms: N_4  and  C_18
REMARK    6  A    between atoms: C_5  and  C_6
REMARK    7  A    between atoms: C_6  and  O_7
REMARK    8  A    between atoms: O_7  and  C_8
REMARK    9  A    between atoms: C_12  and  S_13
REMARK   10  A    between atoms: S_13  and  C_14
REMARK                            x       y       z     vdW  Elec       q    Type
REMARK                         _______ _______ _______ _____ _____    ______ ____
ROOT
ATOM      1  O   UNL     1       3.812   7.400  17.809  0.00  0.00    +0.000 OA
ENDROOT
BRANCH   1   2
ATOM      2  C   UNL     1       3.146   6.653  18.753  0.00  0.00    +0.000 A 
ATOM      3  C   UNL     1       2.286   7.359  19.604  0.00  0.00    +0.000 A 
ATOM      4  C   UNL     1       1.540   6.692  20.589  0.00  0.00    +0.000 A 
ATOM      5  C   UNL     1       1.648   5.312  20.740  0.00  0.00    +0.000 A 
ATOM      6  C   UNL     1       2.523   4.614  19.903  0.00  0.00    +0.000 A 
ATOM      7  C   UNL     1       3.257   5.270  18.916  0.00  0.00    +0.000 A 
BRANCH   6   8
ATOM      8  S   UNL     1       2.653   2.845  20.052  0.00  0.00    +0.000 S 
ATOM      9  C   UNL     1       1.871   2.492  21.601  0.00  0.00    +0.000 C 
ATOM     10  O   UNL     1       1.857   2.256  18.990  0.00  0.00    +0.000 OA
ATOM     11  O   UNL     1       4.068   2.527  20.182  0.00  0.00    +0.000 OA
ENDBRANCH   6   8
ENDBRANCH   1   2
BRANCH   1  12
ATOM     12  C   UNL     1       4.221   6.683  16.630  0.00  0.00    +0.000 C 
BRANCH  12  13
ATOM     13  C   UNL     1       5.761   6.641  16.479  0.00  0.00    +0.000 C 
BRANCH  13  14
ATOM     14  N   UNL     1       6.484   5.518  17.171  0.00  0.00    +0.000 NA
BRANCH  14  15
ATOM     15  C   UNL     1       6.907   4.521  16.150  0.00  0.00    +0.000 C 
ATOM     16  C   UNL     1       5.731   3.641  15.638  0.00  0.00    +0.000 C 
ATOM     17  C   UNL     1       6.286   3.821  14.222  0.00  0.00    +0.000 C 
ATOM     18  C   UNL     1       6.874   5.157  14.720  0.00  0.00    +0.000 C 
ENDBRANCH  14  15
BRANCH  14  20
ATOM     19  C   UNL     1       7.801   7.548  17.906  0.00  0.00    +0.000 C 
ATOM     20  C   UNL     1       7.633   6.015  17.995  0.00  0.00    +0.000 C 
ATOM     21  C   UNL     1       7.526   5.708  19.500  0.00  0.00    +0.000 C 
ENDBRANCH  14  20
ENDBRANCH  13  14
ENDBRANCH  12  13
ENDBRANCH   1  12
TORSDOF 7
ENDMDL
MODEL 2
REMARK VINA RESULT:      -6.4      1.078      2.726
REMARK  Name = 
REMARK  10 active torsions:
REMARK  status: ('A' for Active; 'I' for Inactive)
REMARK    1  A    between atoms: C_1  and  C_2
REMARK    2  A    between atoms: C_2  and  C_3
REMARK    3  A    between atoms: C_2  and  N_4
REMARK    4  A    between atoms: N_4  and  C_5
REMARK    5  A    between atoms: N_4  and  C_18
REMARK    6  A    between atoms: C_5  and  C_6
REMARK    7  A    between atoms: C_6  and  O_7
REMARK    8  A    between atoms: O_7  and  C_8
REMARK    9  A    between atoms: C_12  and  S_13
REMARK   10  A    between atoms: S_13  and  C_14
REMARK                            x       y       z     vdW  Elec       q    Type
REMARK                         _______ _______ _______ _____ _____    ______ ____
ROOT
ATOM      1  O   UNL     1       3.024   6.712  17.218  0.00  0.00    +0.000 OA
ENDROOT
BRANCH   1   2
ATOM      2  C   UNL     1       2.699   6.173  18.442  0.00  0.00    +0.000 A 
ATOM      3  C   UNL     1       2.194   7.067  19.395  0.00  0.00    +0.000 A 
ATOM      4  C   UNL     1       1.810   6.619  20.670  0.00  0.00    +0.000 A 
ATOM      5  C   UNL     1       1.932   5.274  21.010  0.00  0.00    +0.000 A 
ATOM      6  C   UNL     1       2.456   4.389  20.064  0.00  0.00    +0.000 A 
ATOM      7  C   UNL     1       2.828   4.827  18.793  0.00  0.00    +0.000 A 
BRANCH   6   8
ATOM      8  S   UNL     1       2.589   2.660  20.461  0.00  0.00    +0.000 S 
ATOM      9  C   UNL     1       4.268   2.262  20.062  0.00  0.00    +0.000 C 
ATOM     10  O   UNL     1       2.412   2.524  21.895  0.00  0.00    +0.000 OA
ATOM     11  O   UNL     1       1.726   1.938  19.536  0.00  0.00    +0.000 OA
ENDBRANCH   6   8
ENDBRANCH   1   2
BRANCH   1  12
ATOM     12  C   UNL     1       4.320   7.333  17.142  0.00  0.00    +0.000 C 
BRANCH  12  13
ATOM     13  C   UNL     1       5.157   6.789  15.959  0.00  0.00    +0.000 C 
BRANCH  13  14
ATOM     14  N   UNL     1       6.467   6.129  16.296  0.00  0.00    +0.000 NA
BRANCH  14  15
ATOM     15  C   UNL     1       6.612   6.085  17.776  0.00  0.00    +0.000 C 
ATOM     16  C   UNL     1       7.478   4.889  18.266  0.00  0.00    +0.000 C 
ATOM     17  C   UNL     1       8.159   5.852  19.242  0.00  0.00    +0.000 C 
ATOM     18  C   UNL     1       7.820   6.969  18.233  0.00  0.00    +0.000 C 
ENDBRANCH  14  15
BRANCH  14  20
ATOM     19  C   UNL     1       5.245   4.017  15.633  0.00  0.00    +0.000 C 
ATOM     20  C   UNL     1       6.590   4.774  15.668  0.00  0.00    +0.000 C 
ATOM     21  C   UNL     1       7.085   4.784  14.210  0.00  0.00    +0.000 C 
ENDBRANCH  14  20
ENDBRANCH  13  14
ENDBRANCH  12  13
ENDBRANCH   1  12
TORSDOF 7
ENDMDL
MODEL 3
REMARK VINA RESULT:      -6.4      3.145      4.619
REMARK  Name = 
REMARK  10 active torsions:
REMARK  status: ('A' for Active; 'I' for Inactive)
REMARK    1  A    between atoms: C_1  and  C_2
REMARK    2  A    between atoms: C_2  and  C_3
REMARK    3  A    between atoms: C_2  and  N_4
REMARK    4  A    between atoms: N_4  and  C_5
REMARK    5  A    between atoms: N_4  and  C_18
REMARK    6  A    between atoms: C_5  and  C_6
REMARK    7  A    between atoms: C_6  and  O_7
REMARK    8  A    between atoms: O_7  and  C_8
REMARK    9  A    between atoms: C_12  and  S_13
REMARK   10  A    between atoms: S_13  and  C_14
REMARK                            x       y       z     vdW  Elec       q    Type
REMARK                         _______ _______ _______ _____ _____    ______ ____
ROOT
ATOM      1  O   UNL     1       3.080   6.096  18.583  0.00  0.00    +0.000 OA
ENDROOT
BRANCH   1   2
ATOM      2  C   UNL     1       2.449   7.289  18.853  0.00  0.00    +0.000 A 
ATOM      3  C   UNL     1       2.434   8.228  17.813  0.00  0.00    +0.000 A 
ATOM      4  C   UNL     1       1.798   9.470  17.974  0.00  0.00    +0.000 A 
ATOM      5  C   UNL     1       1.175   9.792  19.177  0.00  0.00    +0.000 A 
ATOM      6  C   UNL     1       1.211   8.861  20.219  0.00  0.00    +0.000 A 
ATOM      7  C   UNL     1       1.831   7.622  20.061  0.00  0.00    +0.000 A 
BRANCH   6   8
ATOM      8  S   UNL     1       0.392   9.233  21.755  0.00  0.00    +0.000 S 
ATOM      9  C   UNL     1      -0.387  10.794  21.451  0.00  0.00    +0.000 C 
ATOM     10  O   UNL     1      -0.642   8.233  21.954  0.00  0.00    +0.000 OA
ATOM     11  O   UNL     1       1.429   9.437  22.757  0.00  0.00    +0.000 OA
ENDBRANCH   6   8
ENDBRANCH   1   2
BRANCH   1  12
ATOM     12  C   UNL     1       4.429   5.986  19.074  0.00  0.00    +0.000 C 
BRANCH  12  13
ATOM     13  C   UNL     1       5.142   4.721  18.539  0.00  0.00    +0.000 C 
BRANCH  13  14
ATOM     14  N   UNL     1       4.492   4.009  17.383  0.00  0.00    +0.000 NA
BRANCH  14  15
ATOM     15  C   UNL     1       5.513   3.787  16.324  0.00  0.00    +0.000 C 
ATOM     16  C   UNL     1       5.445   4.843  15.185  0.00  0.00    +0.000 C 
ATOM     17  C   UNL     1       6.975   4.908  15.228  0.00  0.00    +0.000 C 
ATOM     18  C   UNL     1       6.859   4.487  16.708  0.00  0.00    +0.000 C 
ENDBRANCH  14  15
BRANCH  14  20
ATOM     19  C   UNL     1       4.104   2.397  19.292  0.00  0.00    +0.000 C 
ATOM     20  C   UNL     1       3.825   2.737  17.812  0.00  0.00    +0.000 C 
ATOM     21  C   UNL     1       2.292   2.738  17.680  0.00  0.00    +0.000 C 
ENDBRANCH  14  20
ENDBRANCH  13  14
ENDBRANCH  12  13
ENDBRANCH   1  12
TORSDOF 7
ENDMDL
MODEL 4
REMARK VINA RESULT:      -6.3      3.725      7.198
REMARK  Name = 
REMARK  10 active torsions:
REMARK  status: ('A' for Active; 'I' for Inactive)
REMARK    1  A    between atoms: C_1  and  C_2
REMARK    2  A    between atoms: C_2  and  C_3
REMARK    3  A    between atoms: C_2  and  N_4
REMARK    4  A    between atoms: N_4  and  C_5
REMARK    5  A    between atoms: N_4  and  C_18
REMARK    6  A    between atoms: C_5  and  C_6
REMARK    7  A    between atoms: C_6  and  O_7
REMARK    8  A    between atoms: O_7  and  C_8
REMARK    9  A    between atoms: C_12  and  S_13
REMARK   10  A    between atoms: S_13  and  C_14
REMARK                            x       y       z     vdW  Elec       q    Type
REMARK                         _______ _______ _______ _____ _____    ______ ____
ROOT
ATOM      1  O   UNL     1       2.214   7.639  18.628  0.00  0.00    +0.000 OA
ENDROOT
BRANCH   1   2
ATOM      2  C   UNL     1       2.924   6.571  18.128  0.00  0.00    +0.000 A 
ATOM      3  C   UNL     1       2.244   5.347  18.077  0.00  0.00    +0.000 A 
ATOM      4  C   UNL     1       2.867   4.199  17.564  0.00  0.00    +0.000 A 
ATOM      5  C   UNL     1       4.179   4.256  17.102  0.00  0.00    +0.000 A 
ATOM      6  C   UNL     1       4.861   5.474  17.173  0.00  0.00    +0.000 A 
ATOM      7  C   UNL     1       4.243   6.620  17.671  0.00  0.00    +0.000 A 
BRANCH   6   8
ATOM      8  S   UNL     1       6.527   5.583  16.556  0.00  0.00    +0.000 S 
ATOM      9  C   UNL     1       7.194   6.996  17.388  0.00  0.00    +0.000 C 
ATOM     10  O   UNL     1       7.241   4.403  17.009  0.00  0.00    +0.000 OA
ATOM     11  O   UNL     1       6.440   5.898  15.136  0.00  0.00    +0.000 OA
ENDBRANCH   6   8
ENDBRANCH   1   2
BRANCH   1  12
ATOM     12  C   UNL     1       2.125   8.783  17.758  0.00  0.00    +0.000 C 
BRANCH  12  13
ATOM     13  C   UNL     1       1.529  10.016  18.478  0.00  0.00    +0.000 C 
BRANCH  13  14
ATOM     14  N   UNL     1       0.351   9.775  19.383  0.00  0.00    +0.000 NA
BRANCH  14  15
ATOM     15  C   UNL     1       0.788   9.952  20.794  0.00  0.00    +0.000 C 
ATOM     16  C   UNL     1      -0.359  10.432  21.729  0.00  0.00    +0.000 C 
ATOM     17  C   UNL     1       0.137   9.420  22.766  0.00  0.00    +0.000 C 
ATOM     18  C   UNL     1       0.674   8.600  21.574  0.00  0.00    +0.000 C 
ENDBRANCH  14  15
BRANCH  14  20
ATOM     19  C   UNL     1      -0.377  12.061  18.585  0.00  0.00    +0.000 C 
ATOM     20  C   UNL     1      -0.815  10.649  19.030  0.00  0.00    +0.000 C 
ATOM     21  C   UNL     1      -1.692  10.119  17.882  0.00  0.00    +0.000 C 
ENDBRANCH  14  20
ENDBRANCH  13  14
ENDBRANCH  12  13
ENDBRANCH   1  12
TORSDOF 7
ENDMDL
MODEL 5
REMARK VINA RESULT:      -6.3      3.323      5.162
REMARK  Name = 
REMARK  10 active torsions:
REMARK  status: ('A' for Active; 'I' for Inactive)
REMARK    1  A    between atoms: C_1  and  C_2
REMARK    2  A    between atoms: C_2  and  C_3
REMARK    3  A    between atoms: C_2  and  N_4
REMARK    4  A    between atoms: N_4  and  C_5
REMARK    5  A    between atoms: N_4  and  C_18
REMARK    6  A    between atoms: C_5  and  C_6
REMARK    7  A    between atoms: C_6  and  O_7
REMARK    8  A    between atoms: O_7  and  C_8
REMARK    9  A    between atoms: C_12  and  S_13
REMARK   10  A    between atoms: S_13  and  C_14
REMARK                            x       y       z     vdW  Elec       q    Type
REMARK                         _______ _______ _______ _____ _____    ______ ____
ROOT
ATOM      1  O   UNL     1       2.757   5.896  19.893  0.00  0.00    +0.000 OA
ENDROOT
BRANCH   1   2
ATOM      2  C   UNL     1       2.279   7.135  19.531  0.00  0.00    +0.000 A 
ATOM      3  C   UNL     1       2.391   7.467  18.174  0.00  0.00    +0.000 A 
ATOM      4  C   UNL     1       1.915   8.697  17.693  0.00  0.00    +0.000 A 
ATOM      5  C   UNL     1       1.329   9.614  18.561  0.00  0.00    +0.000 A 
ATOM      6  C   UNL     1       1.238   9.289  19.917  0.00  0.00    +0.000 A 
ATOM      7  C   UNL     1       1.699   8.064  20.399  0.00  0.00    +0.000 A 
BRANCH   6   8
ATOM      8  S   UNL     1       0.461  10.427  21.042  0.00  0.00    +0.000 S 
ATOM      9  C   UNL     1       1.261  11.971  20.702  0.00  0.00    +0.000 C 
ATOM     10  O   UNL     1      -0.935  10.539  20.659  0.00  0.00    +0.000 OA
ATOM     11  O   UNL     1       0.829  10.020  22.391  0.00  0.00    +0.000 OA
ENDBRANCH   6   8
ENDBRANCH   1   2
BRANCH   1  12
ATOM     12  C   UNL     1       4.141   5.654  19.584  0.00  0.00    +0.000 C 
BRANCH  12  13
ATOM     13  C   UNL     1       4.348   4.300  18.862  0.00  0.00    +0.000 C 
BRANCH  13  14
ATOM     14  N   UNL     1       3.996   4.246  17.400  0.00  0.00    +0.000 NA
BRANCH  14  15
ATOM     15  C   UNL     1       5.185   3.773  16.640  0.00  0.00    +0.000 C 
ATOM     16  C   UNL     1       5.204   4.276  15.169  0.00  0.00    +0.000 C 
ATOM     17  C   UNL     1       6.697   4.569  15.346  0.00  0.00    +0.000 C 
ATOM     18  C   UNL     1       6.389   4.751  16.847  0.00  0.00    +0.000 C 
ENDBRANCH  14  15
BRANCH  14  20
ATOM     19  C   UNL     1       2.872   2.022  17.832  0.00  0.00    +0.000 C 
ATOM     20  C   UNL     1       2.783   3.403  17.147  0.00  0.00    +0.000 C 
ATOM     21  C   UNL     1       1.460   4.015  17.644  0.00  0.00    +0.000 C 
ENDBRANCH  14  20
ENDBRANCH  13  14
ENDBRANCH  12  13
ENDBRANCH   1  12
TORSDOF 7
ENDMDL
MODEL 6
REMARK VINA RESULT:      -6.3      4.102      7.104
REMARK  Name = 
REMARK  10 active torsions:
REMARK  status: ('A' for Active; 'I' for Inactive)
REMARK    1  A    between atoms: C_1  and  C_2
REMARK    2  A    between atoms: C_2  and  C_3
REMARK    3  A    between atoms: C_2  and  N_4
REMARK    4  A    between atoms: N_4  and  C_5
REMARK    5  A    between atoms: N_4  and  C_18
REMARK    6  A    between atoms: C_5  and  C_6
REMARK    7  A    between atoms: C_6  and  O_7
REMARK    8  A    between atoms: O_7  and  C_8
REMARK    9  A    between atoms: C_12  and  S_13
REMARK   10  A    between atoms: S_13  and  C_14
REMARK                            x       y       z     vdW  Elec       q    Type
REMARK                         _______ _______ _______ _____ _____    ______ ____
ROOT
ATOM      1  O   UNL     1       2.708   8.227  17.245  0.00  0.00    +0.000 OA
ENDROOT
BRANCH   1   2
ATOM      2  C   UNL     1       3.502   7.218  17.742  0.00  0.00    +0.000 A 
ATOM      3  C   UNL     1       3.042   6.586  18.905  0.00  0.00    +0.000 A 
ATOM      4  C   UNL     1       3.763   5.529  19.483  0.00  0.00    +0.000 A 
ATOM      5  C   UNL     1       4.955   5.094  18.911  0.00  0.00    +0.000 A 
ATOM      6  C   UNL     1       5.422   5.740  17.763  0.00  0.00    +0.000 A 
ATOM      7  C   UNL     1       4.704   6.782  17.178  0.00  0.00    +0.000 A 
BRANCH   6   8
ATOM      8  S   UNL     1       6.924   5.180  16.992  0.00  0.00    +0.000 S 
ATOM      9  C   UNL     1       6.364   4.054  15.743  0.00  0.00    +0.000 C 
ATOM     10  O   UNL     1       7.535   6.323  16.338  0.00  0.00    +0.000 OA
ATOM     11  O   UNL     1       7.660   4.414  17.988  0.00  0.00    +0.000 OA
ENDBRANCH   6   8
ENDBRANCH   1   2
BRANCH   1  12
ATOM     12  C   UNL     1       2.193   9.145  18.226  0.00  0.00    +0.000 C 
BRANCH  12  13
ATOM     13  C   UNL     1       0.731   9.556  17.927  0.00  0.00    +0.000 C 
BRANCH  13  14
ATOM     14  N   UNL     1       0.111  10.583  18.836  0.00  0.00    +0.000 NA
BRANCH  14  15
ATOM     15  C   UNL     1      -1.369  10.500  18.711  0.00  0.00    +0.000 C 
ATOM     16  C   UNL     1      -2.013  11.832  18.231  0.00  0.00    +0.000 C 
ATOM     17  C   UNL     1      -2.902  11.003  17.299  0.00  0.00    +0.000 C 
ATOM     18  C   UNL     1      -1.768   9.956  17.299  0.00  0.00    +0.000 C 
ENDBRANCH  14  15
BRANCH  14  20
ATOM     19  C   UNL     1       0.503  11.756  21.041  0.00  0.00    +0.000 C 
ATOM     20  C   UNL     1       0.576  10.431  20.253  0.00  0.00    +0.000 C 
ATOM     21  C   UNL     1      -0.229   9.419  21.088  0.00  0.00    +0.000 C 
ENDBRANCH  14  20
ENDBRANCH  13  14
ENDBRANCH  12  13
ENDBRANCH   1  12
TORSDOF 7
ENDMDL
MODEL 7
REMARK VINA RESULT:      -6.3      1.263      2.872
REMARK  Name = 
REMARK  10 active torsions:
REMARK  status: ('A' for Active; 'I' for Inactive)
REMARK    1  A    between atoms: C_1  and  C_2
REMARK    2  A    between atoms: C_2  and  C_3
REMARK    3  A    between atoms: C_2  and  N_4
REMARK    4  A    between atoms: N_4  and  C_5
REMARK    5  A    between atoms: N_4  and  C_18
REMARK    6  A    between atoms: C_5  and  C_6
REMARK    7  A    between atoms: C_6  and  O_7
REMARK    8  A    between atoms: O_7  and  C_8
REMARK    9  A    between atoms: C_12  and  S_13
REMARK   10  A    between atoms: S_13  and  C_14
REMARK                            x       y       z     vdW  Elec       q    Type
REMARK                         _______ _______ _______ _____ _____    ______ ____
ROOT
ATOM      1  O   UNL     1       2.715   7.333  17.466  0.00  0.00    +0.000 OA
ENDROOT
BRANCH   1   2
ATOM      2  C   UNL     1       2.368   6.434  18.449  0.00  0.00    +0.000 A 
ATOM      3  C   UNL     1       2.204   6.961  19.737  0.00  0.00    +0.000 A 
ATOM      4  C   UNL     1       1.828   6.136  20.809  0.00  0.00    +0.000 A 
ATOM      5  C   UNL     1       1.619   4.774  20.610  0.00  0.00    +0.000 A 
ATOM      6  C   UNL     1       1.804   4.248  19.329  0.00  0.00    +0.000 A 
ATOM      7  C   UNL     1       2.166   5.065  18.258  0.00  0.00    +0.000 A 
BRANCH   6   8
ATOM      8  S   UNL     1       1.508   2.518  19.040  0.00  0.00    +0.000 S 
ATOM      9  C   UNL     1       2.753   2.066  17.863  0.00  0.00    +0.000 C 
ATOM     10  O   UNL     1       1.773   1.814  20.282  0.00  0.00    +0.000 OA
ATOM     11  O   UNL     1       0.212   2.406  18.386  0.00  0.00    +0.000 OA
ENDBRANCH   6   8
ENDBRANCH   1   2
BRANCH   1  12
ATOM     12  C   UNL     1       4.129   7.487  17.242  0.00  0.00    +0.000 C 
BRANCH  12  13
ATOM     13  C   UNL     1       4.822   6.134  16.953  0.00  0.00    +0.000 C 
BRANCH  13  14
ATOM     14  N   UNL     1       6.017   6.161  16.038  0.00  0.00    +0.000 NA
BRANCH  14  15
ATOM     15  C   UNL     1       7.251   6.033  16.859  0.00  0.00    +0.000 C 
ATOM     16  C   UNL     1       7.653   7.361  17.560  0.00  0.00    +0.000 C 
ATOM     17  C   UNL     1       7.945   6.544  18.822  0.00  0.00    +0.000 C 
ATOM     18  C   UNL     1       6.897   5.538  18.301  0.00  0.00    +0.000 C 
ENDBRANCH  14  15
BRANCH  14  20
ATOM     19  C   UNL     1       7.211   5.034  14.114  0.00  0.00    +0.000 C 
ATOM     20  C   UNL     1       5.928   5.112  14.970  0.00  0.00    +0.000 C 
ATOM     21  C   UNL     1       5.704   3.681  15.491  0.00  0.00    +0.000 C 
ENDBRANCH  14  20
ENDBRANCH  13  14
ENDBRANCH  12  13
ENDBRANCH   1  12
TORSDOF 7
ENDMDL
MODEL 8
REMARK VINA RESULT:      -6.3      3.654      7.250
REMARK  Name = 
REMARK  10 active torsions:
REMARK  status: ('A' for Active; 'I' for Inactive)
REMARK    1  A    between atoms: C_1  and  C_2
REMARK    2  A    between atoms: C_2  and  C_3
REMARK    3  A    between atoms: C_2  and  N_4
REMARK    4  A    between atoms: N_4  and  C_5
REMARK    5  A    between atoms: N_4  and  C_18
REMARK    6  A    between atoms: C_5  and  C_6
REMARK    7  A    between atoms: C_6  and  O_7
REMARK    8  A    between atoms: O_7  and  C_8
REMARK    9  A    between atoms: C_12  and  S_13
REMARK   10  A    between atoms: S_13  and  C_14
REMARK                            x       y       z     vdW  Elec       q    Type
REMARK                         _______ _______ _______ _____ _____    ______ ____
ROOT
ATOM      1  O   UNL     1       2.732   6.105  19.673  0.00  0.00    +0.000 OA
ENDROOT
BRANCH   1   2
ATOM      2  C   UNL     1       3.542   5.494  18.742  0.00  0.00    +0.000 A 
ATOM      3  C   UNL     1       2.921   4.559  17.903  0.00  0.00    +0.000 A 
ATOM      4  C   UNL     1       3.650   3.894  16.904  0.00  0.00    +0.000 A 
ATOM      5  C   UNL     1       5.008   4.148  16.735  0.00  0.00    +0.000 A 
ATOM      6  C   UNL     1       5.629   5.064  17.588  0.00  0.00    +0.000 A 
ATOM      7  C   UNL     1       4.908   5.737  18.574  0.00  0.00    +0.000 A 
BRANCH   6   8
ATOM      8  S   UNL     1       7.356   5.433  17.371  0.00  0.00    +0.000 S 
ATOM      9  C   UNL     1       7.848   6.092  18.940  0.00  0.00    +0.000 C 
ATOM     10  O   UNL     1       8.051   4.176  17.162  0.00  0.00    +0.000 OA
ATOM     11  O   UNL     1       7.447   6.504  16.388  0.00  0.00    +0.000 OA
ENDBRANCH   6   8
ENDBRANCH   1   2
BRANCH   1  12
ATOM     12  C   UNL     1       2.280   7.426  19.324  0.00  0.00    +0.000 C 
BRANCH  12  13
ATOM     13  C   UNL     1       1.653   8.164  20.531  0.00  0.00    +0.000 C 
BRANCH  13  14
ATOM     14  N   UNL     1       0.617   9.212  20.227  0.00  0.00    +0.000 NA
BRANCH  14  15
ATOM     15  C   UNL     1       0.538  10.154  21.376  0.00  0.00    +0.000 C 
ATOM     16  C   UNL     1      -0.902  10.686  21.626  0.00  0.00    +0.000 C 
ATOM     17  C   UNL     1      -0.662  10.473  23.124  0.00  0.00    +0.000 C 
ATOM     18  C   UNL     1       0.332   9.366  22.713  0.00  0.00    +0.000 C 
ENDBRANCH  14  15
BRANCH  14  20
ATOM     19  C   UNL     1      -0.375  10.064  18.062  0.00  0.00    +0.000 C 
ATOM     20  C   UNL     1       0.892   9.913  18.930  0.00  0.00    +0.000 C 
ATOM     21  C   UNL     1       1.455  11.338  19.076  0.00  0.00    +0.000 C 
ENDBRANCH  14  20
ENDBRANCH  13  14
ENDBRANCH  12  13
ENDBRANCH   1  12
TORSDOF 7
ENDMDL
MODEL 9
REMARK VINA RESULT:      -6.2      3.450      6.819
REMARK  Name = 
REMARK  10 active torsions:
REMARK  status: ('A' for Active; 'I' for Inactive)
REMARK    1  A    between atoms: C_1  and  C_2
REMARK    2  A    between atoms: C_2  and  C_3
REMARK    3  A    between atoms: C_2  and  N_4
REMARK    4  A    between atoms: N_4  and  C_5
REMARK    5  A    between atoms: N_4  and  C_18
REMARK    6  A    between atoms: C_5  and  C_6
REMARK    7  A    between atoms: C_6  and  O_7
REMARK    8  A    between atoms: O_7  and  C_8
REMARK    9  A    between atoms: C_12  and  S_13
REMARK   10  A    between atoms: S_13  and  C_14
REMARK                            x       y       z     vdW  Elec       q    Type
REMARK                         _______ _______ _______ _____ _____    ______ ____
ROOT
ATOM      1  O   UNL     1       2.653   8.130  18.668  0.00  0.00    +0.000 OA
ENDROOT
BRANCH   1   2
ATOM      2  C   UNL     1       3.042   6.879  18.247  0.00  0.00    +0.000 A 
ATOM      3  C   UNL     1       4.093   6.838  17.321  0.00  0.00    +0.000 A 
ATOM      4  C   UNL     1       4.583   5.612  16.843  0.00  0.00    +0.000 A 
ATOM      5  C   UNL     1       4.026   4.413  17.277  0.00  0.00    +0.000 A 
ATOM      6  C   UNL     1       2.964   4.458  18.184  0.00  0.00    +0.000 A 
ATOM      7  C   UNL     1       2.481   5.672  18.672  0.00  0.00    +0.000 A 
BRANCH   6   8
ATOM      8  S   UNL     1       2.257   2.939  18.783  0.00  0.00    +0.000 S 
ATOM      9  C   UNL     1       3.372   1.694  18.195  0.00  0.00    +0.000 C 
ATOM     10  O   UNL     1       2.322   2.966  20.233  0.00  0.00    +0.000 OA
ATOM     11  O   UNL     1       0.984   2.757  18.100  0.00  0.00    +0.000 OA
ENDBRANCH   6   8
ENDBRANCH   1   2
BRANCH   1  12
ATOM     12  C   UNL     1       1.734   8.816  17.799  0.00  0.00    +0.000 C 
BRANCH  12  13
ATOM     13  C   UNL     1       1.153  10.091  18.455  0.00  0.00    +0.000 C 
BRANCH  13  14
ATOM     14  N   UNL     1       0.035   9.900  19.445  0.00  0.00    +0.000 NA
BRANCH  14  15
ATOM     15  C   UNL     1       0.568  10.118  20.816  0.00  0.00    +0.000 C 
ATOM     16  C   UNL     1      -0.542  10.453  21.853  0.00  0.00    +0.000 C 
ATOM     17  C   UNL     1       0.157   9.500  22.827  0.00  0.00    +0.000 C 
ATOM     18  C   UNL     1       0.682   8.757  21.580  0.00  0.00    +0.000 C 
ENDBRANCH  14  15
BRANCH  14  20
ATOM     19  C   UNL     1      -0.714  12.144  18.551  0.00  0.00    +0.000 C 
ATOM     20  C   UNL     1      -1.139  10.782  19.140  0.00  0.00    +0.000 C 
ATOM     21  C   UNL     1      -2.136  10.196  18.124  0.00  0.00    +0.000 C 
ENDBRANCH  14  20
ENDBRANCH  13  14
ENDBRANCH  12  13
ENDBRANCH   1  12
TORSDOF 7
ENDMDL
