MODEL 1
REMARK VINA RESULT:      -7.5      0.000      0.000
REMARK  Name = 
REMARK  8 active torsions:
REMARK  status: ('A' for Active; 'I' for Inactive)
REMARK    1  A    between atoms: C_1  and  C_2
REMARK    2  A    between atoms: C_2  and  O_3
REMARK    3  A    between atoms: O_3  and  C_4
REMARK    4  A    between atoms: C_7  and  C_8
REMARK    5  A    between atoms: C_8  and  N_9
REMARK    6  A    between atoms: C_10  and  C_12
REMARK    7  A    between atoms: C_24  and  O_25
REMARK    8  A    between atoms: O_25  and  C_26
REMARK                            x       y       z     vdW  Elec       q    Type
REMARK                         _______ _______ _______ _____ _____    ______ ____
ROOT
ATOM      1  N   UNL     1       1.374   9.689  18.887  0.00  0.00    +0.000 N 
ATOM      2  C   UNL     1       1.526   8.769  19.893  0.00  0.00    +0.000 C 
ATOM      3  O   UNL     1       1.182   8.954  21.054  0.00  0.00    +0.000 OA
ATOM      4  H   UNL     1       1.487   9.406  17.924  0.00  0.00    +0.000 HD
ENDROOT
BRANCH   2   5
ATOM      5  C   UNL     1       2.085   7.461  19.467  0.00  0.00    +0.000 C 
ATOM      6  C   UNL     1       2.824   7.313  18.354  0.00  0.00    +0.000 C 
ATOM      7  C   UNL     1       3.278   5.958  18.044  0.00  0.00    +0.000 A 
ATOM      8  C   UNL     1       4.252   5.737  17.068  0.00  0.00    +0.000 A 
ATOM      9  C   UNL     1       4.597   4.430  16.730  0.00  0.00    +0.000 A 
ATOM     10 BR   UNL     1       5.943   4.127  15.438  0.00  0.00    +0.000 Br
ATOM     11  C   UNL     1       3.954   3.343  17.326  0.00  0.00    +0.000 A 
ATOM     12  C   UNL     1       2.981   3.566  18.303  0.00  0.00    +0.000 A 
ATOM     13  C   UNL     1       2.671   4.872  18.682  0.00  0.00    +0.000 A 
ATOM     14  O   UNL     1       1.730   5.034  19.666  0.00  0.00    +0.000 OA
ATOM     15  C   UNL     1       1.856   6.286  20.378  0.00  0.00    +0.000 C 
ENDBRANCH   2   5
BRANCH   1  16
ATOM     16  C   UNL     1       0.763  10.975  19.126  0.00  0.00    +0.000 C 
BRANCH  16  20
ATOM     17  C   UNL     1      -3.391  11.154  17.907  0.00  0.00    +0.000 A 
ATOM     18  C   UNL     1      -2.950  11.819  19.066  0.00  0.00    +0.000 A 
ATOM     19  C   UNL     1      -1.619  11.743  19.485  0.00  0.00    +0.000 A 
ATOM     20  C   UNL     1      -0.701  10.972  18.773  0.00  0.00    +0.000 A 
ATOM     21  C   UNL     1      -1.165  10.233  17.677  0.00  0.00    +0.000 A 
ATOM     22  C   UNL     1      -2.497  10.308  17.234  0.00  0.00    +0.000 A 
BRANCH  22  23
ATOM     23  O   UNL     1      -2.711   9.516  16.138  0.00  0.00    +0.000 OA
ATOM     24  C   UNL     1      -2.883  10.116  14.866  0.00  0.00    +0.000 C 
ENDBRANCH  22  23
BRANCH  17  25
ATOM     25  O   UNL     1      -4.667  11.314  17.430  0.00  0.00    +0.000 OA
BRANCH  25  27
ATOM     26  C   UNL     1      -6.779  10.821  18.471  0.00  0.00    +0.000 C 
ATOM     27  C   UNL     1      -5.625  11.802  18.378  0.00  0.00    +0.000 C 
ENDBRANCH  25  27
ENDBRANCH  17  25
ENDBRANCH  16  20
ENDBRANCH   1  16
TORSDOF 6
ENDMDL
MODEL 2
REMARK VINA RESULT:      -7.4      1.353      1.764
REMARK  Name = 
REMARK  8 active torsions:
REMARK  status: ('A' for Active; 'I' for Inactive)
REMARK    1  A    between atoms: C_1  and  C_2
REMARK    2  A    between atoms: C_2  and  O_3
REMARK    3  A    between atoms: O_3  and  C_4
REMARK    4  A    between atoms: C_7  and  C_8
REMARK    5  A    between atoms: C_8  and  N_9
REMARK    6  A    between atoms: C_10  and  C_12
REMARK    7  A    between atoms: C_24  and  O_25
REMARK    8  A    between atoms: O_25  and  C_26
REMARK                            x       y       z     vdW  Elec       q    Type
REMARK                         _______ _______ _______ _____ _____    ______ ____
ROOT
ATOM      1  N   UNL     1       1.061  10.084  19.035  0.00  0.00    +0.000 N 
ATOM      2  C   UNL     1       1.350   8.965  19.774  0.00  0.00    +0.000 C 
ATOM      3  O   UNL     1       1.006   8.800  20.938  0.00  0.00    +0.000 OA
ATOM      4  H   UNL     1       1.192  10.073  18.033  0.00  0.00    +0.000 HD
ENDROOT
BRANCH   2   5
ATOM      5  C   UNL     1       2.066   7.893  19.037  0.00  0.00    +0.000 C 
ATOM      6  C   UNL     1       2.140   6.628  19.484  0.00  0.00    +0.000 C 
ATOM      7  C   UNL     1       2.908   5.688  18.669  0.00  0.00    +0.000 A 
ATOM      8  C   UNL     1       2.834   4.314  18.902  0.00  0.00    +0.000 A 
ATOM      9  C   UNL     1       3.647   3.451  18.169  0.00  0.00    +0.000 A 
ATOM     10 BR   UNL     1       3.522   1.586  18.455  0.00  0.00    +0.000 Br
ATOM     11  C   UNL     1       4.560   3.947  17.237  0.00  0.00    +0.000 A 
ATOM     12  C   UNL     1       4.631   5.322  17.003  0.00  0.00    +0.000 A 
ATOM     13  C   UNL     1       3.781   6.184  17.696  0.00  0.00    +0.000 A 
ATOM     14  O   UNL     1       3.872   7.522  17.408  0.00  0.00    +0.000 OA
ATOM     15  C   UNL     1       2.661   8.255  17.704  0.00  0.00    +0.000 C 
ENDBRANCH   2   5
BRANCH   1  16
ATOM     16  C   UNL     1       0.294  11.175  19.585  0.00  0.00    +0.000 C 
BRANCH  16  20
ATOM     17  C   UNL     1      -3.705  11.348  17.928  0.00  0.00    +0.000 A 
ATOM     18  C   UNL     1      -3.385  12.037  19.112  0.00  0.00    +0.000 A 
ATOM     19  C   UNL     1      -2.107  11.964  19.672  0.00  0.00    +0.000 A 
ATOM     20  C   UNL     1      -1.125  11.172  19.079  0.00  0.00    +0.000 A 
ATOM     21  C   UNL     1      -1.475  10.411  17.956  0.00  0.00    +0.000 A 
ATOM     22  C   UNL     1      -2.752  10.482  17.372  0.00  0.00    +0.000 A 
BRANCH  22  23
ATOM     23  O   UNL     1      -2.855   9.667  16.278  0.00  0.00    +0.000 OA
ATOM     24  C   UNL     1      -2.872  10.237  14.981  0.00  0.00    +0.000 C 
ENDBRANCH  22  23
BRANCH  17  25
ATOM     25  O   UNL     1      -4.923  11.504  17.314  0.00  0.00    +0.000 OA
BRANCH  25  27
ATOM     26  C   UNL     1      -7.062  12.178  18.183  0.00  0.00    +0.000 C 
ATOM     27  C   UNL     1      -6.056  11.048  18.063  0.00  0.00    +0.000 C 
ENDBRANCH  25  27
ENDBRANCH  17  25
ENDBRANCH  16  20
ENDBRANCH   1  16
TORSDOF 6
ENDMDL
MODEL 3
REMARK VINA RESULT:      -7.3      3.990      9.465
REMARK  Name = 
REMARK  8 active torsions:
REMARK  status: ('A' for Active; 'I' for Inactive)
REMARK    1  A    between atoms: C_1  and  C_2
REMARK    2  A    between atoms: C_2  and  O_3
REMARK    3  A    between atoms: O_3  and  C_4
REMARK    4  A    between atoms: C_7  and  C_8
REMARK    5  A    between atoms: C_8  and  N_9
REMARK    6  A    between atoms: C_10  and  C_12
REMARK    7  A    between atoms: C_24  and  O_25
REMARK    8  A    between atoms: O_25  and  C_26
REMARK                            x       y       z     vdW  Elec       q    Type
REMARK                         _______ _______ _______ _____ _____    ______ ____
ROOT
ATOM      1  N   UNL     1       2.937   5.787  18.935  0.00  0.00    +0.000 N 
ATOM      2  C   UNL     1       2.282   6.216  20.062  0.00  0.00    +0.000 C 
ATOM      3  O   UNL     1       2.192   5.567  21.096  0.00  0.00    +0.000 OA
ATOM      4  H   UNL     1       3.151   6.442  18.197  0.00  0.00    +0.000 HD
ENDROOT
BRANCH   2   5
ATOM      5  C   UNL     1       1.731   7.593  19.981  0.00  0.00    +0.000 C 
ATOM      6  C   UNL     1       1.000   8.143  20.966  0.00  0.00    +0.000 C 
ATOM      7  C   UNL     1       0.495   9.494  20.731  0.00  0.00    +0.000 A 
ATOM      8  C   UNL     1      -0.046  10.246  21.775  0.00  0.00    +0.000 A 
ATOM      9  C   UNL     1      -0.604  11.494  21.502  0.00  0.00    +0.000 A 
ATOM     10 BR   UNL     1      -1.302  12.531  22.920  0.00  0.00    +0.000 Br
ATOM     11  C   UNL     1      -0.662  11.981  20.195  0.00  0.00    +0.000 A 
ATOM     12  C   UNL     1      -0.118  11.229  19.152  0.00  0.00    +0.000 A 
ATOM     13  C   UNL     1       0.488  10.003  19.429  0.00  0.00    +0.000 A 
ATOM     14  O   UNL     1       1.032   9.318  18.373  0.00  0.00    +0.000 OA
ATOM     15  C   UNL     1       2.080   8.403  18.763  0.00  0.00    +0.000 C 
ENDBRANCH   2   5
BRANCH   1  16
ATOM     16  C   UNL     1       3.602   4.507  18.891  0.00  0.00    +0.000 C 
BRANCH  16  20
ATOM     17  C   UNL     1       6.746   4.722  15.918  0.00  0.00    +0.000 A 
ATOM     18  C   UNL     1       5.667   3.833  15.763  0.00  0.00    +0.000 A 
ATOM     19  C   UNL     1       4.663   3.733  16.730  0.00  0.00    +0.000 A 
ATOM     20  C   UNL     1       4.731   4.497  17.893  0.00  0.00    +0.000 A 
ATOM     21  C   UNL     1       5.856   5.309  18.090  0.00  0.00    +0.000 A 
ATOM     22  C   UNL     1       6.868   5.431  17.122  0.00  0.00    +0.000 A 
BRANCH  22  23
ATOM     23  O   UNL     1       7.854   6.292  17.525  0.00  0.00    +0.000 OA
ATOM     24  C   UNL     1       7.574   7.678  17.622  0.00  0.00    +0.000 C 
ENDBRANCH  22  23
BRANCH  17  25
ATOM     25  O   UNL     1       7.674   4.904  14.923  0.00  0.00    +0.000 OA
BRANCH  25  27
ATOM     26  C   UNL     1       8.157   5.556  12.658  0.00  0.00    +0.000 C 
ATOM     27  C   UNL     1       7.158   4.889  13.586  0.00  0.00    +0.000 C 
ENDBRANCH  25  27
ENDBRANCH  17  25
ENDBRANCH  16  20
ENDBRANCH   1  16
TORSDOF 6
ENDMDL
MODEL 4
REMARK VINA RESULT:      -7.2      3.443      5.376
REMARK  Name = 
REMARK  8 active torsions:
REMARK  status: ('A' for Active; 'I' for Inactive)
REMARK    1  A    between atoms: C_1  and  C_2
REMARK    2  A    between atoms: C_2  and  O_3
REMARK    3  A    between atoms: O_3  and  C_4
REMARK    4  A    between atoms: C_7  and  C_8
REMARK    5  A    between atoms: C_8  and  N_9
REMARK    6  A    between atoms: C_10  and  C_12
REMARK    7  A    between atoms: C_24  and  O_25
REMARK    8  A    between atoms: O_25  and  C_26
REMARK                            x       y       z     vdW  Elec       q    Type
REMARK                         _______ _______ _______ _____ _____    ______ ____
ROOT
ATOM      1  N   UNL     1       3.351   6.399  18.392  0.00  0.00    +0.000 N 
ATOM      2  C   UNL     1       4.573   5.776  18.438  0.00  0.00    +0.000 C 
ATOM      3  O   UNL     1       5.086   5.339  19.461  0.00  0.00    +0.000 OA
ATOM      4  H   UNL     1       2.896   6.550  17.504  0.00  0.00    +0.000 HD
ENDROOT
BRANCH   2   5
ATOM      5  C   UNL     1       5.230   5.587  17.120  0.00  0.00    +0.000 C 
ATOM      6  C   UNL     1       4.885   4.606  16.269  0.00  0.00    +0.000 C 
ATOM      7  C   UNL     1       5.645   4.522  15.022  0.00  0.00    +0.000 A 
ATOM      8  C   UNL     1       5.205   3.717  13.971  0.00  0.00    +0.000 A 
ATOM      9  C   UNL     1       5.997   3.586  12.831  0.00  0.00    +0.000 A 
ATOM     10 BR   UNL     1       5.386   2.527  11.390  0.00  0.00    +0.000 Br
ATOM     11  C   UNL     1       7.239   4.218  12.747  0.00  0.00    +0.000 A 
ATOM     12  C   UNL     1       7.676   5.025  13.799  0.00  0.00    +0.000 A 
ATOM     13  C   UNL     1       6.862   5.201  14.918  0.00  0.00    +0.000 A 
ATOM     14  O   UNL     1       7.327   6.027  15.910  0.00  0.00    +0.000 OA
ATOM     15  C   UNL     1       6.274   6.595  16.722  0.00  0.00    +0.000 C 
ENDBRANCH   2   5
BRANCH   1  16
ATOM     16  C   UNL     1       2.550   6.576  19.579  0.00  0.00    +0.000 C 
BRANCH  16  20
ATOM     17  C   UNL     1       0.623  10.449  19.834  0.00  0.00    +0.000 A 
ATOM     18  C   UNL     1       1.083   9.952  18.601  0.00  0.00    +0.000 A 
ATOM     19  C   UNL     1       1.733   8.718  18.511  0.00  0.00    +0.000 A 
ATOM     20  C   UNL     1       1.969   7.964  19.660  0.00  0.00    +0.000 A 
ATOM     21  C   UNL     1       1.597   8.506  20.898  0.00  0.00    +0.000 A 
ATOM     22  C   UNL     1       0.931   9.739  21.004  0.00  0.00    +0.000 A 
BRANCH  22  23
ATOM     23  O   UNL     1       0.653  10.054  22.307  0.00  0.00    +0.000 OA
ATOM     24  C   UNL     1      -0.532   9.560  22.907  0.00  0.00    +0.000 C 
ENDBRANCH  22  23
BRANCH  17  25
ATOM     25  O   UNL     1      -0.112  11.605  19.912  0.00  0.00    +0.000 OA
BRANCH  25  27
ATOM     26  C   UNL     1      -0.084  13.911  19.228  0.00  0.00    +0.000 C 
ATOM     27  C   UNL     1       0.648  12.817  19.984  0.00  0.00    +0.000 C 
ENDBRANCH  25  27
ENDBRANCH  17  25
ENDBRANCH  16  20
ENDBRANCH   1  16
TORSDOF 6
ENDMDL
MODEL 5
REMARK VINA RESULT:      -7.2      1.034      2.057
REMARK  Name = 
REMARK  8 active torsions:
REMARK  status: ('A' for Active; 'I' for Inactive)
REMARK    1  A    between atoms: C_1  and  C_2
REMARK    2  A    between atoms: C_2  and  O_3
REMARK    3  A    between atoms: O_3  and  C_4
REMARK    4  A    between atoms: C_7  and  C_8
REMARK    5  A    between atoms: C_8  and  N_9
REMARK    6  A    between atoms: C_10  and  C_12
REMARK    7  A    between atoms: C_24  and  O_25
REMARK    8  A    between atoms: O_25  and  C_26
REMARK                            x       y       z     vdW  Elec       q    Type
REMARK                         _______ _______ _______ _____ _____    ______ ____
ROOT
ATOM      1  N   UNL     1       1.288   9.429  19.678  0.00  0.00    +0.000 N 
ATOM      2  C   UNL     1       1.485   8.314  20.453  0.00  0.00    +0.000 C 
ATOM      3  O   UNL     1       1.128   8.214  21.621  0.00  0.00    +0.000 OA
ATOM      4  H   UNL     1       1.417   9.377  18.678  0.00  0.00    +0.000 HD
ENDROOT
BRANCH   2   5
ATOM      5  C   UNL     1       2.110   7.165  19.751  0.00  0.00    +0.000 C 
ATOM      6  C   UNL     1       2.863   7.309  18.647  0.00  0.00    +0.000 C 
ATOM      7  C   UNL     1       3.386   6.084  18.045  0.00  0.00    +0.000 A 
ATOM      8  C   UNL     1       4.376   6.137  17.063  0.00  0.00    +0.000 A 
ATOM      9  C   UNL     1       4.788   4.959  16.442  0.00  0.00    +0.000 A 
ATOM     10 BR   UNL     1       6.157   5.022  15.140  0.00  0.00    +0.000 Br
ATOM     11  C   UNL     1       4.195   3.737  16.762  0.00  0.00    +0.000 A 
ATOM     12  C   UNL     1       3.205   3.685  17.746  0.00  0.00    +0.000 A 
ATOM     13  C   UNL     1       2.828   4.854  18.407  0.00  0.00    +0.000 A 
ATOM     14  O   UNL     1       1.873   4.744  19.385  0.00  0.00    +0.000 OA
ATOM     15  C   UNL     1       1.933   5.804  20.366  0.00  0.00    +0.000 C 
ENDBRANCH   2   5
BRANCH   1  16
ATOM     16  C   UNL     1       0.612  10.596  20.193  0.00  0.00    +0.000 C 
BRANCH  16  20
ATOM     17  C   UNL     1      -3.150  11.288  18.157  0.00  0.00    +0.000 A 
ATOM     18  C   UNL     1      -2.169  10.450  17.595  0.00  0.00    +0.000 A 
ATOM     19  C   UNL     1      -0.940  10.243  18.228  0.00  0.00    +0.000 A 
ATOM     20  C   UNL     1      -0.648  10.897  19.424  0.00  0.00    +0.000 A 
ATOM     21  C   UNL     1      -1.587  11.806  19.931  0.00  0.00    +0.000 A 
ATOM     22  C   UNL     1      -2.833  12.015  19.314  0.00  0.00    +0.000 A 
BRANCH  22  23
ATOM     23  O   UNL     1      -3.588  12.930  19.996  0.00  0.00    +0.000 OA
ATOM     24  C   UNL     1      -2.946  13.913  20.789  0.00  0.00    +0.000 C 
ENDBRANCH  22  23
BRANCH  17  25
ATOM     25  O   UNL     1      -4.397  11.406  17.598  0.00  0.00    +0.000 OA
BRANCH  25  27
ATOM     26  C   UNL     1      -6.734  11.436  18.167  0.00  0.00    +0.000 C 
ATOM     27  C   UNL     1      -5.436  10.653  18.236  0.00  0.00    +0.000 C 
ENDBRANCH  25  27
ENDBRANCH  17  25
ENDBRANCH  16  20
ENDBRANCH   1  16
TORSDOF 6
ENDMDL
MODEL 6
REMARK VINA RESULT:      -7.2      1.270      1.669
REMARK  Name = 
REMARK  8 active torsions:
REMARK  status: ('A' for Active; 'I' for Inactive)
REMARK    1  A    between atoms: C_1  and  C_2
REMARK    2  A    between atoms: C_2  and  O_3
REMARK    3  A    between atoms: O_3  and  C_4
REMARK    4  A    between atoms: C_7  and  C_8
REMARK    5  A    between atoms: C_8  and  N_9
REMARK    6  A    between atoms: C_10  and  C_12
REMARK    7  A    between atoms: C_24  and  O_25
REMARK    8  A    between atoms: O_25  and  C_26
REMARK                            x       y       z     vdW  Elec       q    Type
REMARK                         _______ _______ _______ _____ _____    ______ ____
ROOT
ATOM      1  N   UNL     1       0.299  10.898  18.420  0.00  0.00    +0.000 N 
ATOM      2  C   UNL     1       0.565  10.301  19.627  0.00  0.00    +0.000 C 
ATOM      3  O   UNL     1       0.160  10.718  20.706  0.00  0.00    +0.000 OA
ATOM      4  H   UNL     1       0.484  10.400  17.561  0.00  0.00    +0.000 HD
ENDROOT
BRANCH   2   5
ATOM      5  C   UNL     1       1.336   9.035  19.545  0.00  0.00    +0.000 C 
ATOM      6  C   UNL     1       1.973   8.643  18.428  0.00  0.00    +0.000 C 
ATOM      7  C   UNL     1       2.663   7.356  18.485  0.00  0.00    +0.000 A 
ATOM      8  C   UNL     1       3.559   6.980  17.482  0.00  0.00    +0.000 A 
ATOM      9  C   UNL     1       4.131   5.709  17.516  0.00  0.00    +0.000 A 
ATOM     10 BR   UNL     1       5.374   5.212  16.181  0.00  0.00    +0.000 Br
ATOM     11  C   UNL     1       3.789   4.798  18.517  0.00  0.00    +0.000 A 
ATOM     12  C   UNL     1       2.895   5.175  19.520  0.00  0.00    +0.000 A 
ATOM     13  C   UNL     1       2.361   6.465  19.519  0.00  0.00    +0.000 A 
ATOM     14  O   UNL     1       1.511   6.793  20.543  0.00  0.00    +0.000 OA
ATOM     15  C   UNL     1       1.447   8.215  20.800  0.00  0.00    +0.000 C 
ENDBRANCH   2   5
BRANCH   1  16
ATOM     16  C   UNL     1      -0.514  12.087  18.329  0.00  0.00    +0.000 C 
BRANCH  16  20
ATOM     17  C   UNL     1      -4.750  11.365  17.771  0.00  0.00    +0.000 A 
ATOM     18  C   UNL     1      -4.257  11.859  18.993  0.00  0.00    +0.000 A 
ATOM     19  C   UNL     1      -2.890  12.067  19.195  0.00  0.00    +0.000 A 
ATOM     20  C   UNL     1      -1.977  11.754  18.189  0.00  0.00    +0.000 A 
ATOM     21  C   UNL     1      -2.461  11.171  17.010  0.00  0.00    +0.000 A 
ATOM     22  C   UNL     1      -3.834  10.968  16.786  0.00  0.00    +0.000 A 
BRANCH  22  23
ATOM     23  O   UNL     1      -4.069  10.404  15.561  0.00  0.00    +0.000 OA
ATOM     24  C   UNL     1      -3.009  10.297  14.627  0.00  0.00    +0.000 C 
ENDBRANCH  22  23
BRANCH  17  25
ATOM     25  O   UNL     1      -6.097  11.264  17.530  0.00  0.00    +0.000 OA
BRANCH  25  27
ATOM     26  C   UNL     1      -7.609  12.622  18.817  0.00  0.00    +0.000 C 
ATOM     27  C   UNL     1      -6.936  11.267  18.691  0.00  0.00    +0.000 C 
ENDBRANCH  25  27
ENDBRANCH  17  25
ENDBRANCH  16  20
ENDBRANCH   1  16
TORSDOF 6
ENDMDL
MODEL 7
REMARK VINA RESULT:      -7.1      4.114      9.162
REMARK  Name = 
REMARK  8 active torsions:
REMARK  status: ('A' for Active; 'I' for Inactive)
REMARK    1  A    between atoms: C_1  and  C_2
REMARK    2  A    between atoms: C_2  and  O_3
REMARK    3  A    between atoms: O_3  and  C_4
REMARK    4  A    between atoms: C_7  and  C_8
REMARK    5  A    between atoms: C_8  and  N_9
REMARK    6  A    between atoms: C_10  and  C_12
REMARK    7  A    between atoms: C_24  and  O_25
REMARK    8  A    between atoms: O_25  and  C_26
REMARK                            x       y       z     vdW  Elec       q    Type
REMARK                         _______ _______ _______ _____ _____    ______ ____
ROOT
ATOM      1  N   UNL     1       3.872   5.539  19.635  0.00  0.00    +0.000 N 
ATOM      2  C   UNL     1       2.698   5.845  18.995  0.00  0.00    +0.000 C 
ATOM      3  O   UNL     1       2.187   5.152  18.122  0.00  0.00    +0.000 OA
ATOM      4  H   UNL     1       4.131   6.034  20.476  0.00  0.00    +0.000 HD
ENDROOT
BRANCH   2   5
ATOM      5  C   UNL     1       2.015   7.068  19.487  0.00  0.00    +0.000 C 
ATOM      6  C   UNL     1       1.859   8.168  18.731  0.00  0.00    +0.000 C 
ATOM      7  C   UNL     1       1.197   9.309  19.361  0.00  0.00    +0.000 A 
ATOM      8  C   UNL     1       0.759  10.392  18.598  0.00  0.00    +0.000 A 
ATOM      9  C   UNL     1       0.215  11.505  19.238  0.00  0.00    +0.000 A 
ATOM     10 BR   UNL     1      -0.415  12.957  18.204  0.00  0.00    +0.000 Br
ATOM     11  C   UNL     1       0.140  11.563  20.630  0.00  0.00    +0.000 A 
ATOM     12  C   UNL     1       0.577  10.478  21.393  0.00  0.00    +0.000 A 
ATOM     13  C   UNL     1       1.073   9.341  20.754  0.00  0.00    +0.000 A 
ATOM     14  O   UNL     1       1.461   8.293  21.547  0.00  0.00    +0.000 OA
ATOM     15  C   UNL     1       1.424   7.017  20.869  0.00  0.00    +0.000 C 
ENDBRANCH   2   5
BRANCH   1  16
ATOM     16  C   UNL     1       4.607   4.335  19.329  0.00  0.00    +0.000 C 
BRANCH  16  20
ATOM     17  C   UNL     1       6.533   4.862  15.484  0.00  0.00    +0.000 A 
ATOM     18  C   UNL     1       5.645   3.794  15.704  0.00  0.00    +0.000 A 
ATOM     19  C   UNL     1       5.041   3.597  16.949  0.00  0.00    +0.000 A 
ATOM     20  C   UNL     1       5.337   4.444  18.015  0.00  0.00    +0.000 A 
ATOM     21  C   UNL     1       6.297   5.447  17.820  0.00  0.00    +0.000 A 
ATOM     22  C   UNL     1       6.903   5.667  16.571  0.00  0.00    +0.000 A 
BRANCH  22  23
ATOM     23  O   UNL     1       7.790   6.709  16.616  0.00  0.00    +0.000 OA
ATOM     24  C   UNL     1       7.519   7.822  17.450  0.00  0.00    +0.000 C 
ENDBRANCH  22  23
BRANCH  17  25
ATOM     25  O   UNL     1       7.042   5.125  14.236  0.00  0.00    +0.000 OA
BRANCH  25  27
ATOM     26  C   UNL     1       7.274   3.997  12.125  0.00  0.00    +0.000 C 
ATOM     27  C   UNL     1       6.304   4.575  13.139  0.00  0.00    +0.000 C 
ENDBRANCH  25  27
ENDBRANCH  17  25
ENDBRANCH  16  20
ENDBRANCH   1  16
TORSDOF 6
ENDMDL
MODEL 8
REMARK VINA RESULT:      -7.1      3.517      8.744
REMARK  Name = 
REMARK  8 active torsions:
REMARK  status: ('A' for Active; 'I' for Inactive)
REMARK    1  A    between atoms: C_1  and  C_2
REMARK    2  A    between atoms: C_2  and  O_3
REMARK    3  A    between atoms: O_3  and  C_4
REMARK    4  A    between atoms: C_7  and  C_8
REMARK    5  A    between atoms: C_8  and  N_9
REMARK    6  A    between atoms: C_10  and  C_12
REMARK    7  A    between atoms: C_24  and  O_25
REMARK    8  A    between atoms: O_25  and  C_26
REMARK                            x       y       z     vdW  Elec       q    Type
REMARK                         _______ _______ _______ _____ _____    ______ ____
ROOT
ATOM      1  N   UNL     1       0.847   9.407  17.794  0.00  0.00    +0.000 N 
ATOM      2  C   UNL     1       0.329  10.382  18.608  0.00  0.00    +0.000 C 
ATOM      3  O   UNL     1       0.983  11.014  19.429  0.00  0.00    +0.000 OA
ATOM      4  H   UNL     1       0.312   9.071  17.006  0.00  0.00    +0.000 HD
ENDROOT
BRANCH   2   5
ATOM      5  C   UNL     1      -1.105  10.693  18.379  0.00  0.00    +0.000 C 
ATOM      6  C   UNL     1      -1.832  11.439  19.229  0.00  0.00    +0.000 C 
ATOM      7  C   UNL     1      -3.240  11.633  18.891  0.00  0.00    +0.000 A 
ATOM      8  C   UNL     1      -4.010  12.589  19.556  0.00  0.00    +0.000 A 
ATOM      9  C   UNL     1      -5.372  12.688  19.276  0.00  0.00    +0.000 A 
ATOM     10 BR   UNL     1      -6.408  14.007  20.147  0.00  0.00    +0.000 Br
ATOM     11  C   UNL     1      -5.980  11.817  18.369  0.00  0.00    +0.000 A 
ATOM     12  C   UNL     1      -5.209  10.863  17.703  0.00  0.00    +0.000 A 
ATOM     13  C   UNL     1      -3.836  10.797  17.942  0.00  0.00    +0.000 A 
ATOM     14  O   UNL     1      -3.120   9.861  17.240  0.00  0.00    +0.000 OA
ATOM     15  C   UNL     1      -1.721  10.197  17.100  0.00  0.00    +0.000 C 
ENDBRANCH   2   5
BRANCH   1  16
ATOM     16  C   UNL     1       2.246   9.054  17.836  0.00  0.00    +0.000 C 
BRANCH  16  20
ATOM     17  C   UNL     1       2.658   5.124  19.615  0.00  0.00    +0.000 A 
ATOM     18  C   UNL     1       2.107   6.192  20.346  0.00  0.00    +0.000 A 
ATOM     19  C   UNL     1       1.997   7.471  19.793  0.00  0.00    +0.000 A 
ATOM     20  C   UNL     1       2.467   7.722  18.505  0.00  0.00    +0.000 A 
ATOM     21  C   UNL     1       3.104   6.680  17.816  0.00  0.00    +0.000 A 
ATOM     22  C   UNL     1       3.211   5.385  18.352  0.00  0.00    +0.000 A 
BRANCH  22  23
ATOM     23  O   UNL     1       3.853   4.534  17.494  0.00  0.00    +0.000 OA
ATOM     24  C   UNL     1       4.841   5.042  16.615  0.00  0.00    +0.000 C 
ENDBRANCH  22  23
BRANCH  17  25
ATOM     25  O   UNL     1       2.667   3.845  20.111  0.00  0.00    +0.000 OA
BRANCH  25  27
ATOM     26  C   UNL     1       0.807   2.723  19.079  0.00  0.00    +0.000 C 
ATOM     27  C   UNL     1       1.379   3.274  20.372  0.00  0.00    +0.000 C 
ENDBRANCH  25  27
ENDBRANCH  17  25
ENDBRANCH  16  20
ENDBRANCH   1  16
TORSDOF 6
ENDMDL
MODEL 9
REMARK VINA RESULT:      -7.0      1.805      2.306
REMARK  Name = 
REMARK  8 active torsions:
REMARK  status: ('A' for Active; 'I' for Inactive)
REMARK    1  A    between atoms: C_1  and  C_2
REMARK    2  A    between atoms: C_2  and  O_3
REMARK    3  A    between atoms: O_3  and  C_4
REMARK    4  A    between atoms: C_7  and  C_8
REMARK    5  A    between atoms: C_8  and  N_9
REMARK    6  A    between atoms: C_10  and  C_12
REMARK    7  A    between atoms: C_24  and  O_25
REMARK    8  A    between atoms: O_25  and  C_26
REMARK                            x       y       z     vdW  Elec       q    Type
REMARK                         _______ _______ _______ _____ _____    ______ ____
ROOT
ATOM      1  N   UNL     1       0.445  10.914  18.595  0.00  0.00    +0.000 N 
ATOM      2  C   UNL     1       0.751  10.010  19.581  0.00  0.00    +0.000 C 
ATOM      3  O   UNL     1       0.391  10.115  20.747  0.00  0.00    +0.000 OA
ATOM      4  H   UNL     1       0.593  10.671  17.625  0.00  0.00    +0.000 HD
ENDROOT
BRANCH   2   5
ATOM      5  C   UNL     1       1.506   8.816  19.125  0.00  0.00    +0.000 C 
ATOM      6  C   UNL     1       1.742   7.757  19.919  0.00  0.00    +0.000 C 
ATOM      7  C   UNL     1       2.529   6.669  19.344  0.00  0.00    +0.000 A 
ATOM      8  C   UNL     1       2.611   5.431  19.984  0.00  0.00    +0.000 A 
ATOM      9  C   UNL     1       3.443   4.443  19.459  0.00  0.00    +0.000 A 
ATOM     10 BR   UNL     1       3.525   2.752  20.301  0.00  0.00    +0.000 Br
ATOM     11  C   UNL     1       4.223   4.691  18.328  0.00  0.00    +0.000 A 
ATOM     12  C   UNL     1       4.139   5.929  17.688  0.00  0.00    +0.000 A 
ATOM     13  C   UNL     1       3.267   6.902  18.179  0.00  0.00    +0.000 A 
ATOM     14  O   UNL     1       3.202   8.089  17.497  0.00  0.00    +0.000 OA
ATOM     15  C   UNL     1       1.952   8.791  17.689  0.00  0.00    +0.000 C 
ENDBRANCH   2   5
BRANCH   1  16
ATOM     16  C   UNL     1      -0.360  12.082  18.864  0.00  0.00    +0.000 C 
BRANCH  16  20
ATOM     17  C   UNL     1      -4.515  11.702  17.699  0.00  0.00    +0.000 A 
ATOM     18  C   UNL     1      -4.163  11.985  19.031  0.00  0.00    +0.000 A 
ATOM     19  C   UNL     1      -2.826  12.080  19.425  0.00  0.00    +0.000 A 
ATOM     20  C   UNL     1      -1.805  11.860  18.501  0.00  0.00    +0.000 A 
ATOM     21  C   UNL     1      -2.158  11.482  17.198  0.00  0.00    +0.000 A 
ATOM     22  C   UNL     1      -3.498  11.395  16.783  0.00  0.00    +0.000 A 
BRANCH  22  23
ATOM     23  O   UNL     1      -3.598  11.028  15.468  0.00  0.00    +0.000 OA
ATOM     24  C   UNL     1      -2.972   9.836  15.026  0.00  0.00    +0.000 C 
ENDBRANCH  22  23
BRANCH  17  25
ATOM     25  O   UNL     1      -5.824  11.717  17.284  0.00  0.00    +0.000 OA
BRANCH  25  27
ATOM     26  C   UNL     1      -7.617  13.012  18.228  0.00  0.00    +0.000 C 
ATOM     27  C   UNL     1      -6.803  11.735  18.330  0.00  0.00    +0.000 C 
ENDBRANCH  25  27
ENDBRANCH  17  25
ENDBRANCH  16  20
ENDBRANCH   1  16
TORSDOF 6
ENDMDL
