MODEL 1
REMARK VINA RESULT:      -8.0      0.000      0.000
REMARK  Name = 
REMARK  7 active torsions:
REMARK  status: ('A' for Active; 'I' for Inactive)
REMARK    1  A    between atoms: C_1  and  O_2
REMARK    2  A    between atoms: O_2  and  C_3
REMARK    3  A    between atoms: N_5  and  C_6
REMARK    4  A    between atoms: C_10  and  C_11
REMARK    5  A    between atoms: C_11  and  N_12
REMARK    6  A    between atoms: N_18  and  C_19
REMARK    7  A    between atoms: N_18  and  C_20
REMARK                            x       y       z     vdW  Elec       q    Type
REMARK                         _______ _______ _______ _____ _____    ______ ____
ROOT
ATOM      1  C   UNL     1       3.026   5.401  18.062  0.00  0.00    +0.000 C 
ENDROOT
BRANCH   1   2
ATOM      2  N   UNL     1       2.364   6.255  19.028  0.00  0.00    +0.000 N 
ATOM      3  C   UNL     1       1.962   5.929  20.298  0.00  0.00    +0.000 A 
ATOM      4 BR   UNL     1       2.140   4.267  21.147  0.00  0.00    +0.000 Br
ATOM      5  N   UNL     1       1.447   6.961  20.925  0.00  0.00    +0.000 NA
ATOM      6  C   UNL     1       1.529   8.020  20.040  0.00  0.00    +0.000 A 
ATOM      7  C   UNL     1       1.239   9.407  20.163  0.00  0.00    +0.000 A 
ATOM      8  N   UNL     1       0.840  10.058  21.321  0.00  0.00    +0.000 N 
ATOM      9  C   UNL     1       0.633   9.372  22.585  0.00  0.00    +0.000 C 
ATOM     10  C   UNL     1       0.343  11.423  21.246  0.00  0.00    +0.000 C 
ATOM     11  N   UNL     1       1.454  10.155  19.034  0.00  0.00    +0.000 NA
ATOM     12  C   UNL     1       1.917   9.576  17.909  0.00  0.00    +0.000 A 
ATOM     13  N   UNL     1       2.224   8.285  17.704  0.00  0.00    +0.000 NA
ATOM     14  C   UNL     1       2.028   7.570  18.824  0.00  0.00    +0.000 A 
ENDBRANCH   1   2
BRANCH   1  19
ATOM     15  C   UNL     1       6.654   5.775  16.874  0.00  0.00    +0.000 A 
ATOM     16  C   UNL     1       7.330   5.567  18.073  0.00  0.00    +0.000 A 
ATOM     17  C   UNL     1       6.645   5.405  19.267  0.00  0.00    +0.000 A 
ATOM     18  C   UNL     1       5.251   5.390  19.269  0.00  0.00    +0.000 A 
ATOM     19  C   UNL     1       4.537   5.568  18.074  0.00  0.00    +0.000 A 
ATOM     20  C   UNL     1       5.247   5.811  16.886  0.00  0.00    +0.000 A 
BRANCH  15  23
ATOM     21  C   UNL     1       7.265   5.036  14.604  0.00  0.00    +0.000 C 
ATOM     22  O   UNL     1       6.613   4.002  14.566  0.00  0.00    +0.000 OA
ATOM     23  N   UNL     1       7.333   5.925  15.652  0.00  0.00    +0.000 N 
ATOM     24  H   UNL     1       7.812   6.792  15.450  0.00  0.00    +0.000 HD
BRANCH  21  26
ATOM     25  C   UNL     1       7.552   4.917  12.314  0.00  0.00    +0.000 C 
ATOM     26  O   UNL     1       8.000   5.487  13.551  0.00  0.00    +0.000 OA
ENDBRANCH  21  26
ENDBRANCH  15  23
ENDBRANCH   1  19
TORSDOF 4
ENDMDL
MODEL 2
REMARK VINA RESULT:      -7.8      3.746      8.083
REMARK  Name = 
REMARK  7 active torsions:
REMARK  status: ('A' for Active; 'I' for Inactive)
REMARK    1  A    between atoms: C_1  and  O_2
REMARK    2  A    between atoms: O_2  and  C_3
REMARK    3  A    between atoms: N_5  and  C_6
REMARK    4  A    between atoms: C_10  and  C_11
REMARK    5  A    between atoms: C_11  and  N_12
REMARK    6  A    between atoms: N_18  and  C_19
REMARK    7  A    between atoms: N_18  and  C_20
REMARK                            x       y       z     vdW  Elec       q    Type
REMARK                         _______ _______ _______ _____ _____    ______ ____
ROOT
ATOM      1  C   UNL     1       3.740   5.552  19.505  0.00  0.00    +0.000 C 
ENDROOT
BRANCH   1   2
ATOM      2  N   UNL     1       4.241   5.076  18.231  0.00  0.00    +0.000 N 
ATOM      3  C   UNL     1       3.650   4.176  17.382  0.00  0.00    +0.000 A 
ATOM      4 BR   UNL     1       2.020   3.285  17.637  0.00  0.00    +0.000 Br
ATOM      5  N   UNL     1       4.348   4.014  16.281  0.00  0.00    +0.000 NA
ATOM      6  C   UNL     1       5.438   4.856  16.399  0.00  0.00    +0.000 A 
ATOM      7  C   UNL     1       6.489   5.208  15.507  0.00  0.00    +0.000 A 
ATOM      8  N   UNL     1       6.613   4.794  14.189  0.00  0.00    +0.000 N 
ATOM      9  C   UNL     1       5.670   3.893  13.549  0.00  0.00    +0.000 C 
ATOM     10  C   UNL     1       7.857   5.030  13.474  0.00  0.00    +0.000 C 
ATOM     11  N   UNL     1       7.406   6.100  16.000  0.00  0.00    +0.000 NA
ATOM     12  C   UNL     1       7.279   6.590  17.250  0.00  0.00    +0.000 A 
ATOM     13  N   UNL     1       6.322   6.322  18.154  0.00  0.00    +0.000 NA
ATOM     14  C   UNL     1       5.422   5.464  17.648  0.00  0.00    +0.000 A 
ENDBRANCH   1   2
BRANCH   1  19
ATOM     15  C   UNL     1       1.190   8.333  20.194  0.00  0.00    +0.000 A 
ATOM     16  C   UNL     1       1.242   9.022  18.985  0.00  0.00    +0.000 A 
ATOM     17  C   UNL     1       2.145   8.670  17.994  0.00  0.00    +0.000 A 
ATOM     18  C   UNL     1       2.981   7.570  18.178  0.00  0.00    +0.000 A 
ATOM     19  C   UNL     1       2.935   6.834  19.373  0.00  0.00    +0.000 A 
ATOM     20  C   UNL     1       2.070   7.254  20.398  0.00  0.00    +0.000 A 
BRANCH  15  23
ATOM     21  C   UNL     1       0.589   9.324  22.369  0.00  0.00    +0.000 C 
ATOM     22  O   UNL     1       1.697   9.721  22.702  0.00  0.00    +0.000 OA
ATOM     23  N   UNL     1       0.269   8.667  21.203  0.00  0.00    +0.000 N 
ATOM     24  H   UNL     1      -0.720   8.542  21.037  0.00  0.00    +0.000 HD
BRANCH  21  26
ATOM     25  C   UNL     1      -0.979  10.893  23.016  0.00  0.00    +0.000 C 
ATOM     26  O   UNL     1      -0.528   9.536  23.115  0.00  0.00    +0.000 OA
ENDBRANCH  21  26
ENDBRANCH  15  23
ENDBRANCH   1  19
TORSDOF 4
ENDMDL
MODEL 3
REMARK VINA RESULT:      -7.4      1.450      1.714
REMARK  Name = 
REMARK  7 active torsions:
REMARK  status: ('A' for Active; 'I' for Inactive)
REMARK    1  A    between atoms: C_1  and  O_2
REMARK    2  A    between atoms: O_2  and  C_3
REMARK    3  A    between atoms: N_5  and  C_6
REMARK    4  A    between atoms: C_10  and  C_11
REMARK    5  A    between atoms: C_11  and  N_12
REMARK    6  A    between atoms: N_18  and  C_19
REMARK    7  A    between atoms: N_18  and  C_20
REMARK                            x       y       z     vdW  Elec       q    Type
REMARK                         _______ _______ _______ _____ _____    ______ ____
ROOT
ATOM      1  C   UNL     1       3.435   3.583  18.552  0.00  0.00    +0.000 C 
ENDROOT
BRANCH   1   2
ATOM      2  N   UNL     1       2.757   4.656  19.253  0.00  0.00    +0.000 N 
ATOM      3  C   UNL     1       2.171   4.608  20.491  0.00  0.00    +0.000 A 
ATOM      4 BR   UNL     1       2.062   3.125  21.634  0.00  0.00    +0.000 Br
ATOM      5  N   UNL     1       1.699   5.779  20.852  0.00  0.00    +0.000 NA
ATOM      6  C   UNL     1       2.002   6.643  19.816  0.00  0.00    +0.000 A 
ATOM      7  C   UNL     1       1.851   8.048  19.653  0.00  0.00    +0.000 A 
ATOM      8  N   UNL     1       1.388   8.936  20.613  0.00  0.00    +0.000 N 
ATOM      9  C   UNL     1       0.956   8.518  21.937  0.00  0.00    +0.000 C 
ATOM     10  C   UNL     1       1.056  10.300  20.233  0.00  0.00    +0.000 C 
ATOM     11  N   UNL     1       2.283   8.551  18.453  0.00  0.00    +0.000 NA
ATOM     12  C   UNL     1       2.813   7.735  17.521  0.00  0.00    +0.000 A 
ATOM     13  N   UNL     1       3.000   6.406  17.589  0.00  0.00    +0.000 NA
ATOM     14  C   UNL     1       2.593   5.933  18.778  0.00  0.00    +0.000 A 
ENDBRANCH   1   2
BRANCH   1  19
ATOM     15  C   UNL     1       6.141   4.184  15.901  0.00  0.00    +0.000 A 
ATOM     16  C   UNL     1       7.191   4.608  16.710  0.00  0.00    +0.000 A 
ATOM     17  C   UNL     1       7.019   4.797  18.073  0.00  0.00    +0.000 A 
ATOM     18  C   UNL     1       5.791   4.502  18.663  0.00  0.00    +0.000 A 
ATOM     19  C   UNL     1       4.719   4.043  17.881  0.00  0.00    +0.000 A 
ATOM     20  C   UNL     1       4.887   3.935  16.490  0.00  0.00    +0.000 A 
BRANCH  15  23
ATOM     21  C   UNL     1       7.146   4.698  13.710  0.00  0.00    +0.000 C 
ATOM     22  O   UNL     1       7.878   5.615  14.056  0.00  0.00    +0.000 OA
ATOM     23  N   UNL     1       6.303   3.973  14.520  0.00  0.00    +0.000 N 
ATOM     24  H   UNL     1       5.881   3.163  14.086  0.00  0.00    +0.000 HD
BRANCH  21  26
ATOM     25  C   UNL     1       6.054   3.264  12.265  0.00  0.00    +0.000 C 
ATOM     26  O   UNL     1       7.107   4.222  12.437  0.00  0.00    +0.000 OA
ENDBRANCH  21  26
ENDBRANCH  15  23
ENDBRANCH   1  19
TORSDOF 4
ENDMDL
MODEL 4
REMARK VINA RESULT:      -7.2      1.011      1.026
REMARK  Name = 
REMARK  7 active torsions:
REMARK  status: ('A' for Active; 'I' for Inactive)
REMARK    1  A    between atoms: C_1  and  O_2
REMARK    2  A    between atoms: O_2  and  C_3
REMARK    3  A    between atoms: N_5  and  C_6
REMARK    4  A    between atoms: C_10  and  C_11
REMARK    5  A    between atoms: C_11  and  N_12
REMARK    6  A    between atoms: N_18  and  C_19
REMARK    7  A    between atoms: N_18  and  C_20
REMARK                            x       y       z     vdW  Elec       q    Type
REMARK                         _______ _______ _______ _____ _____    ______ ____
ROOT
ATOM      1  C   UNL     1       3.653   4.287  18.610  0.00  0.00    +0.000 C 
ENDROOT
BRANCH   1   2
ATOM      2  N   UNL     1       2.823   5.243  19.317  0.00  0.00    +0.000 N 
ATOM      3  C   UNL     1       2.169   5.064  20.509  0.00  0.00    +0.000 A 
ATOM      4 BR   UNL     1       2.144   3.513  21.563  0.00  0.00    +0.000 Br
ATOM      5  N   UNL     1       1.554   6.159  20.896  0.00  0.00    +0.000 NA
ATOM      6  C   UNL     1       1.830   7.107  19.929  0.00  0.00    +0.000 A 
ATOM      7  C   UNL     1       1.543   8.497  19.829  0.00  0.00    +0.000 A 
ATOM      8  N   UNL     1       0.930   9.276  20.799  0.00  0.00    +0.000 N 
ATOM      9  C   UNL     1       0.461   8.740  22.066  0.00  0.00    +0.000 C 
ATOM     10  C   UNL     1       0.481  10.619  20.468  0.00  0.00    +0.000 C 
ATOM     11  N   UNL     1       1.994   9.110  18.688  0.00  0.00    +0.000 NA
ATOM     12  C   UNL     1       2.665   8.407  17.754  0.00  0.00    +0.000 A 
ATOM     13  N   UNL     1       2.986   7.103  17.767  0.00  0.00    +0.000 NA
ATOM     14  C   UNL     1       2.556   6.523  18.899  0.00  0.00    +0.000 A 
ENDBRANCH   1   2
BRANCH   1  19
ATOM     15  C   UNL     1       6.843   5.200  16.687  0.00  0.00    +0.000 A 
ATOM     16  C   UNL     1       7.672   5.569  17.743  0.00  0.00    +0.000 A 
ATOM     17  C   UNL     1       7.198   5.624  19.045  0.00  0.00    +0.000 A 
ATOM     18  C   UNL     1       5.885   5.245  19.320  0.00  0.00    +0.000 A 
ATOM     19  C   UNL     1       5.030   4.839  18.284  0.00  0.00    +0.000 A 
ATOM     20  C   UNL     1       5.503   4.867  16.961  0.00  0.00    +0.000 A 
BRANCH  15  23
ATOM     21  C   UNL     1       6.567   4.683  14.293  0.00  0.00    +0.000 C 
ATOM     22  O   UNL     1       5.405   4.302  14.321  0.00  0.00    +0.000 OA
ATOM     23  N   UNL     1       7.311   5.125  15.363  0.00  0.00    +0.000 N 
ATOM     24  H   UNL     1       8.206   5.531  15.127  0.00  0.00    +0.000 HD
BRANCH  21  26
ATOM     25  C   UNL     1       6.872   3.795  12.181  0.00  0.00    +0.000 C 
ATOM     26  O   UNL     1       7.290   4.772  13.144  0.00  0.00    +0.000 OA
ENDBRANCH  21  26
ENDBRANCH  15  23
ENDBRANCH   1  19
TORSDOF 4
ENDMDL
MODEL 5
REMARK VINA RESULT:      -7.0      2.253      3.026
REMARK  Name = 
REMARK  7 active torsions:
REMARK  status: ('A' for Active; 'I' for Inactive)
REMARK    1  A    between atoms: C_1  and  O_2
REMARK    2  A    between atoms: O_2  and  C_3
REMARK    3  A    between atoms: N_5  and  C_6
REMARK    4  A    between atoms: C_10  and  C_11
REMARK    5  A    between atoms: C_11  and  N_12
REMARK    6  A    between atoms: N_18  and  C_19
REMARK    7  A    between atoms: N_18  and  C_20
REMARK                            x       y       z     vdW  Elec       q    Type
REMARK                         _______ _______ _______ _____ _____    ______ ____
ROOT
ATOM      1  C   UNL     1       3.598   3.567  18.537  0.00  0.00    +0.000 C 
ENDROOT
BRANCH   1   2
ATOM      2  N   UNL     1       2.884   4.646  19.190  0.00  0.00    +0.000 N 
ATOM      3  C   UNL     1       2.272   4.624  20.417  0.00  0.00    +0.000 A 
ATOM      4 BR   UNL     1       2.170   3.175  21.602  0.00  0.00    +0.000 Br
ATOM      5  N   UNL     1       1.768   5.795  20.731  0.00  0.00    +0.000 NA
ATOM      6  C   UNL     1       2.076   6.633  19.675  0.00  0.00    +0.000 A 
ATOM      7  C   UNL     1       1.900   8.029  19.465  0.00  0.00    +0.000 A 
ATOM      8  N   UNL     1       1.398   8.936  20.387  0.00  0.00    +0.000 N 
ATOM      9  C   UNL     1       0.946   8.550  21.714  0.00  0.00    +0.000 C 
ATOM     10  C   UNL     1       1.045  10.280  19.958  0.00  0.00    +0.000 C 
ATOM     11  N   UNL     1       2.346   8.504  18.259  0.00  0.00    +0.000 NA
ATOM     12  C   UNL     1       2.913   7.671  17.364  0.00  0.00    +0.000 A 
ATOM     13  N   UNL     1       3.126   6.349  17.478  0.00  0.00    +0.000 NA
ATOM     14  C   UNL     1       2.703   5.905  18.672  0.00  0.00    +0.000 A 
ENDBRANCH   1   2
BRANCH   1  19
ATOM     15  C   UNL     1       6.839   5.467  17.766  0.00  0.00    +0.000 A 
ATOM     16  C   UNL     1       6.996   5.153  16.419  0.00  0.00    +0.000 A 
ATOM     17  C   UNL     1       6.140   4.269  15.781  0.00  0.00    +0.000 A 
ATOM     18  C   UNL     1       5.062   3.725  16.478  0.00  0.00    +0.000 A 
ATOM     19  C   UNL     1       4.856   4.044  17.829  0.00  0.00    +0.000 A 
ATOM     20  C   UNL     1       5.780   4.878  18.481  0.00  0.00    +0.000 A 
BRANCH  15  23
ATOM     21  C   UNL     1       7.909   7.672  18.025  0.00  0.00    +0.000 C 
ATOM     22  O   UNL     1       7.404   8.235  17.063  0.00  0.00    +0.000 OA
ATOM     23  N   UNL     1       7.690   6.374  18.424  0.00  0.00    +0.000 N 
ATOM     24  H   UNL     1       8.085   6.126  19.320  0.00  0.00    +0.000 HD
BRANCH  21  26
ATOM     25  C   UNL     1       8.804   9.711  18.646  0.00  0.00    +0.000 C 
ATOM     26  O   UNL     1       8.748   8.299  18.893  0.00  0.00    +0.000 OA
ENDBRANCH  21  26
ENDBRANCH  15  23
ENDBRANCH   1  19
TORSDOF 4
ENDMDL
MODEL 6
REMARK VINA RESULT:      -6.9      2.872      7.181
REMARK  Name = 
REMARK  7 active torsions:
REMARK  status: ('A' for Active; 'I' for Inactive)
REMARK    1  A    between atoms: C_1  and  O_2
REMARK    2  A    between atoms: O_2  and  C_3
REMARK    3  A    between atoms: N_5  and  C_6
REMARK    4  A    between atoms: C_10  and  C_11
REMARK    5  A    between atoms: C_11  and  N_12
REMARK    6  A    between atoms: N_18  and  C_19
REMARK    7  A    between atoms: N_18  and  C_20
REMARK                            x       y       z     vdW  Elec       q    Type
REMARK                         _______ _______ _______ _____ _____    ______ ____
ROOT
ATOM      1  C   UNL     1       4.771   4.412  19.760  0.00  0.00    +0.000 C 
ENDROOT
BRANCH   1   2
ATOM      2  N   UNL     1       5.134   4.171  18.378  0.00  0.00    +0.000 N 
ATOM      3  C   UNL     1       4.606   3.238  17.523  0.00  0.00    +0.000 A 
ATOM      4 BR   UNL     1       3.264   1.986  17.907  0.00  0.00    +0.000 Br
ATOM      5  N   UNL     1       5.124   3.331  16.320  0.00  0.00    +0.000 NA
ATOM      6  C   UNL     1       6.020   4.382  16.376  0.00  0.00    +0.000 A 
ATOM      7  C   UNL     1       6.807   5.036  15.388  0.00  0.00    +0.000 A 
ATOM      8  N   UNL     1       6.788   4.774  14.026  0.00  0.00    +0.000 N 
ATOM      9  C   UNL     1       5.956   3.743  13.428  0.00  0.00    +0.000 C 
ATOM     10  C   UNL     1       7.815   5.344  13.167  0.00  0.00    +0.000 C 
ATOM     11  N   UNL     1       7.590   6.065  15.844  0.00  0.00    +0.000 NA
ATOM     12  C   UNL     1       7.579   6.405  17.148  0.00  0.00    +0.000 A 
ATOM     13  N   UNL     1       6.868   5.853  18.145  0.00  0.00    +0.000 NA
ATOM     14  C   UNL     1       6.092   4.862  17.678  0.00  0.00    +0.000 A 
ENDBRANCH   1   2
BRANCH   1  19
ATOM     15  C   UNL     1       2.069   7.135  19.755  0.00  0.00    +0.000 A 
ATOM     16  C   UNL     1       1.049   6.473  20.433  0.00  0.00    +0.000 A 
ATOM     17  C   UNL     1       1.176   5.144  20.805  0.00  0.00    +0.000 A 
ATOM     18  C   UNL     1       2.367   4.465  20.552  0.00  0.00    +0.000 A 
ATOM     19  C   UNL     1       3.428   5.110  19.897  0.00  0.00    +0.000 A 
ATOM     20  C   UNL     1       3.252   6.433  19.456  0.00  0.00    +0.000 A 
BRANCH  15  23
ATOM     21  C   UNL     1       2.147   8.967  18.108  0.00  0.00    +0.000 C 
ATOM     22  O   UNL     1       2.419   8.307  17.114  0.00  0.00    +0.000 OA
ATOM     23  N   UNL     1       1.963   8.488  19.385  0.00  0.00    +0.000 N 
ATOM     24  H   UNL     1       1.607   9.160  20.050  0.00  0.00    +0.000 HD
BRANCH  21  26
ATOM     25  C   UNL     1       1.084  10.738  19.144  0.00  0.00    +0.000 C 
ATOM     26  O   UNL     1       1.933  10.309  18.070  0.00  0.00    +0.000 OA
ENDBRANCH  21  26
ENDBRANCH  15  23
ENDBRANCH   1  19
TORSDOF 4
ENDMDL
MODEL 7
REMARK VINA RESULT:      -6.9      2.153      2.750
REMARK  Name = 
REMARK  7 active torsions:
REMARK  status: ('A' for Active; 'I' for Inactive)
REMARK    1  A    between atoms: C_1  and  O_2
REMARK    2  A    between atoms: O_2  and  C_3
REMARK    3  A    between atoms: N_5  and  C_6
REMARK    4  A    between atoms: C_10  and  C_11
REMARK    5  A    between atoms: C_11  and  N_12
REMARK    6  A    between atoms: N_18  and  C_19
REMARK    7  A    between atoms: N_18  and  C_20
REMARK                            x       y       z     vdW  Elec       q    Type
REMARK                         _______ _______ _______ _____ _____    ______ ____
ROOT
ATOM      1  C   UNL     1       2.790   5.212  17.700  0.00  0.00    +0.000 C 
ENDROOT
BRANCH   1   2
ATOM      2  N   UNL     1       2.311   6.068  18.768  0.00  0.00    +0.000 N 
ATOM      3  C   UNL     1       2.153   5.748  20.091  0.00  0.00    +0.000 A 
ATOM      4 BR   UNL     1       2.498   4.092  20.902  0.00  0.00    +0.000 Br
ATOM      5  N   UNL     1       1.755   6.780  20.798  0.00  0.00    +0.000 NA
ATOM      6  C   UNL     1       1.663   7.834  19.908  0.00  0.00    +0.000 A 
ATOM      7  C   UNL     1       1.390   9.220  20.074  0.00  0.00    +0.000 A 
ATOM      8  N   UNL     1       1.207   9.876  21.283  0.00  0.00    +0.000 N 
ATOM      9  C   UNL     1       1.242   9.196  22.567  0.00  0.00    +0.000 C 
ATOM     10  C   UNL     1       0.694  11.237  21.294  0.00  0.00    +0.000 C 
ATOM     11  N   UNL     1       1.387   9.962  18.922  0.00  0.00    +0.000 NA
ATOM     12  C   UNL     1       1.639   9.379  17.733  0.00  0.00    +0.000 A 
ATOM     13  N   UNL     1       1.913   8.088  17.482  0.00  0.00    +0.000 NA
ATOM     14  C   UNL     1       1.932   7.380  18.622  0.00  0.00    +0.000 A 
ENDBRANCH   1   2
BRANCH   1  19
ATOM     15  C   UNL     1       6.328   6.619  17.232  0.00  0.00    +0.000 A 
ATOM     16  C   UNL     1       7.012   5.458  16.883  0.00  0.00    +0.000 A 
ATOM     17  C   UNL     1       6.383   4.222  16.889  0.00  0.00    +0.000 A 
ATOM     18  C   UNL     1       5.025   4.138  17.192  0.00  0.00    +0.000 A 
ATOM     19  C   UNL     1       4.297   5.293  17.519  0.00  0.00    +0.000 A 
ATOM     20  C   UNL     1       4.969   6.525  17.586  0.00  0.00    +0.000 A 
BRANCH  15  23
ATOM     21  C   UNL     1       7.999   8.249  18.022  0.00  0.00    +0.000 C 
ATOM     22  O   UNL     1       8.557   7.550  18.856  0.00  0.00    +0.000 OA
ATOM     23  N   UNL     1       6.946   7.882  17.215  0.00  0.00    +0.000 N 
ATOM     24  H   UNL     1       6.709   8.544  16.490  0.00  0.00    +0.000 HD
BRANCH  21  26
ATOM     25  C   UNL     1       9.045  10.134  18.855  0.00  0.00    +0.000 C 
ATOM     26  O   UNL     1       8.396   9.518  17.734  0.00  0.00    +0.000 OA
ENDBRANCH  21  26
ENDBRANCH  15  23
ENDBRANCH   1  19
TORSDOF 4
ENDMDL
MODEL 8
REMARK VINA RESULT:      -6.8      7.418     10.108
REMARK  Name = 
REMARK  7 active torsions:
REMARK  status: ('A' for Active; 'I' for Inactive)
REMARK    1  A    between atoms: C_1  and  O_2
REMARK    2  A    between atoms: O_2  and  C_3
REMARK    3  A    between atoms: N_5  and  C_6
REMARK    4  A    between atoms: C_10  and  C_11
REMARK    5  A    between atoms: C_11  and  N_12
REMARK    6  A    between atoms: N_18  and  C_19
REMARK    7  A    between atoms: N_18  and  C_20
REMARK                            x       y       z     vdW  Elec       q    Type
REMARK                         _______ _______ _______ _____ _____    ______ ____
ROOT
ATOM      1  C   UNL     1      -1.213  10.659  19.236  0.00  0.00    +0.000 C 
ENDROOT
BRANCH   1   2
ATOM      2  N   UNL     1      -0.042  11.504  19.109  0.00  0.00    +0.000 N 
ATOM      3  C   UNL     1       1.202  11.150  18.653  0.00  0.00    +0.000 A 
ATOM      4 BR   UNL     1       1.752   9.452  18.076  0.00  0.00    +0.000 Br
ATOM      5  N   UNL     1       2.017  12.179  18.611  0.00  0.00    +0.000 NA
ATOM      6  C   UNL     1       1.276  13.264  19.039  0.00  0.00    +0.000 A 
ATOM      7  C   UNL     1       1.556  14.656  19.116  0.00  0.00    +0.000 A 
ATOM      8  N   UNL     1       2.713  15.281  18.674  0.00  0.00    +0.000 N 
ATOM      9  C   UNL     1       3.830  14.559  18.088  0.00  0.00    +0.000 C 
ATOM     10  C   UNL     1       2.967  16.667  19.036  0.00  0.00    +0.000 C 
ATOM     11  N   UNL     1       0.540  15.435  19.607  0.00  0.00    +0.000 NA
ATOM     12  C   UNL     1      -0.631  14.878  19.974  0.00  0.00    +0.000 A 
ATOM     13  N   UNL     1      -0.986  13.584  19.931  0.00  0.00    +0.000 NA
ATOM     14  C   UNL     1       0.012  12.838  19.428  0.00  0.00    +0.000 A 
ENDBRANCH   1   2
BRANCH   1  19
ATOM     15  C   UNL     1      -4.180  11.542  16.972  0.00  0.00    +0.000 A 
ATOM     16  C   UNL     1      -3.962  10.656  15.921  0.00  0.00    +0.000 A 
ATOM     17  C   UNL     1      -2.833   9.852  15.879  0.00  0.00    +0.000 A 
ATOM     18  C   UNL     1      -1.923   9.882  16.935  0.00  0.00    +0.000 A 
ATOM     19  C   UNL     1      -2.127  10.742  18.025  0.00  0.00    +0.000 A 
ATOM     20  C   UNL     1      -3.234  11.607  18.012  0.00  0.00    +0.000 A 
BRANCH  15  23
ATOM     21  C   UNL     1      -6.512  11.987  17.635  0.00  0.00    +0.000 C 
ATOM     22  O   UNL     1      -6.747  10.926  18.198  0.00  0.00    +0.000 OA
ATOM     23  N   UNL     1      -5.328  12.353  17.038  0.00  0.00    +0.000 N 
ATOM     24  H   UNL     1      -5.273  13.319  16.747  0.00  0.00    +0.000 HD
BRANCH  21  26
ATOM     25  C   UNL     1      -7.915  13.349  18.865  0.00  0.00    +0.000 C 
ATOM     26  O   UNL     1      -7.411  13.005  17.568  0.00  0.00    +0.000 OA
ENDBRANCH  21  26
ENDBRANCH  15  23
ENDBRANCH   1  19
TORSDOF 4
ENDMDL
MODEL 9
REMARK VINA RESULT:      -6.8      5.527      9.308
REMARK  Name = 
REMARK  7 active torsions:
REMARK  status: ('A' for Active; 'I' for Inactive)
REMARK    1  A    between atoms: C_1  and  O_2
REMARK    2  A    between atoms: O_2  and  C_3
REMARK    3  A    between atoms: N_5  and  C_6
REMARK    4  A    between atoms: C_10  and  C_11
REMARK    5  A    between atoms: C_11  and  N_12
REMARK    6  A    between atoms: N_18  and  C_19
REMARK    7  A    between atoms: N_18  and  C_20
REMARK                            x       y       z     vdW  Elec       q    Type
REMARK                         _______ _______ _______ _____ _____    ______ ____
ROOT
ATOM      1  C   UNL     1       0.519  11.042  19.474  0.00  0.00    +0.000 C 
ENDROOT
BRANCH   1   2
ATOM      2  N   UNL     1       0.968   9.728  19.890  0.00  0.00    +0.000 N 
ATOM      3  C   UNL     1       0.674   9.073  21.058  0.00  0.00    +0.000 A 
ATOM      4 BR   UNL     1      -0.387   9.702  22.470  0.00  0.00    +0.000 Br
ATOM      5  N   UNL     1       1.199   7.869  21.086  0.00  0.00    +0.000 NA
ATOM      6  C   UNL     1       1.853   7.715  19.878  0.00  0.00    +0.000 A 
ATOM      7  C   UNL     1       2.516   6.612  19.272  0.00  0.00    +0.000 A 
ATOM      8  N   UNL     1       2.595   5.325  19.784  0.00  0.00    +0.000 N 
ATOM      9  C   UNL     1       2.017   4.944  21.062  0.00  0.00    +0.000 C 
ATOM     10  C   UNL     1       3.507   4.365  19.183  0.00  0.00    +0.000 C 
ATOM     11  N   UNL     1       3.051   6.856  18.034  0.00  0.00    +0.000 NA
ATOM     12  C   UNL     1       2.929   8.071  17.463  0.00  0.00    +0.000 A 
ATOM     13  N   UNL     1       2.318   9.162  17.954  0.00  0.00    +0.000 NA
ATOM     14  C   UNL     1       1.781   8.900  19.157  0.00  0.00    +0.000 A 
ENDBRANCH   1   2
BRANCH   1  19
ATOM     15  C   UNL     1      -3.172  11.806  18.763  0.00  0.00    +0.000 A 
ATOM     16  C   UNL     1      -3.481  10.758  17.901  0.00  0.00    +0.000 A 
ATOM     17  C   UNL     1      -2.507   9.870  17.470  0.00  0.00    +0.000 A 
ATOM     18  C   UNL     1      -1.203   9.986  17.950  0.00  0.00    +0.000 A 
ATOM     19  C   UNL     1      -0.863  11.013  18.843  0.00  0.00    +0.000 A 
ATOM     20  C   UNL     1      -1.844  11.952  19.206  0.00  0.00    +0.000 A 
BRANCH  15  23
ATOM     21  C   UNL     1      -4.427  12.953  20.547  0.00  0.00    +0.000 C 
ATOM     22  O   UNL     1      -3.874  12.447  21.514  0.00  0.00    +0.000 OA
ATOM     23  N   UNL     1      -4.151  12.706  19.222  0.00  0.00    +0.000 N 
ATOM     24  H   UNL     1      -4.612  13.319  18.565  0.00  0.00    +0.000 HD
BRANCH  21  26
ATOM     25  C   UNL     1      -5.430  14.464  21.980  0.00  0.00    +0.000 C 
ATOM     26  O   UNL     1      -5.394  13.903  20.661  0.00  0.00    +0.000 OA
ENDBRANCH  21  26
ENDBRANCH  15  23
ENDBRANCH   1  19
TORSDOF 4
ENDMDL
