MODEL 1
REMARK VINA RESULT:      -7.6      0.000      0.000
REMARK  Name = 
REMARK  6 active torsions:
REMARK  status: ('A' for Active; 'I' for Inactive)
REMARK    1  A    between atoms: C_1  and  C_2
REMARK    2  A    between atoms: C_3  and  C_4
REMARK    3  A    between atoms: C_4  and  N_5
REMARK    4  A    between atoms: N_5  and  C_6
REMARK    5  A    between atoms: N_13  and  C_14
REMARK    6  A    between atoms: C_15  and  C_16
REMARK                            x       y       z     vdW  Elec       q    Type
REMARK                         _______ _______ _______ _____ _____    ______ ____
ROOT
ATOM      1  C   UNL     1       3.916   7.649  17.253  0.00  0.00    +0.000 C 
ATOM      2  C   UNL     1       3.342   6.547  18.072  0.00  0.00    +0.000 A 
ATOM      3  C   UNL     1       3.596   5.153  17.909  0.00  0.00    +0.000 A 
ATOM      4  N   UNL     1       2.936   4.428  18.813  0.00  0.00    +0.000 NA
ATOM      5  N   UNL     1       2.245   5.325  19.534  0.00  0.00    +0.000 N 
ATOM      6  C   UNL     1       1.342   4.798  20.534  0.00  0.00    +0.000 C 
ATOM      7  C   UNL     1       2.454   6.637  19.152  0.00  0.00    +0.000 A 
ENDROOT
BRANCH   7   8
ATOM      8  C   UNL     1       1.814   7.818  19.767  0.00  0.00    +0.000 A 
ATOM      9  C   UNL     1       1.690   7.955  21.158  0.00  0.00    +0.000 A 
ATOM     10  C   UNL     1       1.034   9.056  21.716  0.00  0.00    +0.000 A 
ATOM     11  F   UNL     1       0.886   9.118  23.046  0.00  0.00    +0.000 F 
ATOM     12  C   UNL     1       0.541  10.070  20.912  0.00  0.00    +0.000 A 
ATOM     13  F   UNL     1      -0.076  11.128  21.456  0.00  0.00    +0.000 F 
ATOM     14  C   UNL     1       0.696   9.975  19.541  0.00  0.00    +0.000 A 
ATOM     15  F   UNL     1       0.253  10.957  18.744  0.00  0.00    +0.000 F 
ATOM     16  C   UNL     1       1.308   8.858  18.968  0.00  0.00    +0.000 A 
ENDBRANCH   7   8
BRANCH   3  17
ATOM     17  C   UNL     1       4.454   4.458  16.885  0.00  0.00    +0.000 C 
BRANCH  17  18
ATOM     18  N   UNL     1       5.673   3.897  17.484  0.00  0.00    +0.000 NA
ATOM     19  H   UNL     1       5.638   2.894  17.289  0.00  0.00    +0.000 HD
BRANCH  18  20
ATOM     20  C   UNL     1       6.937   4.420  16.956  0.00  0.00    +0.000 C 
ATOM     21  C   UNL     1       6.866   5.854  16.411  0.00  0.00    +0.000 C 
ATOM     22  C   UNL     1       7.334   6.793  17.526  0.00  0.00    +0.000 C 
ATOM     23  C   UNL     1       7.684   5.903  18.708  0.00  0.00    +0.000 C 
ATOM     24  F   UNL     1       6.614   5.830  19.542  0.00  0.00    +0.000 F 
ATOM     25  C   UNL     1       7.960   4.540  18.096  0.00  0.00    +0.000 C 
ENDBRANCH  18  20
ENDBRANCH  17  18
ENDBRANCH   3  17
TORSDOF 4
ENDMDL
MODEL 2
REMARK VINA RESULT:      -7.6      0.136      1.680
REMARK  Name = 
REMARK  6 active torsions:
REMARK  status: ('A' for Active; 'I' for Inactive)
REMARK    1  A    between atoms: C_1  and  C_2
REMARK    2  A    between atoms: C_3  and  C_4
REMARK    3  A    between atoms: C_4  and  N_5
REMARK    4  A    between atoms: N_5  and  C_6
REMARK    5  A    between atoms: N_13  and  C_14
REMARK    6  A    between atoms: C_15  and  C_16
REMARK                            x       y       z     vdW  Elec       q    Type
REMARK                         _______ _______ _______ _____ _____    ______ ____
ROOT
ATOM      1  C   UNL     1       3.828   7.766  17.196  0.00  0.00    +0.000 C 
ATOM      2  C   UNL     1       3.324   6.661  18.057  0.00  0.00    +0.000 A 
ATOM      3  C   UNL     1       3.623   5.275  17.911  0.00  0.00    +0.000 A 
ATOM      4  N   UNL     1       3.022   4.545  18.853  0.00  0.00    +0.000 NA
ATOM      5  N   UNL     1       2.325   5.431  19.581  0.00  0.00    +0.000 N 
ATOM      6  C   UNL     1       1.478   4.894  20.623  0.00  0.00    +0.000 C 
ATOM      7  C   UNL     1       2.473   6.742  19.166  0.00  0.00    +0.000 A 
ENDROOT
BRANCH   7   8
ATOM      8  C   UNL     1       1.812   7.912  19.781  0.00  0.00    +0.000 A 
ATOM      9  C   UNL     1       1.349   8.992  19.014  0.00  0.00    +0.000 A 
ATOM     10  C   UNL     1       0.773  10.112  19.621  0.00  0.00    +0.000 A 
ATOM     11  F   UNL     1       0.398  11.145  18.856  0.00  0.00    +0.000 F 
ATOM     12  C   UNL     1       0.591  10.158  20.993  0.00  0.00    +0.000 A 
ATOM     13  F   UNL     1       0.027  11.230  21.567  0.00  0.00    +0.000 F 
ATOM     14  C   UNL     1       0.998   9.082  21.761  0.00  0.00    +0.000 A 
ATOM     15  F   UNL     1       0.807   9.092  23.087  0.00  0.00    +0.000 F 
ATOM     16  C   UNL     1       1.617   7.977  21.171  0.00  0.00    +0.000 A 
ENDBRANCH   7   8
BRANCH   3  17
ATOM     17  C   UNL     1       4.468   4.590  16.871  0.00  0.00    +0.000 C 
BRANCH  17  18
ATOM     18  N   UNL     1       5.671   3.982  17.457  0.00  0.00    +0.000 NA
ATOM     19  H   UNL     1       5.626   2.991  17.210  0.00  0.00    +0.000 HD
BRANCH  18  20
ATOM     20  C   UNL     1       6.949   4.514  16.975  0.00  0.00    +0.000 C 
ATOM     21  C   UNL     1       6.903   5.975  16.501  0.00  0.00    +0.000 C 
ATOM     22  C   UNL     1       7.364   6.851  17.668  0.00  0.00    +0.000 C 
ATOM     23  C   UNL     1       7.685   5.899  18.809  0.00  0.00    +0.000 C 
ATOM     24  F   UNL     1       6.601   5.799  19.622  0.00  0.00    +0.000 F 
ATOM     25  C   UNL     1       7.955   4.566  18.135  0.00  0.00    +0.000 C 
ENDBRANCH  18  20
ENDBRANCH  17  18
ENDBRANCH   3  17
TORSDOF 4
ENDMDL
MODEL 3
REMARK VINA RESULT:      -7.6      2.584      3.884
REMARK  Name = 
REMARK  6 active torsions:
REMARK  status: ('A' for Active; 'I' for Inactive)
REMARK    1  A    between atoms: C_1  and  C_2
REMARK    2  A    between atoms: C_3  and  C_4
REMARK    3  A    between atoms: C_4  and  N_5
REMARK    4  A    between atoms: N_5  and  C_6
REMARK    5  A    between atoms: N_13  and  C_14
REMARK    6  A    between atoms: C_15  and  C_16
REMARK                            x       y       z     vdW  Elec       q    Type
REMARK                         _______ _______ _______ _____ _____    ______ ____
ROOT
ATOM      1  C   UNL     1       1.969   6.015  20.701  0.00  0.00    +0.000 C 
ATOM      2  C   UNL     1       2.165   7.055  19.654  0.00  0.00    +0.000 A 
ATOM      3  C   UNL     1       2.909   6.908  18.447  0.00  0.00    +0.000 A 
ATOM      4  N   UNL     1       2.880   8.024  17.717  0.00  0.00    +0.000 NA
ATOM      5  N   UNL     1       2.156   8.890  18.443  0.00  0.00    +0.000 N 
ATOM      6  C   UNL     1       2.050  10.239  17.932  0.00  0.00    +0.000 C 
ATOM      7  C   UNL     1       1.672   8.366  19.628  0.00  0.00    +0.000 A 
ENDROOT
BRANCH   7   8
ATOM      8  C   UNL     1       0.858   9.102  20.618  0.00  0.00    +0.000 A 
ATOM      9  C   UNL     1       0.994   8.886  21.998  0.00  0.00    +0.000 A 
ATOM     10  C   UNL     1       0.178   9.556  22.914  0.00  0.00    +0.000 A 
ATOM     11  F   UNL     1       0.300   9.277  24.219  0.00  0.00    +0.000 F 
ATOM     12  C   UNL     1      -0.746  10.494  22.486  0.00  0.00    +0.000 A 
ATOM     13  F   UNL     1      -1.517  11.140  23.371  0.00  0.00    +0.000 F 
ATOM     14  C   UNL     1      -0.861  10.754  21.132  0.00  0.00    +0.000 A 
ATOM     15  F   UNL     1      -1.728  11.678  20.696  0.00  0.00    +0.000 F 
ATOM     16  C   UNL     1      -0.084  10.058  20.203  0.00  0.00    +0.000 A 
ENDBRANCH   7   8
BRANCH   3  17
ATOM     17  C   UNL     1       3.687   5.719  17.951  0.00  0.00    +0.000 C 
BRANCH  17  18
ATOM     18  N   UNL     1       2.807   4.587  17.625  0.00  0.00    +0.000 NA
ATOM     19  H   UNL     1       2.653   4.641  16.615  0.00  0.00    +0.000 HD
BRANCH  18  20
ATOM     20  C   UNL     1       3.343   3.258  17.934  0.00  0.00    +0.000 C 
ATOM     21  C   UNL     1       3.887   3.097  19.362  0.00  0.00    +0.000 C 
ATOM     22  C   UNL     1       2.774   2.474  20.209  0.00  0.00    +0.000 C 
ATOM     23  C   UNL     1       1.596   2.267  19.271  0.00  0.00    +0.000 C 
ATOM     24  F   UNL     1       0.755   3.329  19.374  0.00  0.00    +0.000 F 
ATOM     25  C   UNL     1       2.210   2.222  17.883  0.00  0.00    +0.000 C 
ENDBRANCH  18  20
ENDBRANCH  17  18
ENDBRANCH   3  17
TORSDOF 4
ENDMDL
MODEL 4
REMARK VINA RESULT:      -7.5      2.892      3.937
REMARK  Name = 
REMARK  6 active torsions:
REMARK  status: ('A' for Active; 'I' for Inactive)
REMARK    1  A    between atoms: C_1  and  C_2
REMARK    2  A    between atoms: C_3  and  C_4
REMARK    3  A    between atoms: C_4  and  N_5
REMARK    4  A    between atoms: N_5  and  C_6
REMARK    5  A    between atoms: N_13  and  C_14
REMARK    6  A    between atoms: C_15  and  C_16
REMARK                            x       y       z     vdW  Elec       q    Type
REMARK                         _______ _______ _______ _____ _____    ______ ____
ROOT
ATOM      1  C   UNL     1       5.885   6.935  17.345  0.00  0.00    +0.000 C 
ATOM      2  C   UNL     1       4.890   5.827  17.354  0.00  0.00    +0.000 A 
ATOM      3  C   UNL     1       5.098   4.502  16.872  0.00  0.00    +0.000 A 
ATOM      4  N   UNL     1       4.010   3.747  17.037  0.00  0.00    +0.000 NA
ATOM      5  N   UNL     1       3.104   4.568  17.590  0.00  0.00    +0.000 N 
ATOM      6  C   UNL     1       1.774   4.032  17.783  0.00  0.00    +0.000 C 
ATOM      7  C   UNL     1       3.572   5.847  17.829  0.00  0.00    +0.000 A 
ENDROOT
BRANCH   7   8
ATOM      8  C   UNL     1       2.784   6.949  18.418  0.00  0.00    +0.000 A 
ATOM      9  C   UNL     1       2.379   8.059  17.661  0.00  0.00    +0.000 A 
ATOM     10  C   UNL     1       1.678   9.115  18.250  0.00  0.00    +0.000 A 
ATOM     11  F   UNL     1       1.362  10.182  17.505  0.00  0.00    +0.000 F 
ATOM     12  C   UNL     1       1.313   9.064  19.585  0.00  0.00    +0.000 A 
ATOM     13  F   UNL     1       0.631  10.076  20.140  0.00  0.00    +0.000 F 
ATOM     14  C   UNL     1       1.663   7.956  20.335  0.00  0.00    +0.000 A 
ATOM     15  F   UNL     1       1.296   7.872  21.622  0.00  0.00    +0.000 F 
ATOM     16  C   UNL     1       2.403   6.916  19.770  0.00  0.00    +0.000 A 
ENDBRANCH   7   8
BRANCH   3  17
ATOM     17  C   UNL     1       6.320   3.908  16.223  0.00  0.00    +0.000 C 
BRANCH  17  18
ATOM     18  N   UNL     1       6.028   3.391  14.879  0.00  0.00    +0.000 NA
ATOM     19  H   UNL     1       5.151   2.872  14.968  0.00  0.00    +0.000 HD
BRANCH  18  20
ATOM     20  C   UNL     1       5.854   4.404  13.834  0.00  0.00    +0.000 C 
ATOM     21  C   UNL     1       7.134   4.768  13.066  0.00  0.00    +0.000 C 
ATOM     22  C   UNL     1       7.151   3.934  11.783  0.00  0.00    +0.000 C 
ATOM     23  C   UNL     1       5.880   3.099  11.804  0.00  0.00    +0.000 C 
ATOM     24  F   UNL     1       6.162   1.875  12.322  0.00  0.00    +0.000 F 
ATOM     25  C   UNL     1       4.940   3.852  12.729  0.00  0.00    +0.000 C 
ENDBRANCH  18  20
ENDBRANCH  17  18
ENDBRANCH   3  17
TORSDOF 4
ENDMDL
MODEL 5
REMARK VINA RESULT:      -7.5      2.934      3.642
REMARK  Name = 
REMARK  6 active torsions:
REMARK  status: ('A' for Active; 'I' for Inactive)
REMARK    1  A    between atoms: C_1  and  C_2
REMARK    2  A    between atoms: C_3  and  C_4
REMARK    3  A    between atoms: C_4  and  N_5
REMARK    4  A    between atoms: N_5  and  C_6
REMARK    5  A    between atoms: N_13  and  C_14
REMARK    6  A    between atoms: C_15  and  C_16
REMARK                            x       y       z     vdW  Elec       q    Type
REMARK                         _______ _______ _______ _____ _____    ______ ____
ROOT
ATOM      1  C   UNL     1       5.959   6.897  17.311  0.00  0.00    +0.000 C 
ATOM      2  C   UNL     1       4.956   5.798  17.318  0.00  0.00    +0.000 A 
ATOM      3  C   UNL     1       5.148   4.476  16.819  0.00  0.00    +0.000 A 
ATOM      4  N   UNL     1       4.056   3.728  16.987  0.00  0.00    +0.000 NA
ATOM      5  N   UNL     1       3.162   4.550  17.559  0.00  0.00    +0.000 N 
ATOM      6  C   UNL     1       1.830   4.023  17.759  0.00  0.00    +0.000 C 
ATOM      7  C   UNL     1       3.643   5.822  17.806  0.00  0.00    +0.000 A 
ENDROOT
BRANCH   7   8
ATOM      8  C   UNL     1       2.869   6.924  18.415  0.00  0.00    +0.000 A 
ATOM      9  C   UNL     1       2.430   6.876  19.747  0.00  0.00    +0.000 A 
ATOM     10  C   UNL     1       1.655   7.906  20.287  0.00  0.00    +0.000 A 
ATOM     11  F   UNL     1       1.208   7.792  21.545  0.00  0.00    +0.000 F 
ATOM     12  C   UNL     1       1.351   9.030  19.538  0.00  0.00    +0.000 A 
ATOM     13  F   UNL     1       0.618  10.020  20.067  0.00  0.00    +0.000 F 
ATOM     14  C   UNL     1       1.816   9.117  18.238  0.00  0.00    +0.000 A 
ATOM     15  F   UNL     1       1.558  10.208  17.503  0.00  0.00    +0.000 F 
ATOM     16  C   UNL     1       2.551   8.073  17.672  0.00  0.00    +0.000 A 
ENDBRANCH   7   8
BRANCH   3  17
ATOM     17  C   UNL     1       6.358   3.880  16.152  0.00  0.00    +0.000 C 
BRANCH  17  18
ATOM     18  N   UNL     1       6.043   3.357  14.815  0.00  0.00    +0.000 NA
ATOM     19  H   UNL     1       5.147   2.872  14.914  0.00  0.00    +0.000 HD
BRANCH  18  20
ATOM     20  C   UNL     1       5.903   4.362  13.758  0.00  0.00    +0.000 C 
ATOM     21  C   UNL     1       7.178   4.624  12.942  0.00  0.00    +0.000 C 
ATOM     22  C   UNL     1       7.096   3.770  11.675  0.00  0.00    +0.000 C 
ATOM     23  C   UNL     1       5.774   3.025  11.752  0.00  0.00    +0.000 C 
ATOM     24  F   UNL     1       5.989   1.793  12.284  0.00  0.00    +0.000 F 
ATOM     25  C   UNL     1       4.918   3.855  12.693  0.00  0.00    +0.000 C 
ENDBRANCH  18  20
ENDBRANCH  17  18
ENDBRANCH   3  17
TORSDOF 4
ENDMDL
MODEL 6
REMARK VINA RESULT:      -7.5      2.589      4.208
REMARK  Name = 
REMARK  6 active torsions:
REMARK  status: ('A' for Active; 'I' for Inactive)
REMARK    1  A    between atoms: C_1  and  C_2
REMARK    2  A    between atoms: C_3  and  C_4
REMARK    3  A    between atoms: C_4  and  N_5
REMARK    4  A    between atoms: N_5  and  C_6
REMARK    5  A    between atoms: N_13  and  C_14
REMARK    6  A    between atoms: C_15  and  C_16
REMARK                            x       y       z     vdW  Elec       q    Type
REMARK                         _______ _______ _______ _____ _____    ______ ____
ROOT
ATOM      1  C   UNL     1       1.926   6.045  20.635  0.00  0.00    +0.000 C 
ATOM      2  C   UNL     1       2.140   7.101  19.607  0.00  0.00    +0.000 A 
ATOM      3  C   UNL     1       2.905   6.973  18.411  0.00  0.00    +0.000 A 
ATOM      4  N   UNL     1       2.887   8.100  17.698  0.00  0.00    +0.000 NA
ATOM      5  N   UNL     1       2.149   8.954  18.424  0.00  0.00    +0.000 N 
ATOM      6  C   UNL     1       2.052  10.310  17.932  0.00  0.00    +0.000 C 
ATOM      7  C   UNL     1       1.646   8.412  19.593  0.00  0.00    +0.000 A 
ENDROOT
BRANCH   7   8
ATOM      8  C   UNL     1       0.814   9.132  20.579  0.00  0.00    +0.000 A 
ATOM      9  C   UNL     1      -0.146  10.079  20.190  0.00  0.00    +0.000 A 
ATOM     10  C   UNL     1      -0.886  10.786  21.142  0.00  0.00    +0.000 A 
ATOM     11  F   UNL     1      -1.750  11.722  20.729  0.00  0.00    +0.000 F 
ATOM     12  C   UNL     1      -0.732  10.526  22.494  0.00  0.00    +0.000 A 
ATOM     13  F   UNL     1      -1.453  11.200  23.400  0.00  0.00    +0.000 F 
ATOM     14  C   UNL     1       0.176   9.563  22.894  0.00  0.00    +0.000 A 
ATOM     15  F   UNL     1       0.323   9.275  24.194  0.00  0.00    +0.000 F 
ATOM     16  C   UNL     1       0.955   8.883  21.954  0.00  0.00    +0.000 A 
ENDBRANCH   7   8
BRANCH   3  17
ATOM     17  C   UNL     1       3.693   5.792  17.911  0.00  0.00    +0.000 C 
BRANCH  17  18
ATOM     18  N   UNL     1       2.826   4.642  17.616  0.00  0.00    +0.000 NA
ATOM     19  H   UNL     1       2.644   4.685  16.611  0.00  0.00    +0.000 HD
BRANCH  18  20
ATOM     20  C   UNL     1       3.395   3.325  17.920  0.00  0.00    +0.000 C 
ATOM     21  C   UNL     1       3.890   3.153  19.364  0.00  0.00    +0.000 C 
ATOM     22  C   UNL     1       2.768   2.476  20.156  0.00  0.00    +0.000 C 
ATOM     23  C   UNL     1       1.633   2.249  19.170  0.00  0.00    +0.000 C 
ATOM     24  F   UNL     1       0.753   3.280  19.261  0.00  0.00    +0.000 F 
ATOM     25  C   UNL     1       2.301   2.253  17.806  0.00  0.00    +0.000 C 
ENDBRANCH  18  20
ENDBRANCH  17  18
ENDBRANCH   3  17
TORSDOF 4
ENDMDL
MODEL 7
REMARK VINA RESULT:      -7.5      1.572      2.427
REMARK  Name = 
REMARK  6 active torsions:
REMARK  status: ('A' for Active; 'I' for Inactive)
REMARK    1  A    between atoms: C_1  and  C_2
REMARK    2  A    between atoms: C_3  and  C_4
REMARK    3  A    between atoms: C_4  and  N_5
REMARK    4  A    between atoms: N_5  and  C_6
REMARK    5  A    between atoms: N_13  and  C_14
REMARK    6  A    between atoms: C_15  and  C_16
REMARK                            x       y       z     vdW  Elec       q    Type
REMARK                         _______ _______ _______ _____ _____    ______ ____
ROOT
ATOM      1  C   UNL     1       1.845   5.876  20.614  0.00  0.00    +0.000 C 
ATOM      2  C   UNL     1       2.097   6.923  19.587  0.00  0.00    +0.000 A 
ATOM      3  C   UNL     1       2.833   6.759  18.377  0.00  0.00    +0.000 A 
ATOM      4  N   UNL     1       2.864   7.889  17.668  0.00  0.00    +0.000 NA
ATOM      5  N   UNL     1       2.187   8.779  18.411  0.00  0.00    +0.000 N 
ATOM      6  C   UNL     1       2.154  10.141  17.925  0.00  0.00    +0.000 C 
ATOM      7  C   UNL     1       1.675   8.259  19.586  0.00  0.00    +0.000 A 
ENDROOT
BRANCH   7   8
ATOM      8  C   UNL     1       0.901   9.019  20.590  0.00  0.00    +0.000 A 
ATOM      9  C   UNL     1       1.086   8.830  21.968  0.00  0.00    +0.000 A 
ATOM     10  C   UNL     1       0.306   9.521  22.899  0.00  0.00    +0.000 A 
ATOM     11  F   UNL     1       0.475   9.268  24.204  0.00  0.00    +0.000 F 
ATOM     12  C   UNL     1      -0.628  10.456  22.486  0.00  0.00    +0.000 A 
ATOM     13  F   UNL     1      -1.364  11.124  23.385  0.00  0.00    +0.000 F 
ATOM     14  C   UNL     1      -0.791  10.690  21.132  0.00  0.00    +0.000 A 
ATOM     15  F   UNL     1      -1.669  11.610  20.709  0.00  0.00    +0.000 F 
ATOM     16  C   UNL     1      -0.051   9.971  20.190  0.00  0.00    +0.000 A 
ENDBRANCH   7   8
BRANCH   3  17
ATOM     17  C   UNL     1       3.547   5.540  17.858  0.00  0.00    +0.000 C 
BRANCH  17  18
ATOM     18  N   UNL     1       4.909   5.432  18.399  0.00  0.00    +0.000 NA
ATOM     19  H   UNL     1       4.971   4.495  18.803  0.00  0.00    +0.000 HD
BRANCH  18  20
ATOM     20  C   UNL     1       5.992   5.580  17.423  0.00  0.00    +0.000 C 
ATOM     21  C   UNL     1       6.566   7.000  17.303  0.00  0.00    +0.000 C 
ATOM     22  C   UNL     1       7.812   7.067  18.190  0.00  0.00    +0.000 C 
ATOM     23  C   UNL     1       7.963   5.688  18.811  0.00  0.00    +0.000 C 
ATOM     24  F   UNL     1       7.379   5.687  20.038  0.00  0.00    +0.000 F 
ATOM     25  C   UNL     1       7.210   4.759  17.876  0.00  0.00    +0.000 C 
ENDBRANCH  18  20
ENDBRANCH  17  18
ENDBRANCH   3  17
TORSDOF 4
ENDMDL
MODEL 8
REMARK VINA RESULT:      -7.5      3.325      4.463
REMARK  Name = 
REMARK  6 active torsions:
REMARK  status: ('A' for Active; 'I' for Inactive)
REMARK    1  A    between atoms: C_1  and  C_2
REMARK    2  A    between atoms: C_3  and  C_4
REMARK    3  A    between atoms: C_4  and  N_5
REMARK    4  A    between atoms: N_5  and  C_6
REMARK    5  A    between atoms: N_13  and  C_14
REMARK    6  A    between atoms: C_15  and  C_16
REMARK                            x       y       z     vdW  Elec       q    Type
REMARK                         _______ _______ _______ _____ _____    ______ ____
ROOT
ATOM      1  C   UNL     1       2.615   8.363  17.629  0.00  0.00    +0.000 C 
ATOM      2  C   UNL     1       2.007   8.252  18.983  0.00  0.00    +0.000 A 
ATOM      3  C   UNL     1       2.121   7.142  19.872  0.00  0.00    +0.000 A 
ATOM      4  N   UNL     1       1.468   7.363  21.014  0.00  0.00    +0.000 NA
ATOM      5  N   UNL     1       0.917   8.578  20.865  0.00  0.00    +0.000 N 
ATOM      6  C   UNL     1       0.048   9.033  21.928  0.00  0.00    +0.000 C 
ATOM      7  C   UNL     1       1.215   9.188  19.660  0.00  0.00    +0.000 A 
ENDROOT
BRANCH   7   8
ATOM      8  C   UNL     1       0.732  10.519  19.234  0.00  0.00    +0.000 A 
ATOM      9  C   UNL     1       1.550  11.657  19.287  0.00  0.00    +0.000 A 
ATOM     10  C   UNL     1       1.057  12.915  18.929  0.00  0.00    +0.000 A 
ATOM     11  F   UNL     1       1.854  13.984  19.050  0.00  0.00    +0.000 F 
ATOM     12  C   UNL     1      -0.236  13.059  18.455  0.00  0.00    +0.000 A 
ATOM     13  F   UNL     1      -0.698  14.267  18.102  0.00  0.00    +0.000 F 
ATOM     14  C   UNL     1      -1.042  11.940  18.351  0.00  0.00    +0.000 A 
ATOM     15  F   UNL     1      -2.288  12.051  17.869  0.00  0.00    +0.000 F 
ATOM     16  C   UNL     1      -0.576  10.685  18.751  0.00  0.00    +0.000 A 
ENDBRANCH   7   8
BRANCH   3  17
ATOM     17  C   UNL     1       2.832   5.832  19.667  0.00  0.00    +0.000 C 
BRANCH  17  18
ATOM     18  N   UNL     1       2.080   4.706  20.240  0.00  0.00    +0.000 NA
ATOM     19  H   UNL     1       1.466   5.118  20.947  0.00  0.00    +0.000 HD
BRANCH  18  20
ATOM     20  C   UNL     1       1.250   3.953  19.296  0.00  0.00    +0.000 C 
ATOM     21  C   UNL     1       1.649   4.103  17.821  0.00  0.00    +0.000 C 
ATOM     22  C   UNL     1       2.541   2.912  17.463  0.00  0.00    +0.000 C 
ATOM     23  C   UNL     1       2.649   2.071  18.725  0.00  0.00    +0.000 C 
ATOM     24  F   UNL     1       3.780   2.416  19.393  0.00  0.00    +0.000 F 
ATOM     25  C   UNL     1       1.426   2.447  19.544  0.00  0.00    +0.000 C 
ENDBRANCH  18  20
ENDBRANCH  17  18
ENDBRANCH   3  17
TORSDOF 4
ENDMDL
MODEL 9
REMARK VINA RESULT:      -7.4      3.498      4.765
REMARK  Name = 
REMARK  6 active torsions:
REMARK  status: ('A' for Active; 'I' for Inactive)
REMARK    1  A    between atoms: C_1  and  C_2
REMARK    2  A    between atoms: C_3  and  C_4
REMARK    3  A    between atoms: C_4  and  N_5
REMARK    4  A    between atoms: N_5  and  C_6
REMARK    5  A    between atoms: N_13  and  C_14
REMARK    6  A    between atoms: C_15  and  C_16
REMARK                            x       y       z     vdW  Elec       q    Type
REMARK                         _______ _______ _______ _____ _____    ______ ____
ROOT
ATOM      1  C   UNL     1       2.332   8.533  17.732  0.00  0.00    +0.000 C 
ATOM      2  C   UNL     1       1.788   8.460  19.116  0.00  0.00    +0.000 A 
ATOM      3  C   UNL     1       1.911   7.360  20.015  0.00  0.00    +0.000 A 
ATOM      4  N   UNL     1       1.322   7.617  21.184  0.00  0.00    +0.000 NA
ATOM      5  N   UNL     1       0.803   8.846  21.043  0.00  0.00    +0.000 N 
ATOM      6  C   UNL     1       0.002   9.343  22.141  0.00  0.00    +0.000 C 
ATOM      7  C   UNL     1       1.060   9.431  19.816  0.00  0.00    +0.000 A 
ENDROOT
BRANCH   7   8
ATOM      8  C   UNL     1       0.598  10.769  19.394  0.00  0.00    +0.000 A 
ATOM      9  C   UNL     1      -0.648  10.965  18.778  0.00  0.00    +0.000 A 
ATOM     10  C   UNL     1      -1.042  12.232  18.340  0.00  0.00    +0.000 A 
ATOM     11  F   UNL     1      -2.214  12.364  17.704  0.00  0.00    +0.000 F 
ATOM     12  C   UNL     1      -0.239  13.338  18.558  0.00  0.00    +0.000 A 
ATOM     13  F   UNL     1      -0.629  14.553  18.146  0.00  0.00    +0.000 F 
ATOM     14  C   UNL     1       0.972  13.172  19.206  0.00  0.00    +0.000 A 
ATOM     15  F   UNL     1       1.754  14.232  19.453  0.00  0.00    +0.000 F 
ATOM     16  C   UNL     1       1.398  11.904  19.607  0.00  0.00    +0.000 A 
ENDBRANCH   7   8
BRANCH   3  17
ATOM     17  C   UNL     1       2.570   6.025  19.796  0.00  0.00    +0.000 C 
BRANCH  17  18
ATOM     18  N   UNL     1       2.557   5.202  21.013  0.00  0.00    +0.000 NA
ATOM     19  H   UNL     1       2.247   5.825  21.763  0.00  0.00    +0.000 HD
BRANCH  18  20
ATOM     20  C   UNL     1       1.661   4.042  20.985  0.00  0.00    +0.000 C 
ATOM     21  C   UNL     1       1.130   3.670  19.592  0.00  0.00    +0.000 C 
ATOM     22  C   UNL     1       2.031   2.562  19.039  0.00  0.00    +0.000 C 
ATOM     23  C   UNL     1       3.072   2.289  20.113  0.00  0.00    +0.000 C 
ATOM     24  F   UNL     1       4.191   3.009  19.840  0.00  0.00    +0.000 F 
ATOM     25  C   UNL     1       2.437   2.783  21.401  0.00  0.00    +0.000 C 
ENDBRANCH  18  20
ENDBRANCH  17  18
ENDBRANCH   3  17
TORSDOF 4
ENDMDL
