MODEL 1
REMARK VINA RESULT:      -7.7      0.000      0.000
REMARK  Name = 
REMARK  11 active torsions:
REMARK  status: ('A' for Active; 'I' for Inactive)
REMARK    1  A    between atoms: C_1  and  C_2
REMARK    2  A    between atoms: C_2  and  C_3
REMARK    3  A    between atoms: C_3  and  C_4
REMARK    4  A    between atoms: C_7  and  C_8
REMARK    5  A    between atoms: C_8  and  C_10
REMARK    6  A    between atoms: C_10  and  C_11
REMARK    7  A    between atoms: C_10  and  S_12
REMARK    8  A    between atoms: S_12  and  C_13
REMARK    9  A    between atoms: C_16  and  C_17
REMARK   10  A    between atoms: C_20  and  O_21
REMARK   11  A    between atoms: O_21  and  C_22
REMARK                            x       y       z     vdW  Elec       q    Type
REMARK                         _______ _______ _______ _____ _____    ______ ____
ROOT
ATOM      1  C   UNL     1       1.953   5.961  20.363  0.00  0.00    +0.000 A 
ATOM      2  N   UNL     1       2.514   6.666  19.406  0.00  0.00    +0.000 NA
ATOM      3  N   UNL     1       2.054   7.959  19.544  0.00  0.00    +0.000 NA
ATOM      4  C   UNL     1       1.258   7.965  20.595  0.00  0.00    +0.000 A 
ATOM      5  O   UNL     1       1.137   6.722  21.165  0.00  0.00    +0.000 OA
ENDROOT
BRANCH   4   6
ATOM      6  C   UNL     1       0.544   9.084  21.210  0.00  0.00    +0.000 A 
ATOM      7  C   UNL     1       0.268   9.042  22.586  0.00  0.00    +0.000 A 
ATOM      8  C   UNL     1      -0.469  10.056  23.205  0.00  0.00    +0.000 A 
ATOM      9  C   UNL     1      -0.933  11.146  22.469  0.00  0.00    +0.000 A 
ATOM     10  C   UNL     1      -0.668  11.208  21.101  0.00  0.00    +0.000 A 
ATOM     11  C   UNL     1       0.075  10.187  20.480  0.00  0.00    +0.000 A 
BRANCH   9  12
ATOM     12  O   UNL     1      -1.664  12.047  23.188  0.00  0.00    +0.000 OA
BRANCH  12  13
ATOM     13  C   UNL     1      -2.530  12.883  22.436  0.00  0.00    +0.000 C 
ATOM     14  F   UNL     1      -3.709  12.247  22.263  0.00  0.00    +0.000 F 
ATOM     15  F   UNL     1      -2.784  13.979  23.200  0.00  0.00    +0.000 F 
ENDBRANCH  12  13
ENDBRANCH   9  12
ENDBRANCH   4   6
BRANCH   1  16
ATOM     16  S   UNL     1       2.154   4.244  20.552  0.00  0.00    +0.000 S 
BRANCH  16  17
ATOM     17  C   UNL     1       1.959   3.681  18.813  0.00  0.00    +0.000 C 
ATOM     18  C   UNL     1       0.875   2.599  18.770  0.00  0.00    +0.000 C 
BRANCH  17  19
ATOM     19  C   UNL     1       3.281   3.111  18.289  0.00  0.00    +0.000 C 
ATOM     20  O   UNL     1       3.409   1.920  17.998  0.00  0.00    +0.000 OA
BRANCH  19  24
ATOM     21  C   UNL     1       6.550   5.846  17.556  0.00  0.00    +0.000 A 
ATOM     22  C   UNL     1       5.631   5.521  16.552  0.00  0.00    +0.000 A 
ATOM     23  C   UNL     1       4.589   4.625  16.809  0.00  0.00    +0.000 A 
ATOM     24  C   UNL     1       4.453   4.018  18.067  0.00  0.00    +0.000 A 
ATOM     25  C   UNL     1       5.401   4.305  19.055  0.00  0.00    +0.000 A 
ATOM     26  C   UNL     1       6.438   5.210  18.799  0.00  0.00    +0.000 A 
BRANCH  21  27
ATOM     27  C   UNL     1       7.645   6.861  17.312  0.00  0.00    +0.000 C 
BRANCH  27  29
ATOM     28  C   UNL     1       8.330   9.165  18.095  0.00  0.00    +0.000 C 
ATOM     29  C   UNL     1       7.185   8.293  17.607  0.00  0.00    +0.000 C 
ENDBRANCH  27  29
ENDBRANCH  21  27
ENDBRANCH  19  24
ENDBRANCH  17  19
ENDBRANCH  16  17
ENDBRANCH   1  16
TORSDOF 9
ENDMDL
MODEL 2
REMARK VINA RESULT:      -7.6      0.814      1.183
REMARK  Name = 
REMARK  11 active torsions:
REMARK  status: ('A' for Active; 'I' for Inactive)
REMARK    1  A    between atoms: C_1  and  C_2
REMARK    2  A    between atoms: C_2  and  C_3
REMARK    3  A    between atoms: C_3  and  C_4
REMARK    4  A    between atoms: C_7  and  C_8
REMARK    5  A    between atoms: C_8  and  C_10
REMARK    6  A    between atoms: C_10  and  C_11
REMARK    7  A    between atoms: C_10  and  S_12
REMARK    8  A    between atoms: S_12  and  C_13
REMARK    9  A    between atoms: C_16  and  C_17
REMARK   10  A    between atoms: C_20  and  O_21
REMARK   11  A    between atoms: O_21  and  C_22
REMARK                            x       y       z     vdW  Elec       q    Type
REMARK                         _______ _______ _______ _____ _____    ______ ____
ROOT
ATOM      1  C   UNL     1       1.935   6.764  20.237  0.00  0.00    +0.000 A 
ATOM      2  N   UNL     1       2.298   7.524  19.227  0.00  0.00    +0.000 NA
ATOM      3  N   UNL     1       1.686   8.747  19.412  0.00  0.00    +0.000 NA
ATOM      4  C   UNL     1       1.007   8.662  20.539  0.00  0.00    +0.000 A 
ATOM      5  O   UNL     1       1.110   7.422  21.118  0.00  0.00    +0.000 OA
ENDROOT
BRANCH   4   6
ATOM      6  C   UNL     1       0.216   9.684  21.223  0.00  0.00    +0.000 A 
ATOM      7  C   UNL     1      -0.180   9.463  22.552  0.00  0.00    +0.000 A 
ATOM      8  C   UNL     1      -0.991  10.381  23.225  0.00  0.00    +0.000 A 
ATOM      9  C   UNL     1      -1.412  11.551  22.595  0.00  0.00    +0.000 A 
ATOM     10  C   UNL     1      -1.028  11.792  21.276  0.00  0.00    +0.000 A 
ATOM     11  C   UNL     1      -0.210  10.867  20.599  0.00  0.00    +0.000 A 
BRANCH   9  12
ATOM     12  O   UNL     1      -2.224  12.345  23.353  0.00  0.00    +0.000 OA
BRANCH  12  13
ATOM     13  C   UNL     1      -3.135  13.163  22.636  0.00  0.00    +0.000 C 
ATOM     14  F   UNL     1      -4.283  12.476  22.446  0.00  0.00    +0.000 F 
ATOM     15  F   UNL     1      -3.438  14.216  23.440  0.00  0.00    +0.000 F 
ENDBRANCH  12  13
ENDBRANCH   9  12
ENDBRANCH   4   6
BRANCH   1  16
ATOM     16  S   UNL     1       2.381   5.091  20.405  0.00  0.00    +0.000 S 
BRANCH  16  17
ATOM     17  C   UNL     1       1.811   4.420  18.791  0.00  0.00    +0.000 C 
ATOM     18  C   UNL     1       0.975   3.163  19.056  0.00  0.00    +0.000 C 
BRANCH  17  19
ATOM     19  C   UNL     1       3.013   4.065  17.910  0.00  0.00    +0.000 C 
ATOM     20  O   UNL     1       2.986   3.124  17.116  0.00  0.00    +0.000 OA
BRANCH  19  24
ATOM     21  C   UNL     1       6.691   6.335  18.081  0.00  0.00    +0.000 A 
ATOM     22  C   UNL     1       6.424   5.307  18.993  0.00  0.00    +0.000 A 
ATOM     23  C   UNL     1       5.222   4.596  18.926  0.00  0.00    +0.000 A 
ATOM     24  C   UNL     1       4.253   4.906  17.961  0.00  0.00    +0.000 A 
ATOM     25  C   UNL     1       4.498   5.966  17.082  0.00  0.00    +0.000 A 
ATOM     26  C   UNL     1       5.706   6.672  17.143  0.00  0.00    +0.000 A 
BRANCH  21  27
ATOM     27  C   UNL     1       8.011   7.072  18.102  0.00  0.00    +0.000 C 
BRANCH  27  29
ATOM     28  C   UNL     1       8.550   9.515  18.470  0.00  0.00    +0.000 C 
ATOM     29  C   UNL     1       7.890   8.497  17.553  0.00  0.00    +0.000 C 
ENDBRANCH  27  29
ENDBRANCH  21  27
ENDBRANCH  19  24
ENDBRANCH  17  19
ENDBRANCH  16  17
ENDBRANCH   1  16
TORSDOF 9
ENDMDL
MODEL 3
REMARK VINA RESULT:      -7.6      4.653      7.344
REMARK  Name = 
REMARK  11 active torsions:
REMARK  status: ('A' for Active; 'I' for Inactive)
REMARK    1  A    between atoms: C_1  and  C_2
REMARK    2  A    between atoms: C_2  and  C_3
REMARK    3  A    between atoms: C_3  and  C_4
REMARK    4  A    between atoms: C_7  and  C_8
REMARK    5  A    between atoms: C_8  and  C_10
REMARK    6  A    between atoms: C_10  and  C_11
REMARK    7  A    between atoms: C_10  and  S_12
REMARK    8  A    between atoms: S_12  and  C_13
REMARK    9  A    between atoms: C_16  and  C_17
REMARK   10  A    between atoms: C_20  and  O_21
REMARK   11  A    between atoms: O_21  and  C_22
REMARK                            x       y       z     vdW  Elec       q    Type
REMARK                         _______ _______ _______ _____ _____    ______ ____
ROOT
ATOM      1  C   UNL     1       4.522   3.069  19.335  0.00  0.00    +0.000 A 
ATOM      2  N   UNL     1       4.410   2.749  18.065  0.00  0.00    +0.000 NA
ATOM      3  N   UNL     1       5.062   3.732  17.350  0.00  0.00    +0.000 NA
ATOM      4  C   UNL     1       5.552   4.579  18.234  0.00  0.00    +0.000 A 
ATOM      5  O   UNL     1       5.240   4.226  19.523  0.00  0.00    +0.000 OA
ENDROOT
BRANCH   4   6
ATOM      6  C   UNL     1       6.367   5.774  18.019  0.00  0.00    +0.000 A 
ATOM      7  C   UNL     1       7.534   5.949  18.779  0.00  0.00    +0.000 A 
ATOM      8  C   UNL     1       8.309   7.106  18.655  0.00  0.00    +0.000 A 
ATOM      9  C   UNL     1       7.947   8.109  17.756  0.00  0.00    +0.000 A 
ATOM     10  C   UNL     1       6.792   7.954  16.990  0.00  0.00    +0.000 A 
ATOM     11  C   UNL     1       6.013   6.788  17.115  0.00  0.00    +0.000 A 
BRANCH   9  12
ATOM     12  O   UNL     1       8.771   9.197  17.757  0.00  0.00    +0.000 OA
BRANCH  12  13
ATOM     13  C   UNL     1       8.601  10.103  18.836  0.00  0.00    +0.000 C 
ATOM     14  F   UNL     1       9.611   9.928  19.716  0.00  0.00    +0.000 F 
ATOM     15  F   UNL     1       8.740  11.355  18.326  0.00  0.00    +0.000 F 
ENDBRANCH  12  13
ENDBRANCH   9  12
ENDBRANCH   4   6
BRANCH   1  16
ATOM     16  S   UNL     1       3.782   2.178  20.633  0.00  0.00    +0.000 S 
BRANCH  16  17
ATOM     17  C   UNL     1       2.427   3.326  21.110  0.00  0.00    +0.000 C 
ATOM     18  C   UNL     1       1.412   2.552  21.958  0.00  0.00    +0.000 C 
BRANCH  17  19
ATOM     19  C   UNL     1       1.740   3.882  19.860  0.00  0.00    +0.000 C 
ATOM     20  O   UNL     1       1.025   3.182  19.140  0.00  0.00    +0.000 OA
BRANCH  19  24
ATOM     21  C   UNL     1       2.051   8.036  18.693  0.00  0.00    +0.000 A 
ATOM     22  C   UNL     1       2.244   7.002  17.770  0.00  0.00    +0.000 A 
ATOM     23  C   UNL     1       2.151   5.666  18.174  0.00  0.00    +0.000 A 
ATOM     24  C   UNL     1       1.882   5.333  19.509  0.00  0.00    +0.000 A 
ATOM     25  C   UNL     1       1.738   6.366  20.442  0.00  0.00    +0.000 A 
ATOM     26  C   UNL     1       1.823   7.704  20.035  0.00  0.00    +0.000 A 
BRANCH  21  27
ATOM     27  C   UNL     1       2.087   9.484  18.260  0.00  0.00    +0.000 C 
BRANCH  27  29
ATOM     28  C   UNL     1      -0.081  10.751  18.553  0.00  0.00    +0.000 C 
ATOM     29  C   UNL     1       1.256  10.386  19.178  0.00  0.00    +0.000 C 
ENDBRANCH  27  29
ENDBRANCH  21  27
ENDBRANCH  19  24
ENDBRANCH  17  19
ENDBRANCH  16  17
ENDBRANCH   1  16
TORSDOF 9
ENDMDL
MODEL 4
REMARK VINA RESULT:      -7.5      2.793      3.391
REMARK  Name = 
REMARK  11 active torsions:
REMARK  status: ('A' for Active; 'I' for Inactive)
REMARK    1  A    between atoms: C_1  and  C_2
REMARK    2  A    between atoms: C_2  and  C_3
REMARK    3  A    between atoms: C_3  and  C_4
REMARK    4  A    between atoms: C_7  and  C_8
REMARK    5  A    between atoms: C_8  and  C_10
REMARK    6  A    between atoms: C_10  and  C_11
REMARK    7  A    between atoms: C_10  and  S_12
REMARK    8  A    between atoms: S_12  and  C_13
REMARK    9  A    between atoms: C_16  and  C_17
REMARK   10  A    between atoms: C_20  and  O_21
REMARK   11  A    between atoms: O_21  and  C_22
REMARK                            x       y       z     vdW  Elec       q    Type
REMARK                         _______ _______ _______ _____ _____    ______ ____
ROOT
ATOM      1  C   UNL     1       1.977   4.259  19.869  0.00  0.00    +0.000 A 
ATOM      2  N   UNL     1       2.121   4.544  21.144  0.00  0.00    +0.000 NA
ATOM      3  N   UNL     1       2.112   5.920  21.246  0.00  0.00    +0.000 NA
ATOM      4  C   UNL     1       1.938   6.387  20.025  0.00  0.00    +0.000 A 
ATOM      5  O   UNL     1       1.853   5.385  19.091  0.00  0.00    +0.000 OA
ENDROOT
BRANCH   4   6
ATOM      6  C   UNL     1       1.808   7.772  19.572  0.00  0.00    +0.000 A 
ATOM      7  C   UNL     1       1.206   8.713  20.421  0.00  0.00    +0.000 A 
ATOM      8  C   UNL     1       1.001  10.032  20.007  0.00  0.00    +0.000 A 
ATOM      9  C   UNL     1       1.410  10.449  18.741  0.00  0.00    +0.000 A 
ATOM     10  C   UNL     1       2.013   9.530  17.882  0.00  0.00    +0.000 A 
ATOM     11  C   UNL     1       2.219   8.202  18.301  0.00  0.00    +0.000 A 
BRANCH   9  12
ATOM     12  O   UNL     1       1.122  11.752  18.451  0.00  0.00    +0.000 OA
BRANCH  12  13
ATOM     13  C   UNL     1       2.228  12.641  18.433  0.00  0.00    +0.000 C 
ATOM     14  F   UNL     1       1.841  13.808  17.872  0.00  0.00    +0.000 F 
ATOM     15  F   UNL     1       2.538  12.912  19.728  0.00  0.00    +0.000 F 
ENDBRANCH  12  13
ENDBRANCH   9  12
ENDBRANCH   4   6
BRANCH   1  16
ATOM     16  S   UNL     1       2.017   2.645  19.223  0.00  0.00    +0.000 S 
BRANCH  16  17
ATOM     17  C   UNL     1       3.552   2.718  18.212  0.00  0.00    +0.000 C 
ATOM     18  C   UNL     1       3.894   1.298  17.747  0.00  0.00    +0.000 C 
BRANCH  17  19
ATOM     19  C   UNL     1       4.708   3.282  19.043  0.00  0.00    +0.000 C 
ATOM     20  O   UNL     1       5.138   2.704  20.042  0.00  0.00    +0.000 OA
BRANCH  19  24
ATOM     21  C   UNL     1       6.831   6.849  17.826  0.00  0.00    +0.000 A 
ATOM     22  C   UNL     1       7.296   6.043  18.871  0.00  0.00    +0.000 A 
ATOM     23  C   UNL     1       6.586   4.901  19.255  0.00  0.00    +0.000 A 
ATOM     24  C   UNL     1       5.387   4.550  18.618  0.00  0.00    +0.000 A 
ATOM     25  C   UNL     1       4.895   5.383  17.608  0.00  0.00    +0.000 A 
ATOM     26  C   UNL     1       5.612   6.521  17.218  0.00  0.00    +0.000 A 
BRANCH  21  27
ATOM     27  C   UNL     1       7.620   8.052  17.359  0.00  0.00    +0.000 C 
BRANCH  27  29
ATOM     28  C   UNL     1       8.808  10.083  18.282  0.00  0.00    +0.000 C 
ATOM     29  C   UNL     1       8.551   8.594  18.448  0.00  0.00    +0.000 C 
ENDBRANCH  27  29
ENDBRANCH  21  27
ENDBRANCH  19  24
ENDBRANCH  17  19
ENDBRANCH  16  17
ENDBRANCH   1  16
TORSDOF 9
ENDMDL
MODEL 5
REMARK VINA RESULT:      -7.4      3.057      4.643
REMARK  Name = 
REMARK  11 active torsions:
REMARK  status: ('A' for Active; 'I' for Inactive)
REMARK    1  A    between atoms: C_1  and  C_2
REMARK    2  A    between atoms: C_2  and  C_3
REMARK    3  A    between atoms: C_3  and  C_4
REMARK    4  A    between atoms: C_7  and  C_8
REMARK    5  A    between atoms: C_8  and  C_10
REMARK    6  A    between atoms: C_10  and  C_11
REMARK    7  A    between atoms: C_10  and  S_12
REMARK    8  A    between atoms: S_12  and  C_13
REMARK    9  A    between atoms: C_16  and  C_17
REMARK   10  A    between atoms: C_20  and  O_21
REMARK   11  A    between atoms: O_21  and  C_22
REMARK                            x       y       z     vdW  Elec       q    Type
REMARK                         _______ _______ _______ _____ _____    ______ ____
ROOT
ATOM      1  C   UNL     1       3.819   6.888  17.862  0.00  0.00    +0.000 A 
ATOM      2  N   UNL     1       3.461   5.828  18.552  0.00  0.00    +0.000 NA
ATOM      3  N   UNL     1       2.499   6.246  19.449  0.00  0.00    +0.000 NA
ATOM      4  C   UNL     1       2.315   7.533  19.231  0.00  0.00    +0.000 A 
ATOM      5  O   UNL     1       3.130   8.016  18.238  0.00  0.00    +0.000 OA
ENDROOT
BRANCH   4   6
ATOM      6  C   UNL     1       1.378   8.456  19.871  0.00  0.00    +0.000 A 
ATOM      7  C   UNL     1       0.883   9.544  19.135  0.00  0.00    +0.000 A 
ATOM      8  C   UNL     1       0.037  10.488  19.723  0.00  0.00    +0.000 A 
ATOM      9  C   UNL     1      -0.349  10.361  21.057  0.00  0.00    +0.000 A 
ATOM     10  C   UNL     1       0.130   9.286  21.806  0.00  0.00    +0.000 A 
ATOM     11  C   UNL     1       0.980   8.335  21.212  0.00  0.00    +0.000 A 
BRANCH   9  12
ATOM     12  O   UNL     1      -1.151  11.366  21.516  0.00  0.00    +0.000 OA
BRANCH  12  13
ATOM     13  C   UNL     1      -1.074  11.635  22.907  0.00  0.00    +0.000 C 
ATOM     14  F   UNL     1      -1.452  12.913  23.127  0.00  0.00    +0.000 F 
ATOM     15  F   UNL     1      -1.997  10.843  23.514  0.00  0.00    +0.000 F 
ENDBRANCH  12  13
ENDBRANCH   9  12
ENDBRANCH   4   6
BRANCH   1  16
ATOM     16  S   UNL     1       5.078   6.888  16.661  0.00  0.00    +0.000 S 
BRANCH  16  17
ATOM     17  C   UNL     1       6.541   6.483  17.698  0.00  0.00    +0.000 C 
ATOM     18  C   UNL     1       7.537   7.644  17.607  0.00  0.00    +0.000 C 
BRANCH  17  19
ATOM     19  C   UNL     1       7.203   5.194  17.200  0.00  0.00    +0.000 C 
ATOM     20  O   UNL     1       7.973   4.540  17.906  0.00  0.00    +0.000 OA
BRANCH  19  24
ATOM     21  C   UNL     1       6.091   3.674  13.307  0.00  0.00    +0.000 A 
ATOM     22  C   UNL     1       5.488   3.197  14.476  0.00  0.00    +0.000 A 
ATOM     23  C   UNL     1       5.873   3.695  15.725  0.00  0.00    +0.000 A 
ATOM     24  C   UNL     1       6.880   4.665  15.835  0.00  0.00    +0.000 A 
ATOM     25  C   UNL     1       7.518   5.104  14.670  0.00  0.00    +0.000 A 
ATOM     26  C   UNL     1       7.125   4.612  13.420  0.00  0.00    +0.000 A 
BRANCH  21  27
ATOM     27  C   UNL     1       5.642   3.190  11.946  0.00  0.00    +0.000 C 
BRANCH  27  29
ATOM     28  C   UNL     1       6.232   0.892  11.074  0.00  0.00    +0.000 C 
ATOM     29  C   UNL     1       6.703   2.325  11.258  0.00  0.00    +0.000 C 
ENDBRANCH  27  29
ENDBRANCH  21  27
ENDBRANCH  19  24
ENDBRANCH  17  19
ENDBRANCH  16  17
ENDBRANCH   1  16
TORSDOF 9
ENDMDL
MODEL 6
REMARK VINA RESULT:      -7.3      0.966      1.783
REMARK  Name = 
REMARK  11 active torsions:
REMARK  status: ('A' for Active; 'I' for Inactive)
REMARK    1  A    between atoms: C_1  and  C_2
REMARK    2  A    between atoms: C_2  and  C_3
REMARK    3  A    between atoms: C_3  and  C_4
REMARK    4  A    between atoms: C_7  and  C_8
REMARK    5  A    between atoms: C_8  and  C_10
REMARK    6  A    between atoms: C_10  and  C_11
REMARK    7  A    between atoms: C_10  and  S_12
REMARK    8  A    between atoms: S_12  and  C_13
REMARK    9  A    between atoms: C_16  and  C_17
REMARK   10  A    between atoms: C_20  and  O_21
REMARK   11  A    between atoms: O_21  and  C_22
REMARK                            x       y       z     vdW  Elec       q    Type
REMARK                         _______ _______ _______ _____ _____    ______ ____
ROOT
ATOM      1  C   UNL     1       2.071   6.086  20.272  0.00  0.00    +0.000 A 
ATOM      2  N   UNL     1       2.576   6.875  19.350  0.00  0.00    +0.000 NA
ATOM      3  N   UNL     1       2.027   8.125  19.554  0.00  0.00    +0.000 NA
ATOM      4  C   UNL     1       1.240   8.022  20.607  0.00  0.00    +0.000 A 
ATOM      5  O   UNL     1       1.209   6.747  21.114  0.00  0.00    +0.000 OA
ENDROOT
BRANCH   4   6
ATOM      6  C   UNL     1       0.453   9.056  21.279  0.00  0.00    +0.000 A 
ATOM      7  C   UNL     1      -0.082  10.107  20.519  0.00  0.00    +0.000 A 
ATOM      8  C   UNL     1      -0.785  11.152  21.126  0.00  0.00    +0.000 A 
ATOM      9  C   UNL     1      -0.987  11.163  22.506  0.00  0.00    +0.000 A 
ATOM     10  C   UNL     1      -0.465  10.127  23.280  0.00  0.00    +0.000 A 
ATOM     11  C   UNL     1       0.242   9.075  22.666  0.00  0.00    +0.000 A 
BRANCH   9  12
ATOM     12  O   UNL     1      -1.661  12.254  22.973  0.00  0.00    +0.000 OA
BRANCH  12  13
ATOM     13  C   UNL     1      -2.864  12.578  22.293  0.00  0.00    +0.000 C 
ATOM     14  F   UNL     1      -3.900  12.439  23.149  0.00  0.00    +0.000 F 
ATOM     15  F   UNL     1      -2.794  13.897  21.973  0.00  0.00    +0.000 F 
ENDBRANCH  12  13
ENDBRANCH   9  12
ENDBRANCH   4   6
BRANCH   1  16
ATOM     16  S   UNL     1       2.392   4.380  20.374  0.00  0.00    +0.000 S 
BRANCH  16  17
ATOM     17  C   UNL     1       3.268   4.099  18.782  0.00  0.00    +0.000 C 
ATOM     18  C   UNL     1       2.792   2.765  18.195  0.00  0.00    +0.000 C 
BRANCH  17  19
ATOM     19  C   UNL     1       4.781   4.052  19.011  0.00  0.00    +0.000 C 
ATOM     20  O   UNL     1       5.341   3.060  19.483  0.00  0.00    +0.000 OA
BRANCH  19  24
ATOM     21  C   UNL     1       7.399   7.295  17.854  0.00  0.00    +0.000 A 
ATOM     22  C   UNL     1       7.741   6.413  18.885  0.00  0.00    +0.000 A 
ATOM     23  C   UNL     1       6.873   5.380  19.250  0.00  0.00    +0.000 A 
ATOM     24  C   UNL     1       5.637   5.215  18.607  0.00  0.00    +0.000 A 
ATOM     25  C   UNL     1       5.274   6.126  17.611  0.00  0.00    +0.000 A 
ATOM     26  C   UNL     1       6.148   7.156  17.240  0.00  0.00    +0.000 A 
BRANCH  21  27
ATOM     27  C   UNL     1       8.354   8.379  17.407  0.00  0.00    +0.000 C 
BRANCH  27  29
ATOM     28  C   UNL     1       9.428  10.526  18.201  0.00  0.00    +0.000 C 
ATOM     29  C   UNL     1       8.164   9.681  18.193  0.00  0.00    +0.000 C 
ENDBRANCH  27  29
ENDBRANCH  21  27
ENDBRANCH  19  24
ENDBRANCH  17  19
ENDBRANCH  16  17
ENDBRANCH   1  16
TORSDOF 9
ENDMDL
MODEL 7
REMARK VINA RESULT:      -7.3      2.670      4.317
REMARK  Name = 
REMARK  11 active torsions:
REMARK  status: ('A' for Active; 'I' for Inactive)
REMARK    1  A    between atoms: C_1  and  C_2
REMARK    2  A    between atoms: C_2  and  C_3
REMARK    3  A    between atoms: C_3  and  C_4
REMARK    4  A    between atoms: C_7  and  C_8
REMARK    5  A    between atoms: C_8  and  C_10
REMARK    6  A    between atoms: C_10  and  C_11
REMARK    7  A    between atoms: C_10  and  S_12
REMARK    8  A    between atoms: S_12  and  C_13
REMARK    9  A    between atoms: C_16  and  C_17
REMARK   10  A    between atoms: C_20  and  O_21
REMARK   11  A    between atoms: O_21  and  C_22
REMARK                            x       y       z     vdW  Elec       q    Type
REMARK                         _______ _______ _______ _____ _____    ______ ____
ROOT
ATOM      1  C   UNL     1       4.072   4.814  17.962  0.00  0.00    +0.000 A 
ATOM      2  N   UNL     1       4.070   4.505  19.240  0.00  0.00    +0.000 NA
ATOM      3  N   UNL     1       3.389   5.513  19.891  0.00  0.00    +0.000 NA
ATOM      4  C   UNL     1       2.997   6.363  18.962  0.00  0.00    +0.000 A 
ATOM      5  O   UNL     1       3.405   5.988  17.706  0.00  0.00    +0.000 OA
ENDROOT
BRANCH   4   6
ATOM      6  C   UNL     1       2.201   7.582  19.099  0.00  0.00    +0.000 A 
ATOM      7  C   UNL     1       2.005   8.398  17.973  0.00  0.00    +0.000 A 
ATOM      8  C   UNL     1       1.307   9.605  18.070  0.00  0.00    +0.000 A 
ATOM      9  C   UNL     1       0.771  10.019  19.289  0.00  0.00    +0.000 A 
ATOM     10  C   UNL     1       0.952   9.222  20.419  0.00  0.00    +0.000 A 
ATOM     11  C   UNL     1       1.655   8.006  20.320  0.00  0.00    +0.000 A 
BRANCH   9  12
ATOM     12  O   UNL     1       0.141  11.229  19.251  0.00  0.00    +0.000 OA
BRANCH  12  13
ATOM     13  C   UNL     1      -1.194  11.219  18.771  0.00  0.00    +0.000 C 
ATOM     14  F   UNL     1      -1.672   9.956  18.838  0.00  0.00    +0.000 F 
ATOM     15  F   UNL     1      -1.931  11.962  19.638  0.00  0.00    +0.000 F 
ENDBRANCH  12  13
ENDBRANCH   9  12
ENDBRANCH   4   6
BRANCH   1  16
ATOM     16  S   UNL     1       4.892   3.889  16.738  0.00  0.00    +0.000 S 
BRANCH  16  17
ATOM     17  C   UNL     1       6.191   5.082  16.219  0.00  0.00    +0.000 C 
ATOM     18  C   UNL     1       6.949   4.485  15.028  0.00  0.00    +0.000 C 
BRANCH  17  19
ATOM     19  C   UNL     1       7.164   5.342  17.373  0.00  0.00    +0.000 C 
ATOM     20  O   UNL     1       7.698   4.424  17.997  0.00  0.00    +0.000 OA
BRANCH  19  24
ATOM     21  C   UNL     1       8.404   9.340  18.462  0.00  0.00    +0.000 A 
ATOM     22  C   UNL     1       8.792   8.225  19.214  0.00  0.00    +0.000 A 
ATOM     23  C   UNL     1       8.367   6.943  18.850  0.00  0.00    +0.000 A 
ATOM     24  C   UNL     1       7.533   6.748  17.739  0.00  0.00    +0.000 A 
ATOM     25  C   UNL     1       7.106   7.867  17.017  0.00  0.00    +0.000 A 
ATOM     26  C   UNL     1       7.539   9.150  17.377  0.00  0.00    +0.000 A 
BRANCH  21  27
ATOM     27  C   UNL     1       8.905  10.725  18.807  0.00  0.00    +0.000 C 
BRANCH  27  29
ATOM     28  C   UNL     1      10.927  11.713  17.655  0.00  0.00    +0.000 C 
ATOM     29  C   UNL     1      10.435  10.813  18.777  0.00  0.00    +0.000 C 
ENDBRANCH  27  29
ENDBRANCH  21  27
ENDBRANCH  19  24
ENDBRANCH  17  19
ENDBRANCH  16  17
ENDBRANCH   1  16
TORSDOF 9
ENDMDL
MODEL 8
REMARK VINA RESULT:      -7.3      2.689      3.922
REMARK  Name = 
REMARK  11 active torsions:
REMARK  status: ('A' for Active; 'I' for Inactive)
REMARK    1  A    between atoms: C_1  and  C_2
REMARK    2  A    between atoms: C_2  and  C_3
REMARK    3  A    between atoms: C_3  and  C_4
REMARK    4  A    between atoms: C_7  and  C_8
REMARK    5  A    between atoms: C_8  and  C_10
REMARK    6  A    between atoms: C_10  and  C_11
REMARK    7  A    between atoms: C_10  and  S_12
REMARK    8  A    between atoms: S_12  and  C_13
REMARK    9  A    between atoms: C_16  and  C_17
REMARK   10  A    between atoms: C_20  and  O_21
REMARK   11  A    between atoms: O_21  and  C_22
REMARK                            x       y       z     vdW  Elec       q    Type
REMARK                         _______ _______ _______ _____ _____    ______ ____
ROOT
ATOM      1  C   UNL     1       3.335   4.628  18.119  0.00  0.00    +0.000 A 
ATOM      2  N   UNL     1       2.720   4.273  19.225  0.00  0.00    +0.000 NA
ATOM      3  N   UNL     1       2.166   5.420  19.755  0.00  0.00    +0.000 NA
ATOM      4  C   UNL     1       2.459   6.400  18.923  0.00  0.00    +0.000 A 
ATOM      5  O   UNL     1       3.212   5.972  17.859  0.00  0.00    +0.000 OA
ENDROOT
BRANCH   4   6
ATOM      6  C   UNL     1       2.077   7.810  18.982  0.00  0.00    +0.000 A 
ATOM      7  C   UNL     1       1.523   8.317  20.168  0.00  0.00    +0.000 A 
ATOM      8  C   UNL     1       1.084   9.642  20.251  0.00  0.00    +0.000 A 
ATOM      9  C   UNL     1       1.204  10.498  19.157  0.00  0.00    +0.000 A 
ATOM     10  C   UNL     1       1.754  10.015  17.969  0.00  0.00    +0.000 A 
ATOM     11  C   UNL     1       2.197   8.681  17.888  0.00  0.00    +0.000 A 
BRANCH   9  12
ATOM     12  O   UNL     1       0.709  11.754  19.360  0.00  0.00    +0.000 OA
BRANCH  12  13
ATOM     13  C   UNL     1       1.557  12.648  20.064  0.00  0.00    +0.000 C 
ATOM     14  F   UNL     1       1.557  13.841  19.429  0.00  0.00    +0.000 F 
ATOM     15  F   UNL     1       0.992  12.853  21.282  0.00  0.00    +0.000 F 
ENDBRANCH  12  13
ENDBRANCH   9  12
ENDBRANCH   4   6
BRANCH   1  16
ATOM     16  S   UNL     1       4.268   3.541  17.132  0.00  0.00    +0.000 S 
BRANCH  16  17
ATOM     17  C   UNL     1       5.649   4.641  16.619  0.00  0.00    +0.000 C 
ATOM     18  C   UNL     1       6.481   3.914  15.558  0.00  0.00    +0.000 C 
BRANCH  17  19
ATOM     19  C   UNL     1       6.531   4.982  17.824  0.00  0.00    +0.000 C 
ATOM     20  O   UNL     1       6.781   4.157  18.705  0.00  0.00    +0.000 OA
BRANCH  19  24
ATOM     21  C   UNL     1       8.186   8.967  18.120  0.00  0.00    +0.000 A 
ATOM     22  C   UNL     1       7.195   8.656  17.182  0.00  0.00    +0.000 A 
ATOM     23  C   UNL     1       6.684   7.357  17.097  0.00  0.00    +0.000 A 
ATOM     24  C   UNL     1       7.164   6.337  17.931  0.00  0.00    +0.000 A 
ATOM     25  C   UNL     1       8.189   6.637  18.834  0.00  0.00    +0.000 A 
ATOM     26  C   UNL     1       8.693   7.940  18.925  0.00  0.00    +0.000 A 
BRANCH  21  27
ATOM     27  C   UNL     1       8.704  10.381  18.266  0.00  0.00    +0.000 C 
BRANCH  27  29
ATOM     28  C   UNL     1      10.772  11.344  19.355  0.00  0.00    +0.000 C 
ATOM     29  C   UNL     1       9.474  10.584  19.575  0.00  0.00    +0.000 C 
ENDBRANCH  27  29
ENDBRANCH  21  27
ENDBRANCH  19  24
ENDBRANCH  17  19
ENDBRANCH  16  17
ENDBRANCH   1  16
TORSDOF 9
ENDMDL
MODEL 9
REMARK VINA RESULT:      -7.2      3.017      4.307
REMARK  Name = 
REMARK  11 active torsions:
REMARK  status: ('A' for Active; 'I' for Inactive)
REMARK    1  A    between atoms: C_1  and  C_2
REMARK    2  A    between atoms: C_2  and  C_3
REMARK    3  A    between atoms: C_3  and  C_4
REMARK    4  A    between atoms: C_7  and  C_8
REMARK    5  A    between atoms: C_8  and  C_10
REMARK    6  A    between atoms: C_10  and  C_11
REMARK    7  A    between atoms: C_10  and  S_12
REMARK    8  A    between atoms: S_12  and  C_13
REMARK    9  A    between atoms: C_16  and  C_17
REMARK   10  A    between atoms: C_20  and  O_21
REMARK   11  A    between atoms: O_21  and  C_22
REMARK                            x       y       z     vdW  Elec       q    Type
REMARK                         _______ _______ _______ _____ _____    ______ ____
ROOT
ATOM      1  C   UNL     1       3.562   4.808  18.493  0.00  0.00    +0.000 A 
ATOM      2  N   UNL     1       3.013   4.482  19.643  0.00  0.00    +0.000 NA
ATOM      3  N   UNL     1       2.360   5.607  20.103  0.00  0.00    +0.000 NA
ATOM      4  C   UNL     1       2.531   6.542  19.190  0.00  0.00    +0.000 A 
ATOM      5  O   UNL     1       3.297   6.109  18.136  0.00  0.00    +0.000 OA
ENDROOT
BRANCH   4   6
ATOM      6  C   UNL     1       2.011   7.909  19.154  0.00  0.00    +0.000 A 
ATOM      7  C   UNL     1       2.100   8.641  17.960  0.00  0.00    +0.000 A 
ATOM      8  C   UNL     1       1.677   9.971  17.896  0.00  0.00    +0.000 A 
ATOM      9  C   UNL     1       1.137  10.599  19.018  0.00  0.00    +0.000 A 
ATOM     10  C   UNL     1       1.037   9.889  20.215  0.00  0.00    +0.000 A 
ATOM     11  C   UNL     1       1.463   8.548  20.277  0.00  0.00    +0.000 A 
BRANCH   9  12
ATOM     12  O   UNL     1       0.793  11.906  18.829  0.00  0.00    +0.000 OA
BRANCH  12  13
ATOM     13  C   UNL     1       1.856  12.785  18.495  0.00  0.00    +0.000 C 
ATOM     14  F   UNL     1       1.349  14.017  18.269  0.00  0.00    +0.000 F 
ATOM     15  F   UNL     1       2.647  12.884  19.596  0.00  0.00    +0.000 F 
ENDBRANCH  12  13
ENDBRANCH   9  12
ENDBRANCH   4   6
BRANCH   1  16
ATOM     16  S   UNL     1       4.574   3.744  17.562  0.00  0.00    +0.000 S 
BRANCH  16  17
ATOM     17  C   UNL     1       5.448   4.954  16.488  0.00  0.00    +0.000 C 
ATOM     18  C   UNL     1       5.389   4.451  15.042  0.00  0.00    +0.000 C 
BRANCH  17  19
ATOM     19  C   UNL     1       6.909   5.095  16.928  0.00  0.00    +0.000 C 
ATOM     20  O   UNL     1       7.725   4.183  16.784  0.00  0.00    +0.000 OA
BRANCH  19  24
ATOM     21  C   UNL     1       8.476   8.745  18.639  0.00  0.00    +0.000 A 
ATOM     22  C   UNL     1       8.623   7.513  19.286  0.00  0.00    +0.000 A 
ATOM     23  C   UNL     1       8.097   6.348  18.720  0.00  0.00    +0.000 A 
ATOM     24  C   UNL     1       7.396   6.390  17.505  0.00  0.00    +0.000 A 
ATOM     25  C   UNL     1       7.206   7.628  16.883  0.00  0.00    +0.000 A 
ATOM     26  C   UNL     1       7.741   8.793  17.447  0.00  0.00    +0.000 A 
BRANCH  21  27
ATOM     27  C   UNL     1       9.093  10.003  19.208  0.00  0.00    +0.000 C 
BRANCH  27  29
ATOM     28  C   UNL     1       9.673  12.429  18.794  0.00  0.00    +0.000 C 
ATOM     29  C   UNL     1       9.126  11.146  18.188  0.00  0.00    +0.000 C 
ENDBRANCH  27  29
ENDBRANCH  21  27
ENDBRANCH  19  24
ENDBRANCH  17  19
ENDBRANCH  16  17
ENDBRANCH   1  16
TORSDOF 9
ENDMDL
