MODEL 1
REMARK VINA RESULT:      -8.7      0.000      0.000
REMARK  Name = 
REMARK  3 active torsions:
REMARK  status: ('A' for Active; 'I' for Inactive)
REMARK    1  A    between atoms: C_2  and  C_4
REMARK    2  A    between atoms: C_15  and  C_16
REMARK    3  A    between atoms: C_16  and  C_17
REMARK                            x       y       z     vdW  Elec       q    Type
REMARK                         _______ _______ _______ _____ _____    ______ ____
ROOT
ATOM      1  C   UNL     1       3.372   4.390  19.180  0.00  0.00    +0.000 A 
ATOM      2  C   UNL     1       2.570   4.171  20.310  0.00  0.00    +0.000 A 
ATOM      3  C   UNL     1       1.749   5.190  20.808  0.00  0.00    +0.000 A 
ATOM      4  C   UNL     1       1.709   6.437  20.183  0.00  0.00    +0.000 A 
ATOM      5  C   UNL     1       2.487   6.658  19.054  0.00  0.00    +0.000 A 
ATOM      6  C   UNL     1       3.336   5.648  18.582  0.00  0.00    +0.000 A 
ATOM      7  C   UNL     1       4.071   6.147  17.378  0.00  0.00    +0.000 C 
ATOM      8  C   UNL     1       3.750   7.655  17.412  0.00  0.00    +0.000 C 
ATOM      9  N   UNL     1       2.569   7.824  18.269  0.00  0.00    +0.000 N 
ATOM     10  C   UNL     1       1.988   9.085  18.375  0.00  0.00    +0.000 A 
ATOM     11  C   UNL     1       0.653   9.221  18.761  0.00  0.00    +0.000 A 
ATOM     12  C   UNL     1       0.050  10.485  18.835  0.00  0.00    +0.000 A 
ATOM     13  C   UNL     1       0.829  11.596  18.536  0.00  0.00    +0.000 A 
ATOM     14  C   UNL     1       2.143  11.392  18.154  0.00  0.00    +0.000 A 
ATOM     15  N   UNL     1       2.719  10.175  18.047  0.00  0.00    +0.000 NA
ENDROOT
BRANCH   1  17
ATOM     16  N   UNL     1       5.534   3.285  19.079  0.00  0.00    +0.000 N 
ATOM     17  C   UNL     1       4.238   3.309  18.639  0.00  0.00    +0.000 C 
ATOM     18  O   UNL     1       3.823   2.455  17.870  0.00  0.00    +0.000 OA
ATOM     19  H   UNL     1       6.091   2.490  18.795  0.00  0.00    +0.000 HD
ATOM     20  H   UNL     1       5.845   3.815  19.881  0.00  0.00    +0.000 HD
ENDBRANCH   1  17
BRANCH  12  21
ATOM     21  C   UNL     1      -1.402  10.624  19.220  0.00  0.00    +0.000 C 
BRANCH  21  22
ATOM     22  C   UNL     1      -2.343  10.735  18.044  0.00  0.00    +0.000 A 
ATOM     23  C   UNL     1      -2.051  10.096  16.833  0.00  0.00    +0.000 A 
ATOM     24  C   UNL     1      -2.925  10.209  15.754  0.00  0.00    +0.000 A 
ATOM     25  F   UNL     1      -2.628   9.586  14.605  0.00  0.00    +0.000 F 
ATOM     26  C   UNL     1      -4.097  10.944  15.847  0.00  0.00    +0.000 A 
ATOM     27  C   UNL     1      -4.396  11.580  17.047  0.00  0.00    +0.000 A 
ATOM     28 CL   UNL     1      -5.849  12.491  17.192  0.00  0.00    +0.000 Cl
ATOM     29  C   UNL     1      -3.529  11.483  18.142  0.00  0.00    +0.000 A 
ENDBRANCH  21  22
ENDBRANCH  12  21
TORSDOF 3
ENDMDL
MODEL 2
REMARK VINA RESULT:      -8.5      1.409      1.683
REMARK  Name = 
REMARK  3 active torsions:
REMARK  status: ('A' for Active; 'I' for Inactive)
REMARK    1  A    between atoms: C_2  and  C_4
REMARK    2  A    between atoms: C_15  and  C_16
REMARK    3  A    between atoms: C_16  and  C_17
REMARK                            x       y       z     vdW  Elec       q    Type
REMARK                         _______ _______ _______ _____ _____    ______ ____
ROOT
ATOM      1  C   UNL     1       3.264   4.528  19.234  0.00  0.00    +0.000 A 
ATOM      2  C   UNL     1       2.542   4.342  20.423  0.00  0.00    +0.000 A 
ATOM      3  C   UNL     1       1.771   5.382  20.957  0.00  0.00    +0.000 A 
ATOM      4  C   UNL     1       1.702   6.617  20.311  0.00  0.00    +0.000 A 
ATOM      5  C   UNL     1       2.399   6.805  19.125  0.00  0.00    +0.000 A 
ATOM      6  C   UNL     1       3.200   5.774  18.614  0.00  0.00    +0.000 A 
ATOM      7  C   UNL     1       3.852   6.240  17.351  0.00  0.00    +0.000 C 
ATOM      8  C   UNL     1       3.553   7.752  17.376  0.00  0.00    +0.000 C 
ATOM      9  N   UNL     1       2.438   7.953  18.312  0.00  0.00    +0.000 N 
ATOM     10  C   UNL     1       1.881   9.225  18.433  0.00  0.00    +0.000 A 
ATOM     11  C   UNL     1       0.579   9.386  18.910  0.00  0.00    +0.000 A 
ATOM     12  C   UNL     1      -0.002  10.658  19.001  0.00  0.00    +0.000 A 
ATOM     13  C   UNL     1       0.767  11.754  18.624  0.00  0.00    +0.000 A 
ATOM     14  C   UNL     1       2.047  11.524  18.153  0.00  0.00    +0.000 A 
ATOM     15  N   UNL     1       2.600  10.297  18.031  0.00  0.00    +0.000 NA
ENDROOT
BRANCH   1  17
ATOM     16  N   UNL     1       5.309   3.216  19.211  0.00  0.00    +0.000 N 
ATOM     17  C   UNL     1       4.076   3.425  18.655  0.00  0.00    +0.000 C 
ATOM     18  O   UNL     1       3.666   2.708  17.754  0.00  0.00    +0.000 OA
ATOM     19  H   UNL     1       5.815   2.401  18.890  0.00  0.00    +0.000 HD
ATOM     20  H   UNL     1       5.582   3.621  20.096  0.00  0.00    +0.000 HD
ENDBRANCH   1  17
BRANCH  12  21
ATOM     21  C   UNL     1      -1.420  10.825  19.485  0.00  0.00    +0.000 C 
BRANCH  21  22
ATOM     22  C   UNL     1      -2.434  10.993  18.379  0.00  0.00    +0.000 A 
ATOM     23  C   UNL     1      -3.639  11.668  18.611  0.00  0.00    +0.000 A 
ATOM     24  C   UNL     1      -4.569  11.813  17.584  0.00  0.00    +0.000 A 
ATOM     25  F   UNL     1      -5.714  12.467  17.827  0.00  0.00    +0.000 F 
ATOM     26  C   UNL     1      -4.331  11.303  16.316  0.00  0.00    +0.000 A 
ATOM     27  C   UNL     1      -3.136  10.633  16.077  0.00  0.00    +0.000 A 
ATOM     28 CL   UNL     1      -2.813   9.998  14.510  0.00  0.00    +0.000 Cl
ATOM     29  C   UNL     1      -2.190  10.473  17.096  0.00  0.00    +0.000 A 
ENDBRANCH  21  22
ENDBRANCH  12  21
TORSDOF 3
ENDMDL
MODEL 3
REMARK VINA RESULT:      -7.8      2.889      3.580
REMARK  Name = 
REMARK  3 active torsions:
REMARK  status: ('A' for Active; 'I' for Inactive)
REMARK    1  A    between atoms: C_2  and  C_4
REMARK    2  A    between atoms: C_15  and  C_16
REMARK    3  A    between atoms: C_16  and  C_17
REMARK                            x       y       z     vdW  Elec       q    Type
REMARK                         _______ _______ _______ _____ _____    ______ ____
ROOT
ATOM      1  C   UNL     1       3.207   3.399  19.565  0.00  0.00    +0.000 A 
ATOM      2  C   UNL     1       2.444   3.418  20.743  0.00  0.00    +0.000 A 
ATOM      3  C   UNL     1       1.772   4.583  21.136  0.00  0.00    +0.000 A 
ATOM      4  C   UNL     1       1.844   5.739  20.359  0.00  0.00    +0.000 A 
ATOM      5  C   UNL     1       2.582   5.724  19.183  0.00  0.00    +0.000 A 
ATOM      6  C   UNL     1       3.285   4.569  18.814  0.00  0.00    +0.000 A 
ATOM      7  C   UNL     1       4.009   4.825  17.530  0.00  0.00    +0.000 C 
ATOM      8  C   UNL     1       3.866   6.354  17.382  0.00  0.00    +0.000 C 
ATOM      9  N   UNL     1       2.758   6.767  18.253  0.00  0.00    +0.000 N 
ATOM     10  C   UNL     1       2.332   8.093  18.219  0.00  0.00    +0.000 A 
ATOM     11  C   UNL     1       1.043   8.434  18.632  0.00  0.00    +0.000 A 
ATOM     12  C   UNL     1       0.594   9.761  18.566  0.00  0.00    +0.000 A 
ATOM     13  C   UNL     1       1.479  10.726  18.100  0.00  0.00    +0.000 A 
ATOM     14  C   UNL     1       2.739  10.320  17.698  0.00  0.00    +0.000 A 
ATOM     15  N   UNL     1       3.165   9.038  17.728  0.00  0.00    +0.000 NA
ENDROOT
BRANCH   1  17
ATOM     16  N   UNL     1       5.030   1.818  19.848  0.00  0.00    +0.000 N 
ATOM     17  C   UNL     1       3.914   2.163  19.136  0.00  0.00    +0.000 C 
ATOM     18  O   UNL     1       3.513   1.459  18.221  0.00  0.00    +0.000 OA
ATOM     19  H   UNL     1       5.448   0.924  19.624  0.00  0.00    +0.000 HD
ATOM     20  H   UNL     1       5.253   2.232  20.743  0.00  0.00    +0.000 HD
ENDBRANCH   1  17
BRANCH  12  21
ATOM     21  C   UNL     1      -0.810  10.121  18.983  0.00  0.00    +0.000 C 
BRANCH  21  22
ATOM     22  C   UNL     1      -0.921  10.638  20.398  0.00  0.00    +0.000 A 
ATOM     23  C   UNL     1      -0.454   9.875  21.475  0.00  0.00    +0.000 A 
ATOM     24  C   UNL     1      -0.565  10.359  22.776  0.00  0.00    +0.000 A 
ATOM     25  F   UNL     1      -0.108   9.614  23.792  0.00  0.00    +0.000 F 
ATOM     26  C   UNL     1      -1.130  11.599  23.040  0.00  0.00    +0.000 A 
ATOM     27  C   UNL     1      -1.594  12.363  21.975  0.00  0.00    +0.000 A 
ATOM     28 CL   UNL     1      -2.292  13.909  22.275  0.00  0.00    +0.000 Cl
ATOM     29  C   UNL     1      -1.496  11.893  20.661  0.00  0.00    +0.000 A 
ENDBRANCH  21  22
ENDBRANCH  12  21
TORSDOF 3
ENDMDL
MODEL 4
REMARK VINA RESULT:      -7.7      5.061      8.732
REMARK  Name = 
REMARK  3 active torsions:
REMARK  status: ('A' for Active; 'I' for Inactive)
REMARK    1  A    between atoms: C_2  and  C_4
REMARK    2  A    between atoms: C_15  and  C_16
REMARK    3  A    between atoms: C_16  and  C_17
REMARK                            x       y       z     vdW  Elec       q    Type
REMARK                         _______ _______ _______ _____ _____    ______ ____
ROOT
ATOM      1  C   UNL     1       0.649  10.661  19.616  0.00  0.00    +0.000 A 
ATOM      2  C   UNL     1       1.440  11.012  18.511  0.00  0.00    +0.000 A 
ATOM      3  C   UNL     1       2.295  10.073  17.921  0.00  0.00    +0.000 A 
ATOM      4  C   UNL     1       2.368   8.771  18.416  0.00  0.00    +0.000 A 
ATOM      5  C   UNL     1       1.578   8.410  19.499  0.00  0.00    +0.000 A 
ATOM      6  C   UNL     1       0.752   9.363  20.111  0.00  0.00    +0.000 A 
ATOM      7  C   UNL     1       0.031   8.724  21.256  0.00  0.00    +0.000 C 
ATOM      8  C   UNL     1       0.775   7.381  21.392  0.00  0.00    +0.000 C 
ATOM      9  N   UNL     1       1.484   7.152  20.126  0.00  0.00    +0.000 N 
ATOM     10  C   UNL     1       2.144   5.941  19.932  0.00  0.00    +0.000 A 
ATOM     11  C   UNL     1       2.415   5.480  18.643  0.00  0.00    +0.000 A 
ATOM     12  C   UNL     1       3.046   4.245  18.439  0.00  0.00    +0.000 A 
ATOM     13  C   UNL     1       3.414   3.507  19.558  0.00  0.00    +0.000 A 
ATOM     14  C   UNL     1       3.109   4.018  20.807  0.00  0.00    +0.000 A 
ATOM     15  N   UNL     1       2.470   5.191  21.010  0.00  0.00    +0.000 NA
ENDROOT
BRANCH   1  17
ATOM     16  N   UNL     1       0.254  12.422  21.242  0.00  0.00    +0.000 N 
ATOM     17  C   UNL     1      -0.268  11.650  20.241  0.00  0.00    +0.000 C 
ATOM     18  O   UNL     1      -1.422  11.804  19.868  0.00  0.00    +0.000 OA
ATOM     19  H   UNL     1      -0.337  13.164  21.593  0.00  0.00    +0.000 HD
ATOM     20  H   UNL     1       1.247  12.491  21.414  0.00  0.00    +0.000 HD
ENDBRANCH   1  17
BRANCH  12  21
ATOM     21  C   UNL     1       3.308   3.734  17.043  0.00  0.00    +0.000 C 
BRANCH  21  22
ATOM     22  C   UNL     1       4.680   4.072  16.510  0.00  0.00    +0.000 A 
ATOM     23  C   UNL     1       5.685   4.537  17.367  0.00  0.00    +0.000 A 
ATOM     24  C   UNL     1       6.945   4.850  16.863  0.00  0.00    +0.000 A 
ATOM     25  F   UNL     1       7.893   5.289  17.703  0.00  0.00    +0.000 F 
ATOM     26  C   UNL     1       7.240   4.707  15.516  0.00  0.00    +0.000 A 
ATOM     27  C   UNL     1       6.248   4.243  14.658  0.00  0.00    +0.000 A 
ATOM     28 CL   UNL     1       6.592   4.049  12.982  0.00  0.00    +0.000 Cl
ATOM     29  C   UNL     1       4.974   3.928  15.143  0.00  0.00    +0.000 A 
ENDBRANCH  21  22
ENDBRANCH  12  21
TORSDOF 3
ENDMDL
MODEL 5
REMARK VINA RESULT:      -7.6      4.899      8.551
REMARK  Name = 
REMARK  3 active torsions:
REMARK  status: ('A' for Active; 'I' for Inactive)
REMARK    1  A    between atoms: C_2  and  C_4
REMARK    2  A    between atoms: C_15  and  C_16
REMARK    3  A    between atoms: C_16  and  C_17
REMARK                            x       y       z     vdW  Elec       q    Type
REMARK                         _______ _______ _______ _____ _____    ______ ____
ROOT
ATOM      1  C   UNL     1       0.623  10.705  19.657  0.00  0.00    +0.000 A 
ATOM      2  C   UNL     1       1.403  11.069  18.548  0.00  0.00    +0.000 A 
ATOM      3  C   UNL     1       2.261  10.141  17.946  0.00  0.00    +0.000 A 
ATOM      4  C   UNL     1       2.349   8.836  18.433  0.00  0.00    +0.000 A 
ATOM      5  C   UNL     1       1.569   8.462  19.519  0.00  0.00    +0.000 A 
ATOM      6  C   UNL     1       0.740   9.405  20.143  0.00  0.00    +0.000 A 
ATOM      7  C   UNL     1       0.033   8.753  21.290  0.00  0.00    +0.000 C 
ATOM      8  C   UNL     1       0.789   7.415  21.412  0.00  0.00    +0.000 C 
ATOM      9  N   UNL     1       1.490   7.200  20.140  0.00  0.00    +0.000 N 
ATOM     10  C   UNL     1       2.158   5.995  19.934  0.00  0.00    +0.000 A 
ATOM     11  C   UNL     1       2.424   5.544  18.640  0.00  0.00    +0.000 A 
ATOM     12  C   UNL     1       3.063   4.315  18.423  0.00  0.00    +0.000 A 
ATOM     13  C   UNL     1       3.445   3.574  19.536  0.00  0.00    +0.000 A 
ATOM     14  C   UNL     1       3.145   4.075  20.790  0.00  0.00    +0.000 A 
ATOM     15  N   UNL     1       2.499   5.242  21.004  0.00  0.00    +0.000 NA
ENDROOT
BRANCH   1  17
ATOM     16  N   UNL     1      -1.557  11.771  19.768  0.00  0.00    +0.000 N 
ATOM     17  C   UNL     1      -0.298  11.682  20.294  0.00  0.00    +0.000 C 
ATOM     18  O   UNL     1       0.024  12.355  21.263  0.00  0.00    +0.000 OA
ATOM     19  H   UNL     1      -2.214  12.356  20.267  0.00  0.00    +0.000 HD
ATOM     20  H   UNL     1      -1.932  11.077  19.135  0.00  0.00    +0.000 HD
ENDBRANCH   1  17
BRANCH  12  21
ATOM     21  C   UNL     1       3.318   3.815  17.023  0.00  0.00    +0.000 C 
BRANCH  21  22
ATOM     22  C   UNL     1       4.629   4.278  16.432  0.00  0.00    +0.000 A 
ATOM     23  C   UNL     1       5.091   3.751  15.219  0.00  0.00    +0.000 A 
ATOM     24  C   UNL     1       6.303   4.181  14.686  0.00  0.00    +0.000 A 
ATOM     25  F   UNL     1       6.724   3.666  13.522  0.00  0.00    +0.000 F 
ATOM     26  C   UNL     1       7.077   5.136  15.329  0.00  0.00    +0.000 A 
ATOM     27  C   UNL     1       6.624   5.666  16.532  0.00  0.00    +0.000 A 
ATOM     28 CL   UNL     1       7.562   6.859  17.345  0.00  0.00    +0.000 Cl
ATOM     29  C   UNL     1       5.411   5.244  17.087  0.00  0.00    +0.000 A 
ENDBRANCH  21  22
ENDBRANCH  12  21
TORSDOF 3
ENDMDL
MODEL 6
REMARK VINA RESULT:      -7.6      5.406      8.743
REMARK  Name = 
REMARK  3 active torsions:
REMARK  status: ('A' for Active; 'I' for Inactive)
REMARK    1  A    between atoms: C_2  and  C_4
REMARK    2  A    between atoms: C_15  and  C_16
REMARK    3  A    between atoms: C_16  and  C_17
REMARK                            x       y       z     vdW  Elec       q    Type
REMARK                         _______ _______ _______ _____ _____    ______ ____
ROOT
ATOM      1  C   UNL     1      -0.815  13.420  22.671  0.00  0.00    +0.000 A 
ATOM      2  C   UNL     1      -1.600  12.491  23.372  0.00  0.00    +0.000 A 
ATOM      3  C   UNL     1      -1.563  11.132  23.037  0.00  0.00    +0.000 A 
ATOM      4  C   UNL     1      -0.739  10.678  22.006  0.00  0.00    +0.000 A 
ATOM      5  C   UNL     1       0.053  11.587  21.318  0.00  0.00    +0.000 A 
ATOM      6  C   UNL     1      -0.016  12.952  21.631  0.00  0.00    +0.000 A 
ATOM      7  C   UNL     1       0.913  13.708  20.735  0.00  0.00    +0.000 C 
ATOM      8  C   UNL     1       1.287  12.640  19.688  0.00  0.00    +0.000 C 
ATOM      9  N   UNL     1       0.963  11.333  20.274  0.00  0.00    +0.000 N 
ATOM     10  C   UNL     1       1.318  10.177  19.582  0.00  0.00    +0.000 A 
ATOM     11  C   UNL     1       1.473   8.965  20.257  0.00  0.00    +0.000 A 
ATOM     12  C   UNL     1       1.865   7.805  19.574  0.00  0.00    +0.000 A 
ATOM     13  C   UNL     1       2.069   7.895  18.202  0.00  0.00    +0.000 A 
ATOM     14  C   UNL     1       1.906   9.127  17.595  0.00  0.00    +0.000 A 
ATOM     15  N   UNL     1       1.561  10.256  18.254  0.00  0.00    +0.000 NA
ENDROOT
BRANCH   1  17
ATOM     16  N   UNL     1      -1.861  15.606  22.500  0.00  0.00    +0.000 N 
ATOM     17  C   UNL     1      -0.842  14.863  23.029  0.00  0.00    +0.000 C 
ATOM     18  O   UNL     1      -0.025  15.369  23.785  0.00  0.00    +0.000 OA
ATOM     19  H   UNL     1      -1.940  16.560  22.827  0.00  0.00    +0.000 HD
ATOM     20  H   UNL     1      -2.676  15.186  22.074  0.00  0.00    +0.000 HD
ENDBRANCH   1  17
BRANCH  12  21
ATOM     21  C   UNL     1       2.064   6.505  20.313  0.00  0.00    +0.000 C 
BRANCH  21  22
ATOM     22  C   UNL     1       2.756   5.435  19.503  0.00  0.00    +0.000 A 
ATOM     23  C   UNL     1       2.026   4.382  18.939  0.00  0.00    +0.000 A 
ATOM     24  C   UNL     1       2.675   3.398  18.198  0.00  0.00    +0.000 A 
ATOM     25  F   UNL     1       1.956   2.401  17.663  0.00  0.00    +0.000 F 
ATOM     26  C   UNL     1       4.047   3.434  17.994  0.00  0.00    +0.000 A 
ATOM     27  C   UNL     1       4.779   4.478  18.549  0.00  0.00    +0.000 A 
ATOM     28 CL   UNL     1       6.482   4.550  18.303  0.00  0.00    +0.000 Cl
ATOM     29  C   UNL     1       4.147   5.474  19.300  0.00  0.00    +0.000 A 
ENDBRANCH  21  22
ENDBRANCH  12  21
TORSDOF 3
ENDMDL
MODEL 7
REMARK VINA RESULT:      -7.6      5.329      8.985
REMARK  Name = 
REMARK  3 active torsions:
REMARK  status: ('A' for Active; 'I' for Inactive)
REMARK    1  A    between atoms: C_2  and  C_4
REMARK    2  A    between atoms: C_15  and  C_16
REMARK    3  A    between atoms: C_16  and  C_17
REMARK                            x       y       z     vdW  Elec       q    Type
REMARK                         _______ _______ _______ _____ _____    ______ ____
ROOT
ATOM      1  C   UNL     1       0.623  15.038  19.200  0.00  0.00    +0.000 A 
ATOM      2  C   UNL     1       1.815  15.168  18.470  0.00  0.00    +0.000 A 
ATOM      3  C   UNL     1       2.631  14.054  18.237  0.00  0.00    +0.000 A 
ATOM      4  C   UNL     1       2.268  12.796  18.719  0.00  0.00    +0.000 A 
ATOM      5  C   UNL     1       1.083  12.655  19.429  0.00  0.00    +0.000 A 
ATOM      6  C   UNL     1       0.289  13.779  19.693  0.00  0.00    +0.000 A 
ATOM      7  C   UNL     1      -0.909  13.357  20.485  0.00  0.00    +0.000 C 
ATOM      8  C   UNL     1      -0.537  11.915  20.883  0.00  0.00    +0.000 C 
ATOM      9  N   UNL     1       0.529  11.479  19.972  0.00  0.00    +0.000 N 
ATOM     10  C   UNL     1       0.971  10.159  20.033  0.00  0.00    +0.000 A 
ATOM     11  C   UNL     1       1.602   9.571  18.935  0.00  0.00    +0.000 A 
ATOM     12  C   UNL     1       2.016   8.233  18.976  0.00  0.00    +0.000 A 
ATOM     13  C   UNL     1       1.801   7.519  20.149  0.00  0.00    +0.000 A 
ATOM     14  C   UNL     1       1.163   8.159  21.197  0.00  0.00    +0.000 A 
ATOM     15  N   UNL     1       0.731   9.438  21.151  0.00  0.00    +0.000 NA
ENDROOT
BRANCH   1  17
ATOM     16  N   UNL     1      -0.938  16.701  18.363  0.00  0.00    +0.000 N 
ATOM     17  C   UNL     1      -0.254  16.214  19.443  0.00  0.00    +0.000 C 
ATOM     18  O   UNL     1      -0.396  16.712  20.550  0.00  0.00    +0.000 OA
ATOM     19  H   UNL     1      -1.613  17.431  18.549  0.00  0.00    +0.000 HD
ATOM     20  H   UNL     1      -1.032  16.182  17.500  0.00  0.00    +0.000 HD
ENDBRANCH   1  17
BRANCH  12  21
ATOM     21  C   UNL     1       2.668   7.591  17.776  0.00  0.00    +0.000 C 
BRANCH  21  22
ATOM     22  C   UNL     1       3.118   6.168  18.006  0.00  0.00    +0.000 A 
ATOM     23  C   UNL     1       4.474   5.869  18.187  0.00  0.00    +0.000 A 
ATOM     24  C   UNL     1       4.879   4.552  18.394  0.00  0.00    +0.000 A 
ATOM     25  F   UNL     1       6.181   4.289  18.570  0.00  0.00    +0.000 F 
ATOM     26  C   UNL     1       3.962   3.512  18.430  0.00  0.00    +0.000 A 
ATOM     27  C   UNL     1       2.613   3.801  18.253  0.00  0.00    +0.000 A 
ATOM     28 CL   UNL     1       1.454   2.529  18.303  0.00  0.00    +0.000 Cl
ATOM     29  C   UNL     1       2.186   5.117  18.040  0.00  0.00    +0.000 A 
ENDBRANCH  21  22
ENDBRANCH  12  21
TORSDOF 3
ENDMDL
MODEL 8
REMARK VINA RESULT:      -7.5      6.223      9.819
REMARK  Name = 
REMARK  3 active torsions:
REMARK  status: ('A' for Active; 'I' for Inactive)
REMARK    1  A    between atoms: C_2  and  C_4
REMARK    2  A    between atoms: C_15  and  C_16
REMARK    3  A    between atoms: C_16  and  C_17
REMARK                            x       y       z     vdW  Elec       q    Type
REMARK                         _______ _______ _______ _____ _____    ______ ____
ROOT
ATOM      1  C   UNL     1      -5.690  13.782  23.314  0.00  0.00    +0.000 A 
ATOM      2  C   UNL     1      -4.688  13.335  24.189  0.00  0.00    +0.000 A 
ATOM      3  C   UNL     1      -3.590  12.614  23.704  0.00  0.00    +0.000 A 
ATOM      4  C   UNL     1      -3.471  12.334  22.342  0.00  0.00    +0.000 A 
ATOM      5  C   UNL     1      -4.450  12.786  21.467  0.00  0.00    +0.000 A 
ATOM      6  C   UNL     1      -5.566  13.475  21.961  0.00  0.00    +0.000 A 
ATOM      7  C   UNL     1      -6.469  13.827  20.821  0.00  0.00    +0.000 C 
ATOM      8  C   UNL     1      -5.869  12.995  19.670  0.00  0.00    +0.000 C 
ATOM      9  N   UNL     1      -4.502  12.635  20.068  0.00  0.00    +0.000 N 
ATOM     10  C   UNL     1      -3.684  11.979  19.150  0.00  0.00    +0.000 A 
ATOM     11  C   UNL     1      -2.295  12.033  19.274  0.00  0.00    +0.000 A 
ATOM     12  C   UNL     1      -1.464  11.406  18.335  0.00  0.00    +0.000 A 
ATOM     13  C   UNL     1      -2.067  10.711  17.292  0.00  0.00    +0.000 A 
ATOM     14  C   UNL     1      -3.448  10.704  17.223  0.00  0.00    +0.000 A 
ATOM     15  N   UNL     1      -4.253  11.334  18.106  0.00  0.00    +0.000 NA
ENDROOT
BRANCH   1  17
ATOM     16  N   UNL     1      -7.750  13.880  24.599  0.00  0.00    +0.000 N 
ATOM     17  C   UNL     1      -6.853  14.559  23.820  0.00  0.00    +0.000 C 
ATOM     18  O   UNL     1      -6.997  15.751  23.594  0.00  0.00    +0.000 OA
ATOM     19  H   UNL     1      -8.481  14.431  25.029  0.00  0.00    +0.000 HD
ATOM     20  H   UNL     1      -7.546  12.974  24.999  0.00  0.00    +0.000 HD
ENDBRANCH   1  17
BRANCH  12  21
ATOM     21  C   UNL     1       0.037  11.494  18.453  0.00  0.00    +0.000 C 
BRANCH  21  22
ATOM     22  C   UNL     1       0.688  10.243  18.993  0.00  0.00    +0.000 A 
ATOM     23  C   UNL     1       0.470   9.839  20.316  0.00  0.00    +0.000 A 
ATOM     24  C   UNL     1       1.080   8.686  20.805  0.00  0.00    +0.000 A 
ATOM     25  F   UNL     1       0.854   8.315  22.073  0.00  0.00    +0.000 F 
ATOM     26  C   UNL     1       1.906   7.910  20.005  0.00  0.00    +0.000 A 
ATOM     27  C   UNL     1       2.125   8.303  18.690  0.00  0.00    +0.000 A 
ATOM     28 CL   UNL     1       3.139   7.354  17.673  0.00  0.00    +0.000 Cl
ATOM     29  C   UNL     1       1.526   9.461  18.180  0.00  0.00    +0.000 A 
ENDBRANCH  21  22
ENDBRANCH  12  21
TORSDOF 3
ENDMDL
MODEL 9
REMARK VINA RESULT:      -7.5      3.069      3.765
REMARK  Name = 
REMARK  3 active torsions:
REMARK  status: ('A' for Active; 'I' for Inactive)
REMARK    1  A    between atoms: C_2  and  C_4
REMARK    2  A    between atoms: C_15  and  C_16
REMARK    3  A    between atoms: C_16  and  C_17
REMARK                            x       y       z     vdW  Elec       q    Type
REMARK                         _______ _______ _______ _____ _____    ______ ____
ROOT
ATOM      1  C   UNL     1       3.183   3.381  19.602  0.00  0.00    +0.000 A 
ATOM      2  C   UNL     1       2.400   3.434  20.766  0.00  0.00    +0.000 A 
ATOM      3  C   UNL     1       1.736   4.614  21.122  0.00  0.00    +0.000 A 
ATOM      4  C   UNL     1       1.835   5.753  20.322  0.00  0.00    +0.000 A 
ATOM      5  C   UNL     1       2.594   5.705  19.160  0.00  0.00    +0.000 A 
ATOM      6  C   UNL     1       3.288   4.534  18.827  0.00  0.00    +0.000 A 
ATOM      7  C   UNL     1       4.038   4.754  17.551  0.00  0.00    +0.000 C 
ATOM      8  C   UNL     1       3.915   6.280  17.369  0.00  0.00    +0.000 C 
ATOM      9  N   UNL     1       2.798   6.725  18.211  0.00  0.00    +0.000 N 
ATOM     10  C   UNL     1       2.388   8.055  18.141  0.00  0.00    +0.000 A 
ATOM     11  C   UNL     1       1.097   8.420  18.525  0.00  0.00    +0.000 A 
ATOM     12  C   UNL     1       0.665   9.750  18.424  0.00  0.00    +0.000 A 
ATOM     13  C   UNL     1       1.570  10.695  17.952  0.00  0.00    +0.000 A 
ATOM     14  C   UNL     1       2.832  10.265  17.582  0.00  0.00    +0.000 A 
ATOM     15  N   UNL     1       3.242   8.979  17.646  0.00  0.00    +0.000 NA
ENDROOT
BRANCH   1  17
ATOM     16  N   UNL     1       4.980   1.783  19.952  0.00  0.00    +0.000 N 
ATOM     17  C   UNL     1       3.882   2.128  19.211  0.00  0.00    +0.000 C 
ATOM     18  O   UNL     1       3.491   1.411  18.302  0.00  0.00    +0.000 OA
ATOM     19  H   UNL     1       5.391   0.880  19.754  0.00  0.00    +0.000 HD
ATOM     20  H   UNL     1       5.191   2.212  20.842  0.00  0.00    +0.000 HD
ENDBRANCH   1  17
BRANCH  12  21
ATOM     21  C   UNL     1      -0.742  10.136  18.808  0.00  0.00    +0.000 C 
BRANCH  21  22
ATOM     22  C   UNL     1      -0.879  10.634  20.227  0.00  0.00    +0.000 A 
ATOM     23  C   UNL     1      -1.519  11.849  20.498  0.00  0.00    +0.000 A 
ATOM     24  C   UNL     1      -1.636  12.301  21.810  0.00  0.00    +0.000 A 
ATOM     25  F   UNL     1      -2.257  13.465  22.048  0.00  0.00    +0.000 F 
ATOM     26  C   UNL     1      -1.133  11.567  22.875  0.00  0.00    +0.000 A 
ATOM     27  C   UNL     1      -0.498  10.358  22.614  0.00  0.00    +0.000 A 
ATOM     28 CL   UNL     1       0.127   9.424  23.918  0.00  0.00    +0.000 Cl
ATOM     29  C   UNL     1      -0.366   9.888  21.302  0.00  0.00    +0.000 A 
ENDBRANCH  21  22
ENDBRANCH  12  21
TORSDOF 3
ENDMDL
