MODEL 1
REMARK VINA RESULT:      -8.6      0.000      0.000
REMARK  Name = 
REMARK  7 active torsions:
REMARK  status: ('A' for Active; 'I' for Inactive)
REMARK    1  A    between atoms: C_2  and  C_5
REMARK    2  A    between atoms: N_3  and  O_4
REMARK    3  A    between atoms: C_5  and  C_6
REMARK    4  A    between atoms: C_5  and  C_22
REMARK    5  A    between atoms: C_9  and  N_10
REMARK    6  A    between atoms: N_10  and  S_11
REMARK    7  A    between atoms: S_11  and  C_14
REMARK                            x       y       z     vdW  Elec       q    Type
REMARK                         _______ _______ _______ _____ _____    ______ ____
ROOT
ATOM      1  C   UNL     1       3.861   5.158  19.052  0.00  0.00    +0.000 A 
ATOM      2  C   UNL     1       5.252   5.343  19.133  0.00  0.00    +0.000 A 
ATOM      3  C   UNL     1       6.098   4.880  18.120  0.00  0.00    +0.000 A 
ATOM      4  C   UNL     1       5.560   4.226  17.017  0.00  0.00    +0.000 A 
ATOM      5  C   UNL     1       4.190   3.980  16.950  0.00  0.00    +0.000 A 
ATOM      6  C   UNL     1       3.343   4.439  17.963  0.00  0.00    +0.000 A 
ENDROOT
BRANCH   4   7
ATOM      7  N   UNL     1       6.377   3.848  15.920  0.00  0.00    +0.000 N 
ATOM      8  H   UNL     1       6.282   2.891  15.584  0.00  0.00    +0.000 HD
BRANCH   7   9
ATOM      9  S   UNL     1       6.588   4.919  14.637  0.00  0.00    +0.000 S 
ATOM     10  O   UNL     1       5.556   5.925  14.785  0.00  0.00    +0.000 OA
ATOM     11  O   UNL     1       7.981   5.300  14.553  0.00  0.00    +0.000 OA
BRANCH   9  12
ATOM     12  C   UNL     1       6.177   3.928  13.225  0.00  0.00    +0.000 A 
ATOM     13  C   UNL     1       7.182   3.274  12.506  0.00  0.00    +0.000 A 
ATOM     14  C   UNL     1       6.836   2.499  11.396  0.00  0.00    +0.000 A 
ATOM     15  C   UNL     1       5.496   2.373  11.021  0.00  0.00    +0.000 A 
ATOM     16  C   UNL     1       4.497   3.007  11.759  0.00  0.00    +0.000 A 
ATOM     17  C   UNL     1       4.833   3.781  12.868  0.00  0.00    +0.000 A 
ENDBRANCH   9  12
ENDBRANCH   7   9
ENDBRANCH   4   7
BRANCH   1  18
ATOM     18  C   UNL     1       2.914   5.771  20.087  0.00  0.00    +0.000 C 
BRANCH  18  19
ATOM     19  C   UNL     1       2.265   7.065  19.611  0.00  0.00    +0.000 A 
ATOM     20  C   UNL     1       2.330   7.513  18.281  0.00  0.00    +0.000 A 
ATOM     21  C   UNL     1       1.752   8.730  17.907  0.00  0.00    +0.000 A 
ATOM     22  C   UNL     1       1.108   9.524  18.855  0.00  0.00    +0.000 A 
ATOM     23  C   UNL     1       1.034   9.096  20.177  0.00  0.00    +0.000 A 
ATOM     24  C   UNL     1       1.608   7.880  20.542  0.00  0.00    +0.000 A 
ATOM     25  F   UNL     1       1.518   7.488  21.822  0.00  0.00    +0.000 F 
ENDBRANCH  18  19
BRANCH  18  27
ATOM     26  O   UNL     1       0.765   4.572  20.152  0.00  0.00    +0.000 OA
ATOM     27  C   UNL     1       1.909   4.717  20.592  0.00  0.00    +0.000 C 
ATOM     28  N   UNL     1       2.364   3.908  21.609  0.00  0.00    +0.000 N 
ATOM     29  H   UNL     1       3.321   3.850  21.938  0.00  0.00    +0.000 HD
BRANCH  28  30
ATOM     30  O   UNL     1       1.473   2.897  22.043  0.00  0.00    +0.000 OA
ATOM     31  H   UNL     1       1.195   2.486  21.191  0.00  0.00    +0.000 HD
ENDBRANCH  28  30
ENDBRANCH  18  27
ENDBRANCH   1  18
TORSDOF 7
ENDMDL
MODEL 2
REMARK VINA RESULT:      -8.6      4.107      8.347
REMARK  Name = 
REMARK  7 active torsions:
REMARK  status: ('A' for Active; 'I' for Inactive)
REMARK    1  A    between atoms: C_2  and  C_5
REMARK    2  A    between atoms: N_3  and  O_4
REMARK    3  A    between atoms: C_5  and  C_6
REMARK    4  A    between atoms: C_5  and  C_22
REMARK    5  A    between atoms: C_9  and  N_10
REMARK    6  A    between atoms: N_10  and  S_11
REMARK    7  A    between atoms: S_11  and  C_14
REMARK                            x       y       z     vdW  Elec       q    Type
REMARK                         _______ _______ _______ _____ _____    ______ ____
ROOT
ATOM      1  C   UNL     1       2.577   6.003  18.707  0.00  0.00    +0.000 A 
ATOM      2  C   UNL     1       2.465   7.371  18.404  0.00  0.00    +0.000 A 
ATOM      3  C   UNL     1       2.100   8.297  19.388  0.00  0.00    +0.000 A 
ATOM      4  C   UNL     1       1.842   7.861  20.683  0.00  0.00    +0.000 A 
ATOM      5  C   UNL     1       1.888   6.501  20.985  0.00  0.00    +0.000 A 
ATOM      6  C   UNL     1       2.249   5.575  20.003  0.00  0.00    +0.000 A 
ENDROOT
BRANCH   4   7
ATOM      7  N   UNL     1       1.583   8.786  21.728  0.00  0.00    +0.000 N 
ATOM      8  H   UNL     1       2.235   9.562  21.828  0.00  0.00    +0.000 HD
BRANCH   7   9
ATOM      9  S   UNL     1       0.000   9.285  22.018  0.00  0.00    +0.000 S 
ATOM     10  O   UNL     1      -0.839   8.146  21.709  0.00  0.00    +0.000 OA
ATOM     11  O   UNL     1      -0.073   9.924  23.314  0.00  0.00    +0.000 OA
BRANCH   9  12
ATOM     12  C   UNL     1      -0.262  10.507  20.759  0.00  0.00    +0.000 A 
ATOM     13  C   UNL     1       0.202  11.814  20.938  0.00  0.00    +0.000 A 
ATOM     14  C   UNL     1      -0.017  12.761  19.934  0.00  0.00    +0.000 A 
ATOM     15  C   UNL     1      -0.683  12.397  18.762  0.00  0.00    +0.000 A 
ATOM     16  C   UNL     1      -1.120  11.085  18.580  0.00  0.00    +0.000 A 
ATOM     17  C   UNL     1      -0.905  10.133  19.576  0.00  0.00    +0.000 A 
ENDBRANCH   9  12
ENDBRANCH   7   9
ENDBRANCH   4   7
BRANCH   1  18
ATOM     18  C   UNL     1       3.099   5.000  17.676  0.00  0.00    +0.000 C 
BRANCH  18  19
ATOM     19  C   UNL     1       4.619   4.890  17.665  0.00  0.00    +0.000 A 
ATOM     20  C   UNL     1       5.422   5.227  18.768  0.00  0.00    +0.000 A 
ATOM     21  C   UNL     1       6.815   5.148  18.689  0.00  0.00    +0.000 A 
ATOM     22  C   UNL     1       7.431   4.741  17.507  0.00  0.00    +0.000 A 
ATOM     23  C   UNL     1       6.652   4.403  16.404  0.00  0.00    +0.000 A 
ATOM     24  C   UNL     1       5.264   4.480  16.491  0.00  0.00    +0.000 A 
ATOM     25  F   UNL     1       4.536   4.145  15.415  0.00  0.00    +0.000 F 
ENDBRANCH  18  19
BRANCH  18  27
ATOM     26  O   UNL     1       1.184   3.456  17.567  0.00  0.00    +0.000 OA
ATOM     27  C   UNL     1       2.376   3.646  17.824  0.00  0.00    +0.000 C 
ATOM     28  N   UNL     1       3.156   2.610  18.283  0.00  0.00    +0.000 N 
ATOM     29  H   UNL     1       4.164   2.624  18.385  0.00  0.00    +0.000 HD
BRANCH  28  30
ATOM     30  O   UNL     1       2.521   1.347  18.369  0.00  0.00    +0.000 OA
ATOM     31  H   UNL     1       3.266   0.727  18.185  0.00  0.00    +0.000 HD
ENDBRANCH  28  30
ENDBRANCH  18  27
ENDBRANCH   1  18
TORSDOF 7
ENDMDL
MODEL 3
REMARK VINA RESULT:      -8.5      0.419      1.007
REMARK  Name = 
REMARK  7 active torsions:
REMARK  status: ('A' for Active; 'I' for Inactive)
REMARK    1  A    between atoms: C_2  and  C_5
REMARK    2  A    between atoms: N_3  and  O_4
REMARK    3  A    between atoms: C_5  and  C_6
REMARK    4  A    between atoms: C_5  and  C_22
REMARK    5  A    between atoms: C_9  and  N_10
REMARK    6  A    between atoms: N_10  and  S_11
REMARK    7  A    between atoms: S_11  and  C_14
REMARK                            x       y       z     vdW  Elec       q    Type
REMARK                         _______ _______ _______ _____ _____    ______ ____
ROOT
ATOM      1  C   UNL     1       4.025   5.098  18.782  0.00  0.00    +0.000 A 
ATOM      2  C   UNL     1       5.366   5.503  18.897  0.00  0.00    +0.000 A 
ATOM      3  C   UNL     1       6.311   5.139  17.932  0.00  0.00    +0.000 A 
ATOM      4  C   UNL     1       5.923   4.366  16.843  0.00  0.00    +0.000 A 
ATOM      5  C   UNL     1       4.611   3.904  16.746  0.00  0.00    +0.000 A 
ATOM      6  C   UNL     1       3.667   4.264  17.711  0.00  0.00    +0.000 A 
ENDROOT
BRANCH   4   7
ATOM      7  N   UNL     1       6.829   4.078  15.789  0.00  0.00    +0.000 N 
ATOM      8  H   UNL     1       6.945   3.097  15.537  0.00  0.00    +0.000 HD
BRANCH   7   9
ATOM      9  S   UNL     1       6.844   5.059  14.420  0.00  0.00    +0.000 S 
ATOM     10  O   UNL     1       5.818   6.057  14.635  0.00  0.00    +0.000 OA
ATOM     11  O   UNL     1       8.205   5.452  14.126  0.00  0.00    +0.000 OA
BRANCH   9  12
ATOM     12  C   UNL     1       6.274   3.964  13.146  0.00  0.00    +0.000 A 
ATOM     13  C   UNL     1       4.909   3.861  12.864  0.00  0.00    +0.000 A 
ATOM     14  C   UNL     1       4.482   2.991  11.857  0.00  0.00    +0.000 A 
ATOM     15  C   UNL     1       5.416   2.244  11.136  0.00  0.00    +0.000 A 
ATOM     16  C   UNL     1       6.778   2.370  11.406  0.00  0.00    +0.000 A 
ATOM     17  C   UNL     1       7.213   3.237  12.408  0.00  0.00    +0.000 A 
ENDBRANCH   9  12
ENDBRANCH   7   9
ENDBRANCH   4   7
BRANCH   1  18
ATOM     18  C   UNL     1       2.957   5.595  19.760  0.00  0.00    +0.000 C 
BRANCH  18  19
ATOM     19  C   UNL     1       2.362   6.940  19.361  0.00  0.00    +0.000 A 
ATOM     20  C   UNL     1       2.504   7.493  18.078  0.00  0.00    +0.000 A 
ATOM     21  C   UNL     1       1.973   8.752  17.778  0.00  0.00    +0.000 A 
ATOM     22  C   UNL     1       1.301   9.482  18.757  0.00  0.00    +0.000 A 
ATOM     23  C   UNL     1       1.150   8.950  20.034  0.00  0.00    +0.000 A 
ATOM     24  C   UNL     1       1.678   7.694  20.324  0.00  0.00    +0.000 A 
ATOM     25  F   UNL     1       1.516   7.201  21.561  0.00  0.00    +0.000 F 
ENDBRANCH  18  19
BRANCH  18  27
ATOM     26  O   UNL     1       1.056   4.136  19.195  0.00  0.00    +0.000 OA
ATOM     27  C   UNL     1       1.905   4.497  20.014  0.00  0.00    +0.000 C 
ATOM     28  N   UNL     1       1.953   3.913  21.260  0.00  0.00    +0.000 N 
ATOM     29  H   UNL     1       2.690   4.033  21.944  0.00  0.00    +0.000 HD
BRANCH  28  30
ATOM     30  O   UNL     1       1.030   2.863  21.488  0.00  0.00    +0.000 OA
ATOM     31  H   UNL     1       0.471   3.232  22.212  0.00  0.00    +0.000 HD
ENDBRANCH  28  30
ENDBRANCH  18  27
ENDBRANCH   1  18
TORSDOF 7
ENDMDL
MODEL 4
REMARK VINA RESULT:      -8.4      4.062      9.103
REMARK  Name = 
REMARK  7 active torsions:
REMARK  status: ('A' for Active; 'I' for Inactive)
REMARK    1  A    between atoms: C_2  and  C_5
REMARK    2  A    between atoms: N_3  and  O_4
REMARK    3  A    between atoms: C_5  and  C_6
REMARK    4  A    between atoms: C_5  and  C_22
REMARK    5  A    between atoms: C_9  and  N_10
REMARK    6  A    between atoms: N_10  and  S_11
REMARK    7  A    between atoms: S_11  and  C_14
REMARK                            x       y       z     vdW  Elec       q    Type
REMARK                         _______ _______ _______ _____ _____    ______ ____
ROOT
ATOM      1  C   UNL     1       2.807   6.494  18.263  0.00  0.00    +0.000 A 
ATOM      2  C   UNL     1       2.478   6.393  19.626  0.00  0.00    +0.000 A 
ATOM      3  C   UNL     1       1.907   7.472  20.308  0.00  0.00    +0.000 A 
ATOM      4  C   UNL     1       1.660   8.662  19.633  0.00  0.00    +0.000 A 
ATOM      5  C   UNL     1       2.036   8.800  18.298  0.00  0.00    +0.000 A 
ATOM      6  C   UNL     1       2.611   7.724  17.616  0.00  0.00    +0.000 A 
ENDROOT
BRANCH   4   7
ATOM      7  N   UNL     1       0.977   9.734  20.265  0.00  0.00    +0.000 N 
ATOM      8  H   UNL     1       0.395  10.323  19.671  0.00  0.00    +0.000 HD
BRANCH   7   9
ATOM      9  S   UNL     1       0.249   9.483  21.763  0.00  0.00    +0.000 S 
ATOM     10  O   UNL     1      -0.560   8.291  21.617  0.00  0.00    +0.000 OA
ATOM     11  O   UNL     1       1.250   9.570  22.804  0.00  0.00    +0.000 OA
BRANCH   9  12
ATOM     12  C   UNL     1      -0.849  10.868  21.904  0.00  0.00    +0.000 A 
ATOM     13  C   UNL     1      -1.130  11.661  20.787  0.00  0.00    +0.000 A 
ATOM     14  C   UNL     1      -1.997  12.749  20.921  0.00  0.00    +0.000 A 
ATOM     15  C   UNL     1      -2.583  13.029  22.158  0.00  0.00    +0.000 A 
ATOM     16  C   UNL     1      -2.318  12.218  23.261  0.00  0.00    +0.000 A 
ATOM     17  C   UNL     1      -1.455  11.130  23.136  0.00  0.00    +0.000 A 
ENDBRANCH   9  12
ENDBRANCH   7   9
ENDBRANCH   4   7
BRANCH   1  18
ATOM     18  C   UNL     1       3.312   5.283  17.474  0.00  0.00    +0.000 C 
BRANCH  18  19
ATOM     19  C   UNL     1       4.815   5.069  17.607  0.00  0.00    +0.000 A 
ATOM     20  C   UNL     1       5.540   5.401  18.764  0.00  0.00    +0.000 A 
ATOM     21  C   UNL     1       6.926   5.223  18.816  0.00  0.00    +0.000 A 
ATOM     22  C   UNL     1       7.612   4.719  17.712  0.00  0.00    +0.000 A 
ATOM     23  C   UNL     1       6.911   4.385  16.557  0.00  0.00    +0.000 A 
ATOM     24  C   UNL     1       5.530   4.561  16.514  0.00  0.00    +0.000 A 
ATOM     25  F   UNL     1       4.877   4.227  15.391  0.00  0.00    +0.000 F 
ENDBRANCH  18  19
BRANCH  18  27
ATOM     26  O   UNL     1       1.273   3.906  17.543  0.00  0.00    +0.000 OA
ATOM     27  C   UNL     1       2.472   4.034  17.804  0.00  0.00    +0.000 C 
ATOM     28  N   UNL     1       3.150   3.018  18.439  0.00  0.00    +0.000 N 
ATOM     29  H   UNL     1       4.154   2.964  18.568  0.00  0.00    +0.000 HD
BRANCH  28  30
ATOM     30  O   UNL     1       2.406   1.842  18.696  0.00  0.00    +0.000 OA
ATOM     31  H   UNL     1       2.769   1.553  19.567  0.00  0.00    +0.000 HD
ENDBRANCH  28  30
ENDBRANCH  18  27
ENDBRANCH   1  18
TORSDOF 7
ENDMDL
MODEL 5
REMARK VINA RESULT:      -8.3      4.158      9.097
REMARK  Name = 
REMARK  7 active torsions:
REMARK  status: ('A' for Active; 'I' for Inactive)
REMARK    1  A    between atoms: C_2  and  C_5
REMARK    2  A    between atoms: N_3  and  O_4
REMARK    3  A    between atoms: C_5  and  C_6
REMARK    4  A    between atoms: C_5  and  C_22
REMARK    5  A    between atoms: C_9  and  N_10
REMARK    6  A    between atoms: N_10  and  S_11
REMARK    7  A    between atoms: S_11  and  C_14
REMARK                            x       y       z     vdW  Elec       q    Type
REMARK                         _______ _______ _______ _____ _____    ______ ____
ROOT
ATOM      1  C   UNL     1       2.528   6.404  18.451  0.00  0.00    +0.000 A 
ATOM      2  C   UNL     1       2.264   7.649  17.854  0.00  0.00    +0.000 A 
ATOM      3  C   UNL     1       1.806   8.728  18.617  0.00  0.00    +0.000 A 
ATOM      4  C   UNL     1       1.607   8.570  19.984  0.00  0.00    +0.000 A 
ATOM      5  C   UNL     1       1.805   7.327  20.581  0.00  0.00    +0.000 A 
ATOM      6  C   UNL     1       2.259   6.247  19.819  0.00  0.00    +0.000 A 
ENDROOT
BRANCH   4   7
ATOM      7  N   UNL     1       1.255   9.674  20.804  0.00  0.00    +0.000 N 
ATOM      8  H   UNL     1       1.073  10.559  20.333  0.00  0.00    +0.000 HD
BRANCH   7   9
ATOM      9  S   UNL     1       0.187   9.444  22.087  0.00  0.00    +0.000 S 
ATOM     10  O   UNL     1      -0.612   8.289  21.738  0.00  0.00    +0.000 OA
ATOM     11  O   UNL     1       0.919   9.483  23.334  0.00  0.00    +0.000 OA
BRANCH   9  12
ATOM     12  C   UNL     1      -0.858  10.874  21.989  0.00  0.00    +0.000 A 
ATOM     13  C   UNL     1      -1.543  11.325  23.122  0.00  0.00    +0.000 A 
ATOM     14  C   UNL     1      -2.362  12.452  23.021  0.00  0.00    +0.000 A 
ATOM     15  C   UNL     1      -2.482  13.124  21.803  0.00  0.00    +0.000 A 
ATOM     16  C   UNL     1      -1.775  12.684  20.684  0.00  0.00    +0.000 A 
ATOM     17  C   UNL     1      -0.954  11.561  20.776  0.00  0.00    +0.000 A 
ENDBRANCH   9  12
ENDBRANCH   7   9
ENDBRANCH   4   7
BRANCH   1  18
ATOM     18  C   UNL     1       3.150   5.255  17.653  0.00  0.00    +0.000 C 
BRANCH  18  19
ATOM     19  C   UNL     1       4.657   5.137  17.852  0.00  0.00    +0.000 A 
ATOM     20  C   UNL     1       5.304   5.479  19.051  0.00  0.00    +0.000 A 
ATOM     21  C   UNL     1       6.694   5.392  19.165  0.00  0.00    +0.000 A 
ATOM     22  C   UNL     1       7.463   4.972  18.081  0.00  0.00    +0.000 A 
ATOM     23  C   UNL     1       6.841   4.630  16.884  0.00  0.00    +0.000 A 
ATOM     24  C   UNL     1       5.454   4.714  16.779  0.00  0.00    +0.000 A 
ATOM     25  F   UNL     1       4.877   4.374  15.617  0.00  0.00    +0.000 F 
ENDBRANCH  18  19
BRANCH  18  27
ATOM     26  O   UNL     1       1.202   3.750  17.603  0.00  0.00    +0.000 OA
ATOM     27  C   UNL     1       2.383   3.942  17.908  0.00  0.00    +0.000 C 
ATOM     28  N   UNL     1       3.106   2.947  18.524  0.00  0.00    +0.000 N 
ATOM     29  H   UNL     1       4.107   2.951  18.683  0.00  0.00    +0.000 HD
BRANCH  28  30
ATOM     30  O   UNL     1       2.432   1.716  18.712  0.00  0.00    +0.000 OA
ATOM     31  H   UNL     1       2.204   1.748  19.671  0.00  0.00    +0.000 HD
ENDBRANCH  28  30
ENDBRANCH  18  27
ENDBRANCH   1  18
TORSDOF 7
ENDMDL
MODEL 6
REMARK VINA RESULT:      -8.3      3.861      6.332
REMARK  Name = 
REMARK  7 active torsions:
REMARK  status: ('A' for Active; 'I' for Inactive)
REMARK    1  A    between atoms: C_2  and  C_5
REMARK    2  A    between atoms: N_3  and  O_4
REMARK    3  A    between atoms: C_5  and  C_6
REMARK    4  A    between atoms: C_5  and  C_22
REMARK    5  A    between atoms: C_9  and  N_10
REMARK    6  A    between atoms: N_10  and  S_11
REMARK    7  A    between atoms: S_11  and  C_14
REMARK                            x       y       z     vdW  Elec       q    Type
REMARK                         _______ _______ _______ _____ _____    ______ ____
ROOT
ATOM      1  C   UNL     1       1.285   9.507  18.696  0.00  0.00    +0.000 A 
ATOM      2  C   UNL     1       0.994   9.130  20.018  0.00  0.00    +0.000 A 
ATOM      3  C   UNL     1       1.501   7.942  20.554  0.00  0.00    +0.000 A 
ATOM      4  C   UNL     1       2.304   7.119  19.771  0.00  0.00    +0.000 A 
ATOM      5  C   UNL     1       2.552   7.447  18.439  0.00  0.00    +0.000 A 
ATOM      6  C   UNL     1       2.042   8.632  17.901  0.00  0.00    +0.000 A 
ENDROOT
BRANCH   4   7
ATOM      7  N   UNL     1       2.927   5.968  20.319  0.00  0.00    +0.000 N 
ATOM      8  H   UNL     1       2.868   5.849  21.329  0.00  0.00    +0.000 HD
BRANCH   7   9
ATOM      9  S   UNL     1       2.776   4.489  19.527  0.00  0.00    +0.000 S 
ATOM     10  O   UNL     1       2.998   3.474  20.535  0.00  0.00    +0.000 OA
ATOM     11  O   UNL     1       1.565   4.489  18.737  0.00  0.00    +0.000 OA
BRANCH   9  12
ATOM     12  C   UNL     1       4.174   4.483  18.436  0.00  0.00    +0.000 A 
ATOM     13  C   UNL     1       5.448   4.794  18.922  0.00  0.00    +0.000 A 
ATOM     14  C   UNL     1       6.536   4.784  18.044  0.00  0.00    +0.000 A 
ATOM     15  C   UNL     1       6.347   4.455  16.700  0.00  0.00    +0.000 A 
ATOM     16  C   UNL     1       5.078   4.121  16.229  0.00  0.00    +0.000 A 
ATOM     17  C   UNL     1       3.987   4.127  17.098  0.00  0.00    +0.000 A 
ENDBRANCH   9  12
ENDBRANCH   7   9
ENDBRANCH   4   7
BRANCH   1  18
ATOM     18  C   UNL     1       0.844  10.863  18.139  0.00  0.00    +0.000 C 
BRANCH  18  19
ATOM     19  C   UNL     1      -0.616  11.184  18.435  0.00  0.00    +0.000 A 
ATOM     20  C   UNL     1      -1.016  12.156  19.368  0.00  0.00    +0.000 A 
ATOM     21  C   UNL     1      -2.370  12.380  19.632  0.00  0.00    +0.000 A 
ATOM     22  C   UNL     1      -3.347  11.633  18.976  0.00  0.00    +0.000 A 
ATOM     23  C   UNL     1      -2.971  10.666  18.049  0.00  0.00    +0.000 A 
ATOM     24  C   UNL     1      -1.619  10.451  17.788  0.00  0.00    +0.000 A 
ATOM     25  F   UNL     1      -1.282   9.516  16.887  0.00  0.00    +0.000 F 
ENDBRANCH  18  19
BRANCH  18  27
ATOM     26  O   UNL     1       1.989  12.350  19.734  0.00  0.00    +0.000 OA
ATOM     27  C   UNL     1       1.827  11.970  18.571  0.00  0.00    +0.000 C 
ATOM     28  N   UNL     1       2.547  12.549  17.551  0.00  0.00    +0.000 N 
ATOM     29  H   UNL     1       2.595  12.217  16.594  0.00  0.00    +0.000 HD
BRANCH  28  30
ATOM     30  O   UNL     1       3.496  13.526  17.938  0.00  0.00    +0.000 OA
ATOM     31  H   UNL     1       3.238  13.705  18.873  0.00  0.00    +0.000 HD
ENDBRANCH  28  30
ENDBRANCH  18  27
ENDBRANCH   1  18
TORSDOF 7
ENDMDL
MODEL 7
REMARK VINA RESULT:      -8.3      4.223      9.037
REMARK  Name = 
REMARK  7 active torsions:
REMARK  status: ('A' for Active; 'I' for Inactive)
REMARK    1  A    between atoms: C_2  and  C_5
REMARK    2  A    between atoms: N_3  and  O_4
REMARK    3  A    between atoms: C_5  and  C_6
REMARK    4  A    between atoms: C_5  and  C_22
REMARK    5  A    between atoms: C_9  and  N_10
REMARK    6  A    between atoms: N_10  and  S_11
REMARK    7  A    between atoms: S_11  and  C_14
REMARK                            x       y       z     vdW  Elec       q    Type
REMARK                         _______ _______ _______ _____ _____    ______ ____
ROOT
ATOM      1  C   UNL     1       2.638   6.002  18.718  0.00  0.00    +0.000 A 
ATOM      2  C   UNL     1       2.465   7.197  17.998  0.00  0.00    +0.000 A 
ATOM      3  C   UNL     1       1.945   8.338  18.616  0.00  0.00    +0.000 A 
ATOM      4  C   UNL     1       1.592   8.295  19.961  0.00  0.00    +0.000 A 
ATOM      5  C   UNL     1       1.700   7.102  20.673  0.00  0.00    +0.000 A 
ATOM      6  C   UNL     1       2.216   5.959  20.056  0.00  0.00    +0.000 A 
ENDROOT
BRANCH   4   7
ATOM      7  N   UNL     1       1.171   9.465  20.646  0.00  0.00    +0.000 N 
ATOM      8  H   UNL     1       0.876  10.253  20.071  0.00  0.00    +0.000 HD
BRANCH   7   9
ATOM      9  S   UNL     1       0.201   9.318  22.015  0.00  0.00    +0.000 S 
ATOM     10  O   UNL     1      -0.675   8.194  21.763  0.00  0.00    +0.000 OA
ATOM     11  O   UNL     1       1.032   9.353  23.199  0.00  0.00    +0.000 OA
BRANCH   9  12
ATOM     12  C   UNL     1      -0.782  10.793  21.959  0.00  0.00    +0.000 A 
ATOM     13  C   UNL     1      -0.916  11.506  20.764  0.00  0.00    +0.000 A 
ATOM     14  C   UNL     1      -1.694  12.666  20.743  0.00  0.00    +0.000 A 
ATOM     15  C   UNL     1      -2.339  13.097  21.904  0.00  0.00    +0.000 A 
ATOM     16  C   UNL     1      -2.223  12.366  23.086  0.00  0.00    +0.000 A 
ATOM     17  C   UNL     1      -1.449  11.207  23.116  0.00  0.00    +0.000 A 
ENDBRANCH   9  12
ENDBRANCH   7   9
ENDBRANCH   4   7
BRANCH   1  18
ATOM     18  C   UNL     1       3.324   4.786  18.090  0.00  0.00    +0.000 C 
BRANCH  18  19
ATOM     19  C   UNL     1       4.845   4.878  18.118  0.00  0.00    +0.000 A 
ATOM     20  C   UNL     1       5.564   5.400  19.207  0.00  0.00    +0.000 A 
ATOM     21  C   UNL     1       6.958   5.500  19.162  0.00  0.00    +0.000 A 
ATOM     22  C   UNL     1       7.656   5.088  18.028  0.00  0.00    +0.000 A 
ATOM     23  C   UNL     1       6.962   4.568  16.941  0.00  0.00    +0.000 A 
ATOM     24  C   UNL     1       5.573   4.467  16.993  0.00  0.00    +0.000 A 
ATOM     25  F   UNL     1       4.927   3.958  15.934  0.00  0.00    +0.000 F 
ENDBRANCH  18  19
BRANCH  18  27
ATOM     26  O   UNL     1       3.280   2.862  19.626  0.00  0.00    +0.000 OA
ATOM     27  C   UNL     1       2.766   3.480  18.690  0.00  0.00    +0.000 C 
ATOM     28  N   UNL     1       1.614   3.008  18.103  0.00  0.00    +0.000 N 
ATOM     29  H   UNL     1       1.040   3.508  17.433  0.00  0.00    +0.000 HD
BRANCH  28  30
ATOM     30  O   UNL     1       1.058   1.841  18.680  0.00  0.00    +0.000 OA
ATOM     31  H   UNL     1       0.242   1.711  18.141  0.00  0.00    +0.000 HD
ENDBRANCH  28  30
ENDBRANCH  18  27
ENDBRANCH   1  18
TORSDOF 7
ENDMDL
MODEL 8
REMARK VINA RESULT:      -8.3      4.021      8.996
REMARK  Name = 
REMARK  7 active torsions:
REMARK  status: ('A' for Active; 'I' for Inactive)
REMARK    1  A    between atoms: C_2  and  C_5
REMARK    2  A    between atoms: N_3  and  O_4
REMARK    3  A    between atoms: C_5  and  C_6
REMARK    4  A    between atoms: C_5  and  C_22
REMARK    5  A    between atoms: C_9  and  N_10
REMARK    6  A    between atoms: N_10  and  S_11
REMARK    7  A    between atoms: S_11  and  C_14
REMARK                            x       y       z     vdW  Elec       q    Type
REMARK                         _______ _______ _______ _____ _____    ______ ____
ROOT
ATOM      1  C   UNL     1       2.783   6.310  18.352  0.00  0.00    +0.000 A 
ATOM      2  C   UNL     1       2.366   6.082  19.676  0.00  0.00    +0.000 A 
ATOM      3  C   UNL     1       1.787   7.105  20.432  0.00  0.00    +0.000 A 
ATOM      4  C   UNL     1       1.620   8.367  19.872  0.00  0.00    +0.000 A 
ATOM      5  C   UNL     1       2.082   8.627  18.584  0.00  0.00    +0.000 A 
ATOM      6  C   UNL     1       2.665   7.607  17.828  0.00  0.00    +0.000 A 
ENDROOT
BRANCH   4   7
ATOM      7  N   UNL     1       0.931   9.393  20.572  0.00  0.00    +0.000 N 
ATOM      8  H   UNL     1       1.386   9.768  21.403  0.00  0.00    +0.000 HD
BRANCH   7   9
ATOM      9  S   UNL     1       0.160  10.613  19.703  0.00  0.00    +0.000 S 
ATOM     10  O   UNL     1       1.181  11.595  19.404  0.00  0.00    +0.000 OA
ATOM     11  O   UNL     1      -0.627  10.023  18.642  0.00  0.00    +0.000 OA
BRANCH   9  12
ATOM     12  C   UNL     1      -0.934  11.320  20.906  0.00  0.00    +0.000 A 
ATOM     13  C   UNL     1      -1.912  12.240  20.515  0.00  0.00    +0.000 A 
ATOM     14  C   UNL     1      -2.762  12.786  21.480  0.00  0.00    +0.000 A 
ATOM     15  C   UNL     1      -2.640  12.404  22.818  0.00  0.00    +0.000 A 
ATOM     16  C   UNL     1      -1.679  11.466  23.196  0.00  0.00    +0.000 A 
ATOM     17  C   UNL     1      -0.827  10.915  22.240  0.00  0.00    +0.000 A 
ENDBRANCH   9  12
ENDBRANCH   7   9
ENDBRANCH   4   7
BRANCH   1  18
ATOM     18  C   UNL     1       3.299   5.169  17.472  0.00  0.00    +0.000 C 
BRANCH  18  19
ATOM     19  C   UNL     1       4.809   4.984  17.559  0.00  0.00    +0.000 A 
ATOM     20  C   UNL     1       5.558   5.303  18.704  0.00  0.00    +0.000 A 
ATOM     21  C   UNL     1       6.948   5.154  18.714  0.00  0.00    +0.000 A 
ATOM     22  C   UNL     1       7.614   4.691  17.580  0.00  0.00    +0.000 A 
ATOM     23  C   UNL     1       6.889   4.370  16.437  0.00  0.00    +0.000 A 
ATOM     24  C   UNL     1       5.503   4.517  16.435  0.00  0.00    +0.000 A 
ATOM     25  F   UNL     1       4.827   4.196  15.322  0.00  0.00    +0.000 F 
ENDBRANCH  18  19
BRANCH  18  27
ATOM     26  O   UNL     1       1.292   3.742  17.495  0.00  0.00    +0.000 OA
ATOM     27  C   UNL     1       2.495   3.879  17.733  0.00  0.00    +0.000 C 
ATOM     28  N   UNL     1       3.213   2.837  18.275  0.00  0.00    +0.000 N 
ATOM     29  H   UNL     1       4.221   2.798  18.374  0.00  0.00    +0.000 HD
BRANCH  28  30
ATOM     30  O   UNL     1       2.503   1.628  18.466  0.00  0.00    +0.000 OA
ATOM     31  H   UNL     1       1.926   1.845  19.236  0.00  0.00    +0.000 HD
ENDBRANCH  28  30
ENDBRANCH  18  27
ENDBRANCH   1  18
TORSDOF 7
ENDMDL
MODEL 9
REMARK VINA RESULT:      -8.3      3.207      4.792
REMARK  Name = 
REMARK  7 active torsions:
REMARK  status: ('A' for Active; 'I' for Inactive)
REMARK    1  A    between atoms: C_2  and  C_5
REMARK    2  A    between atoms: N_3  and  O_4
REMARK    3  A    between atoms: C_5  and  C_6
REMARK    4  A    between atoms: C_5  and  C_22
REMARK    5  A    between atoms: C_9  and  N_10
REMARK    6  A    between atoms: N_10  and  S_11
REMARK    7  A    between atoms: S_11  and  C_14
REMARK                            x       y       z     vdW  Elec       q    Type
REMARK                         _______ _______ _______ _____ _____    ______ ____
ROOT
ATOM      1  C   UNL     1       1.604   8.352  19.881  0.00  0.00    +0.000 A 
ATOM      2  C   UNL     1       1.429   7.211  20.683  0.00  0.00    +0.000 A 
ATOM      3  C   UNL     1       1.907   5.964  20.269  0.00  0.00    +0.000 A 
ATOM      4  C   UNL     1       2.563   5.846  19.049  0.00  0.00    +0.000 A 
ATOM      5  C   UNL     1       2.690   6.954  18.214  0.00  0.00    +0.000 A 
ATOM      6  C   UNL     1       2.210   8.201  18.624  0.00  0.00    +0.000 A 
ENDROOT
BRANCH   4   7
ATOM      7  N   UNL     1       3.160   4.620  18.654  0.00  0.00    +0.000 N 
ATOM      8  H   UNL     1       2.912   4.263  17.732  0.00  0.00    +0.000 HD
BRANCH   7   9
ATOM      9  S   UNL     1       4.789   4.348  18.988  0.00  0.00    +0.000 S 
ATOM     10  O   UNL     1       5.240   5.503  19.735  0.00  0.00    +0.000 OA
ATOM     11  O   UNL     1       4.953   3.015  19.525  0.00  0.00    +0.000 OA
BRANCH   9  12
ATOM     12  C   UNL     1       5.537   4.416  17.382  0.00  0.00    +0.000 A 
ATOM     13  C   UNL     1       4.760   4.230  16.234  0.00  0.00    +0.000 A 
ATOM     14  C   UNL     1       5.370   4.287  14.979  0.00  0.00    +0.000 A 
ATOM     15  C   UNL     1       6.740   4.539  14.877  0.00  0.00    +0.000 A 
ATOM     16  C   UNL     1       7.504   4.749  16.025  0.00  0.00    +0.000 A 
ATOM     17  C   UNL     1       6.903   4.696  17.282  0.00  0.00    +0.000 A 
ENDBRANCH   9  12
ENDBRANCH   7   9
ENDBRANCH   4   7
BRANCH   1  18
ATOM     18  C   UNL     1       1.201   9.743  20.377  0.00  0.00    +0.000 C 
BRANCH  18  19
ATOM     19  C   UNL     1       0.150  10.410  19.498  0.00  0.00    +0.000 A 
ATOM     20  C   UNL     1      -0.844   9.694  18.811  0.00  0.00    +0.000 A 
ATOM     21  C   UNL     1      -1.758  10.353  17.983  0.00  0.00    +0.000 A 
ATOM     22  C   UNL     1      -1.689  11.736  17.820  0.00  0.00    +0.000 A 
ATOM     23  C   UNL     1      -0.711  12.462  18.492  0.00  0.00    +0.000 A 
ATOM     24  C   UNL     1       0.194  11.799  19.319  0.00  0.00    +0.000 A 
ATOM     25  F   UNL     1       1.124  12.523  19.960  0.00  0.00    +0.000 F 
ENDBRANCH  18  19
BRANCH  18  27
ATOM     26  O   UNL     1       1.641   9.640  22.797  0.00  0.00    +0.000 OA
ATOM     27  C   UNL     1       0.826   9.697  21.872  0.00  0.00    +0.000 C 
ATOM     28  N   UNL     1      -0.523   9.717  22.142  0.00  0.00    +0.000 N 
ATOM     29  H   UNL     1      -1.260   9.905  21.472  0.00  0.00    +0.000 HD
BRANCH  28  30
ATOM     30  O   UNL     1      -0.881   9.733  23.512  0.00  0.00    +0.000 OA
ATOM     31  H   UNL     1      -1.857   9.868  23.469  0.00  0.00    +0.000 HD
ENDBRANCH  28  30
ENDBRANCH  18  27
ENDBRANCH   1  18
TORSDOF 7
ENDMDL
