MODEL 1
REMARK VINA RESULT:      -7.3      0.000      0.000
REMARK  Name = 
REMARK  8 active torsions:
REMARK  status: ('A' for Active; 'I' for Inactive)
REMARK    1  A    between atoms: C_1  and  S_2
REMARK    2  A    between atoms: S_2  and  C_3
REMARK    3  A    between atoms: C_6  and  C_7
REMARK    4  A    between atoms: C_8  and  S_9
REMARK    5  A    between atoms: S_9  and  N_12
REMARK    6  A    between atoms: N_12  and  C_13
REMARK    7  A    between atoms: C_18  and  S_19
REMARK    8  A    between atoms: S_19  and  N_20
REMARK                            x       y       z     vdW  Elec       q    Type
REMARK                         _______ _______ _______ _____ _____    ______ ____
ROOT
ATOM      1  N   UNL     1       5.299   3.237  18.706  0.00  0.00    +0.000 N 
ATOM      2  H   UNL     1       5.769   2.332  18.565  0.00  0.00    +0.000 HD
ENDROOT
BRANCH   1   3
ATOM      3  C   UNL     1       5.422   4.120  17.574  0.00  0.00    +0.000 A 
ATOM      4  C   UNL     1       4.687   3.790  16.429  0.00  0.00    +0.000 A 
ATOM      5  C   UNL     1       4.745   4.594  15.283  0.00  0.00    +0.000 A 
ATOM      6  C   UNL     1       5.520   5.750  15.277  0.00  0.00    +0.000 A 
ATOM      7  C   UNL     1       6.272   6.081  16.400  0.00  0.00    +0.000 A 
ATOM      8  C   UNL     1       6.260   5.244  17.528  0.00  0.00    +0.000 A 
BRANCH   8   9
ATOM      9  S   UNL     1       7.360   5.660  18.840  0.00  0.00    +0.000 S 
ATOM     10  O   UNL     1       7.992   6.925  18.544  0.00  0.00    +0.000 OA
ATOM     11  O   UNL     1       6.700   5.417  20.101  0.00  0.00    +0.000 OA
BRANCH   9  12
ATOM     12  N   UNL     1       8.548   4.495  18.649  0.00  0.00    +0.000 NA
ATOM     13  H   UNL     1       8.327   3.849  17.891  0.00  0.00    +0.000 HD
ATOM     14  H   UNL     1       9.488   4.894  18.624  0.00  0.00    +0.000 HD
ENDBRANCH   9  12
ENDBRANCH   8   9
ENDBRANCH   1   3
BRANCH   1  15
ATOM     15  S   UNL     1       3.712   2.878  19.233  0.00  0.00    +0.000 S 
ATOM     16  O   UNL     1       3.810   2.700  20.669  0.00  0.00    +0.000 OA
ATOM     17  O   UNL     1       3.163   1.832  18.409  0.00  0.00    +0.000 OA
BRANCH  15  19
ATOM     18  C   UNL     1       3.193   5.465  19.633  0.00  0.00    +0.000 C 
ATOM     19  C   UNL     1       2.849   4.352  18.965  0.00  0.00    +0.000 C 
BRANCH  18  23
ATOM     20  C   UNL     1       1.401   9.318  19.023  0.00  0.00    +0.000 A 
ATOM     21  C   UNL     1       1.242   8.634  20.231  0.00  0.00    +0.000 A 
ATOM     22  C   UNL     1       1.827   7.376  20.419  0.00  0.00    +0.000 A 
ATOM     23  C   UNL     1       2.560   6.770  19.393  0.00  0.00    +0.000 A 
ATOM     24  C   UNL     1       2.716   7.462  18.184  0.00  0.00    +0.000 A 
ATOM     25  C   UNL     1       2.133   8.719  17.998  0.00  0.00    +0.000 A 
BRANCH  20  27
ATOM     26  C   UNL     1      -1.030  10.400  18.313  0.00  0.00    +0.000 C 
ATOM     27  S   UNL     1       0.635  10.914  18.814  0.00  0.00    +0.000 S 
ENDBRANCH  20  27
ENDBRANCH  18  23
ENDBRANCH  15  19
ENDBRANCH   1  15
TORSDOF 7
ENDMDL
MODEL 2
REMARK VINA RESULT:      -7.3      0.440      1.076
REMARK  Name = 
REMARK  8 active torsions:
REMARK  status: ('A' for Active; 'I' for Inactive)
REMARK    1  A    between atoms: C_1  and  S_2
REMARK    2  A    between atoms: S_2  and  C_3
REMARK    3  A    between atoms: C_6  and  C_7
REMARK    4  A    between atoms: C_8  and  S_9
REMARK    5  A    between atoms: S_9  and  N_12
REMARK    6  A    between atoms: N_12  and  C_13
REMARK    7  A    between atoms: C_18  and  S_19
REMARK    8  A    between atoms: S_19  and  N_20
REMARK                            x       y       z     vdW  Elec       q    Type
REMARK                         _______ _______ _______ _____ _____    ______ ____
ROOT
ATOM      1  N   UNL     1       5.294   3.262  18.691  0.00  0.00    +0.000 N 
ATOM      2  H   UNL     1       5.788   2.367  18.573  0.00  0.00    +0.000 HD
ENDROOT
BRANCH   1   3
ATOM      3  C   UNL     1       5.432   4.139  17.556  0.00  0.00    +0.000 A 
ATOM      4  C   UNL     1       4.699   3.811  16.410  0.00  0.00    +0.000 A 
ATOM      5  C   UNL     1       4.770   4.609  15.260  0.00  0.00    +0.000 A 
ATOM      6  C   UNL     1       5.557   5.757  15.252  0.00  0.00    +0.000 A 
ATOM      7  C   UNL     1       6.307   6.086  16.378  0.00  0.00    +0.000 A 
ATOM      8  C   UNL     1       6.281   5.254  17.509  0.00  0.00    +0.000 A 
BRANCH   8   9
ATOM      9  S   UNL     1       7.379   5.665  18.824  0.00  0.00    +0.000 S 
ATOM     10  O   UNL     1       8.025   6.923  18.525  0.00  0.00    +0.000 OA
ATOM     11  O   UNL     1       6.711   5.436  20.083  0.00  0.00    +0.000 OA
BRANCH   9  12
ATOM     12  N   UNL     1       8.555   4.487  18.644  0.00  0.00    +0.000 NA
ATOM     13  H   UNL     1       8.224   3.701  18.086  0.00  0.00    +0.000 HD
ATOM     14  H   UNL     1       9.458   4.874  18.361  0.00  0.00    +0.000 HD
ENDBRANCH   9  12
ENDBRANCH   8   9
ENDBRANCH   1   3
BRANCH   1  15
ATOM     15  S   UNL     1       3.701   2.873  19.175  0.00  0.00    +0.000 S 
ATOM     16  O   UNL     1       3.780   2.609  20.599  0.00  0.00    +0.000 OA
ATOM     17  O   UNL     1       3.164   1.877  18.282  0.00  0.00    +0.000 OA
BRANCH  15  19
ATOM     18  C   UNL     1       3.216   5.449  19.673  0.00  0.00    +0.000 C 
ATOM     19  C   UNL     1       2.840   4.360  18.983  0.00  0.00    +0.000 C 
BRANCH  18  23
ATOM     20  C   UNL     1       1.316   9.250  19.067  0.00  0.00    +0.000 A 
ATOM     21  C   UNL     1       2.073   8.655  18.055  0.00  0.00    +0.000 A 
ATOM     22  C   UNL     1       2.692   7.417  18.263  0.00  0.00    +0.000 A 
ATOM     23  C   UNL     1       2.585   6.765  19.496  0.00  0.00    +0.000 A 
ATOM     24  C   UNL     1       1.824   7.366  20.507  0.00  0.00    +0.000 A 
ATOM     25  C   UNL     1       1.204   8.602  20.298  0.00  0.00    +0.000 A 
BRANCH  20  27
ATOM     26  C   UNL     1      -0.455  10.979  20.275  0.00  0.00    +0.000 C 
ATOM     27  S   UNL     1       0.548  10.831  18.772  0.00  0.00    +0.000 S 
ENDBRANCH  20  27
ENDBRANCH  18  23
ENDBRANCH  15  19
ENDBRANCH   1  15
TORSDOF 7
ENDMDL
MODEL 3
REMARK VINA RESULT:      -7.3      4.562      6.539
REMARK  Name = 
REMARK  8 active torsions:
REMARK  status: ('A' for Active; 'I' for Inactive)
REMARK    1  A    between atoms: C_1  and  S_2
REMARK    2  A    between atoms: S_2  and  C_3
REMARK    3  A    between atoms: C_6  and  C_7
REMARK    4  A    between atoms: C_8  and  S_9
REMARK    5  A    between atoms: S_9  and  N_12
REMARK    6  A    between atoms: N_12  and  C_13
REMARK    7  A    between atoms: C_18  and  S_19
REMARK    8  A    between atoms: S_19  and  N_20
REMARK                            x       y       z     vdW  Elec       q    Type
REMARK                         _______ _______ _______ _____ _____    ______ ____
ROOT
ATOM      1  N   UNL     1       5.270   6.465  16.505  0.00  0.00    +0.000 N 
ATOM      2  H   UNL     1       5.270   5.751  15.765  0.00  0.00    +0.000 HD
ENDROOT
BRANCH   1   3
ATOM      3  C   UNL     1       4.147   6.353  17.401  0.00  0.00    +0.000 A 
ATOM      4  C   UNL     1       3.620   7.546  17.909  0.00  0.00    +0.000 A 
ATOM      5  C   UNL     1       2.525   7.530  18.784  0.00  0.00    +0.000 A 
ATOM      6  C   UNL     1       1.932   6.323  19.142  0.00  0.00    +0.000 A 
ATOM      7  C   UNL     1       2.457   5.127  18.661  0.00  0.00    +0.000 A 
ATOM      8  C   UNL     1       3.589   5.139  17.830  0.00  0.00    +0.000 A 
BRANCH   8   9
ATOM      9  S   UNL     1       4.275   3.575  17.398  0.00  0.00    +0.000 S 
ATOM     10  O   UNL     1       3.260   2.558  17.540  0.00  0.00    +0.000 OA
ATOM     11  O   UNL     1       5.041   3.719  16.182  0.00  0.00    +0.000 OA
BRANCH   9  12
ATOM     12  N   UNL     1       5.351   3.333  18.658  0.00  0.00    +0.000 NA
ATOM     13  H   UNL     1       6.244   2.967  18.329  0.00  0.00    +0.000 HD
ATOM     14  H   UNL     1       5.412   4.139  19.283  0.00  0.00    +0.000 HD
ENDBRANCH   9  12
ENDBRANCH   8   9
ENDBRANCH   1   3
BRANCH   1  15
ATOM     15  S   UNL     1       6.827   6.424  17.213  0.00  0.00    +0.000 S 
ATOM     16  O   UNL     1       7.712   5.927  16.178  0.00  0.00    +0.000 OA
ATOM     17  O   UNL     1       6.751   5.752  18.486  0.00  0.00    +0.000 OA
BRANCH  15  19
ATOM     18  C   UNL     1       8.240   8.438  18.242  0.00  0.00    +0.000 C 
ATOM     19  C   UNL     1       7.213   8.092  17.451  0.00  0.00    +0.000 C 
BRANCH  18  23
ATOM     20  C   UNL     1       9.407  12.536  18.771  0.00  0.00    +0.000 A 
ATOM     21  C   UNL     1       8.614  12.148  17.687  0.00  0.00    +0.000 A 
ATOM     22  C   UNL     1       8.242  10.808  17.522  0.00  0.00    +0.000 A 
ATOM     23  C   UNL     1       8.678   9.831  18.423  0.00  0.00    +0.000 A 
ATOM     24  C   UNL     1       9.471  10.227  19.507  0.00  0.00    +0.000 A 
ATOM     25  C   UNL     1       9.842  11.565  19.673  0.00  0.00    +0.000 A 
BRANCH  20  27
ATOM     26  C   UNL     1      11.034  14.117  20.331  0.00  0.00    +0.000 C 
ATOM     27  S   UNL     1       9.870  14.248  18.947  0.00  0.00    +0.000 S 
ENDBRANCH  20  27
ENDBRANCH  18  23
ENDBRANCH  15  19
ENDBRANCH   1  15
TORSDOF 7
ENDMDL
MODEL 4
REMARK VINA RESULT:      -7.2      2.222      2.905
REMARK  Name = 
REMARK  8 active torsions:
REMARK  status: ('A' for Active; 'I' for Inactive)
REMARK    1  A    between atoms: C_1  and  S_2
REMARK    2  A    between atoms: S_2  and  C_3
REMARK    3  A    between atoms: C_6  and  C_7
REMARK    4  A    between atoms: C_8  and  S_9
REMARK    5  A    between atoms: S_9  and  N_12
REMARK    6  A    between atoms: N_12  and  C_13
REMARK    7  A    between atoms: C_18  and  S_19
REMARK    8  A    between atoms: S_19  and  N_20
REMARK                            x       y       z     vdW  Elec       q    Type
REMARK                         _______ _______ _______ _____ _____    ______ ____
ROOT
ATOM      1  N   UNL     1       5.851   3.532  17.930  0.00  0.00    +0.000 N 
ATOM      2  H   UNL     1       5.566   3.281  16.974  0.00  0.00    +0.000 HD
ENDROOT
BRANCH   1   3
ATOM      3  C   UNL     1       6.565   4.782  17.998  0.00  0.00    +0.000 A 
ATOM      4  C   UNL     1       7.161   5.105  19.222  0.00  0.00    +0.000 A 
ATOM      5  C   UNL     1       7.878   6.299  19.377  0.00  0.00    +0.000 A 
ATOM      6  C   UNL     1       8.027   7.172  18.303  0.00  0.00    +0.000 A 
ATOM      7  C   UNL     1       7.423   6.874  17.085  0.00  0.00    +0.000 A 
ATOM      8  C   UNL     1       6.656   5.705  16.946  0.00  0.00    +0.000 A 
BRANCH   8   9
ATOM      9  S   UNL     1       5.805   5.489  15.419  0.00  0.00    +0.000 S 
ATOM     10  O   UNL     1       6.770   5.392  14.348  0.00  0.00    +0.000 OA
ATOM     11  O   UNL     1       4.766   4.502  15.596  0.00  0.00    +0.000 OA
BRANCH   9  12
ATOM     12  N   UNL     1       5.069   6.983  15.243  0.00  0.00    +0.000 NA
ATOM     13  H   UNL     1       4.061   6.929  15.385  0.00  0.00    +0.000 HD
ATOM     14  H   UNL     1       5.546   7.720  15.768  0.00  0.00    +0.000 HD
ENDBRANCH   9  12
ENDBRANCH   8   9
ENDBRANCH   1   3
BRANCH   1  15
ATOM     15  S   UNL     1       4.452   3.391  18.903  0.00  0.00    +0.000 S 
ATOM     16  O   UNL     1       4.909   2.841  20.165  0.00  0.00    +0.000 OA
ATOM     17  O   UNL     1       3.418   2.722  18.153  0.00  0.00    +0.000 OA
BRANCH  15  19
ATOM     18  C   UNL     1       3.002   5.592  18.492  0.00  0.00    +0.000 C 
ATOM     19  C   UNL     1       3.994   5.031  19.201  0.00  0.00    +0.000 C 
BRANCH  18  23
ATOM     20  C   UNL     1       1.476   9.550  19.155  0.00  0.00    +0.000 A 
ATOM     21  C   UNL     1       2.043   9.194  17.929  0.00  0.00    +0.000 A 
ATOM     22  C   UNL     1       2.542   7.901  17.723  0.00  0.00    +0.000 A 
ATOM     23  C   UNL     1       2.504   6.952  18.750  0.00  0.00    +0.000 A 
ATOM     24  C   UNL     1       1.934   7.315  19.977  0.00  0.00    +0.000 A 
ATOM     25  C   UNL     1       1.434   8.605  20.181  0.00  0.00    +0.000 A 
BRANCH  20  27
ATOM     26  C   UNL     1       2.077  12.133  18.415  0.00  0.00    +0.000 C 
ATOM     27  S   UNL     1       0.859  11.206  19.386  0.00  0.00    +0.000 S 
ENDBRANCH  20  27
ENDBRANCH  18  23
ENDBRANCH  15  19
ENDBRANCH   1  15
TORSDOF 7
ENDMDL
MODEL 5
REMARK VINA RESULT:      -7.2      4.664      6.547
REMARK  Name = 
REMARK  8 active torsions:
REMARK  status: ('A' for Active; 'I' for Inactive)
REMARK    1  A    between atoms: C_1  and  S_2
REMARK    2  A    between atoms: S_2  and  C_3
REMARK    3  A    between atoms: C_6  and  C_7
REMARK    4  A    between atoms: C_8  and  S_9
REMARK    5  A    between atoms: S_9  and  N_12
REMARK    6  A    between atoms: N_12  and  C_13
REMARK    7  A    between atoms: C_18  and  S_19
REMARK    8  A    between atoms: S_19  and  N_20
REMARK                            x       y       z     vdW  Elec       q    Type
REMARK                         _______ _______ _______ _____ _____    ______ ____
ROOT
ATOM      1  N   UNL     1       5.342   6.665  16.527  0.00  0.00    +0.000 N 
ATOM      2  H   UNL     1       5.383   5.989  15.753  0.00  0.00    +0.000 HD
ENDROOT
BRANCH   1   3
ATOM      3  C   UNL     1       4.191   6.485  17.375  0.00  0.00    +0.000 A 
ATOM      4  C   UNL     1       3.630   7.638  17.934  0.00  0.00    +0.000 A 
ATOM      5  C   UNL     1       2.507   7.557  18.769  0.00  0.00    +0.000 A 
ATOM      6  C   UNL     1       1.920   6.323  19.035  0.00  0.00    +0.000 A 
ATOM      7  C   UNL     1       2.479   5.165  18.503  0.00  0.00    +0.000 A 
ATOM      8  C   UNL     1       3.638   5.241  17.713  0.00  0.00    +0.000 A 
BRANCH   8   9
ATOM      9  S   UNL     1       4.361   3.714  17.213  0.00  0.00    +0.000 S 
ATOM     10  O   UNL     1       3.359   2.675  17.272  0.00  0.00    +0.000 OA
ATOM     11  O   UNL     1       5.155   3.937  16.029  0.00  0.00    +0.000 OA
BRANCH   9  12
ATOM     12  N   UNL     1       5.408   3.419  18.486  0.00  0.00    +0.000 NA
ATOM     13  H   UNL     1       6.192   4.069  18.492  0.00  0.00    +0.000 HD
ATOM     14  H   UNL     1       4.921   3.313  19.379  0.00  0.00    +0.000 HD
ENDBRANCH   9  12
ENDBRANCH   8   9
ENDBRANCH   1   3
BRANCH   1  15
ATOM     15  S   UNL     1       6.874   6.618  17.287  0.00  0.00    +0.000 S 
ATOM     16  O   UNL     1       7.809   6.217  16.254  0.00  0.00    +0.000 OA
ATOM     17  O   UNL     1       6.774   5.860  18.508  0.00  0.00    +0.000 OA
BRANCH  15  19
ATOM     18  C   UNL     1       8.368   8.624  18.215  0.00  0.00    +0.000 C 
ATOM     19  C   UNL     1       7.201   8.277  17.650  0.00  0.00    +0.000 C 
BRANCH  18  23
ATOM     20  C   UNL     1       9.588  12.670  18.970  0.00  0.00    +0.000 A 
ATOM     21  C   UNL     1       9.918  11.642  19.856  0.00  0.00    +0.000 A 
ATOM     22  C   UNL     1       9.512  10.326  19.603  0.00  0.00    +0.000 A 
ATOM     23  C   UNL     1       8.748  10.021  18.472  0.00  0.00    +0.000 A 
ATOM     24  C   UNL     1       8.421  11.056  17.586  0.00  0.00    +0.000 A 
ATOM     25  C   UNL     1       8.828  12.370  17.839  0.00  0.00    +0.000 A 
BRANCH  20  27
ATOM     26  C   UNL     1      10.399  14.942  17.641  0.00  0.00    +0.000 C 
ATOM     27  S   UNL     1      10.113  14.336  19.326  0.00  0.00    +0.000 S 
ENDBRANCH  20  27
ENDBRANCH  18  23
ENDBRANCH  15  19
ENDBRANCH   1  15
TORSDOF 7
ENDMDL
MODEL 6
REMARK VINA RESULT:      -7.1      2.228      2.909
REMARK  Name = 
REMARK  8 active torsions:
REMARK  status: ('A' for Active; 'I' for Inactive)
REMARK    1  A    between atoms: C_1  and  S_2
REMARK    2  A    between atoms: S_2  and  C_3
REMARK    3  A    between atoms: C_6  and  C_7
REMARK    4  A    between atoms: C_8  and  S_9
REMARK    5  A    between atoms: S_9  and  N_12
REMARK    6  A    between atoms: N_12  and  C_13
REMARK    7  A    between atoms: C_18  and  S_19
REMARK    8  A    between atoms: S_19  and  N_20
REMARK                            x       y       z     vdW  Elec       q    Type
REMARK                         _______ _______ _______ _____ _____    ______ ____
ROOT
ATOM      1  N   UNL     1       4.791   3.422  17.225  0.00  0.00    +0.000 N 
ATOM      2  H   UNL     1       4.625   3.428  16.210  0.00  0.00    +0.000 HD
ENDROOT
BRANCH   1   3
ATOM      3  C   UNL     1       5.765   4.398  17.644  0.00  0.00    +0.000 A 
ATOM      4  C   UNL     1       5.877   4.630  19.020  0.00  0.00    +0.000 A 
ATOM      5  C   UNL     1       6.800   5.560  19.517  0.00  0.00    +0.000 A 
ATOM      6  C   UNL     1       7.638   6.250  18.646  0.00  0.00    +0.000 A 
ATOM      7  C   UNL     1       7.525   6.044  17.274  0.00  0.00    +0.000 A 
ATOM      8  C   UNL     1       6.560   5.155  16.772  0.00  0.00    +0.000 A 
BRANCH   8   9
ATOM      9  S   UNL     1       6.386   5.076  15.021  0.00  0.00    +0.000 S 
ATOM     10  O   UNL     1       5.079   5.570  14.653  0.00  0.00    +0.000 OA
ATOM     11  O   UNL     1       7.590   5.583  14.406  0.00  0.00    +0.000 OA
BRANCH   9  12
ATOM     12  N   UNL     1       6.340   3.421  14.774  0.00  0.00    +0.000 NA
ATOM     13  H   UNL     1       6.075   2.918  15.620  0.00  0.00    +0.000 HD
ATOM     14  H   UNL     1       5.822   3.164  13.931  0.00  0.00    +0.000 HD
ENDBRANCH   9  12
ENDBRANCH   8   9
ENDBRANCH   1   3
BRANCH   1  15
ATOM     15  S   UNL     1       3.252   3.503  17.966  0.00  0.00    +0.000 S 
ATOM     16  O   UNL     1       3.472   3.162  19.358  0.00  0.00    +0.000 OA
ATOM     17  O   UNL     1       2.306   2.754  17.177  0.00  0.00    +0.000 OA
BRANCH  15  19
ATOM     18  C   UNL     1       2.379   5.799  19.005  0.00  0.00    +0.000 C 
ATOM     19  C   UNL     1       2.860   5.186  17.913  0.00  0.00    +0.000 C 
BRANCH  18  23
ATOM     20  C   UNL     1       1.508  10.003  19.066  0.00  0.00    +0.000 A 
ATOM     21  C   UNL     1       2.046   9.396  17.928  0.00  0.00    +0.000 A 
ATOM     22  C   UNL     1       2.330   8.025  17.919  0.00  0.00    +0.000 A 
ATOM     23  C   UNL     1       2.104   7.243  19.057  0.00  0.00    +0.000 A 
ATOM     24  C   UNL     1       1.564   7.857  20.194  0.00  0.00    +0.000 A 
ATOM     25  C   UNL     1       1.279   9.226  20.202  0.00  0.00    +0.000 A 
BRANCH  20  27
ATOM     26  C   UNL     1       2.548  12.330  18.026  0.00  0.00    +0.000 C 
ATOM     27  S   UNL     1       1.165  11.752  19.046  0.00  0.00    +0.000 S 
ENDBRANCH  20  27
ENDBRANCH  18  23
ENDBRANCH  15  19
ENDBRANCH   1  15
TORSDOF 7
ENDMDL
MODEL 7
REMARK VINA RESULT:      -7.0      2.165      2.699
REMARK  Name = 
REMARK  8 active torsions:
REMARK  status: ('A' for Active; 'I' for Inactive)
REMARK    1  A    between atoms: C_1  and  S_2
REMARK    2  A    between atoms: S_2  and  C_3
REMARK    3  A    between atoms: C_6  and  C_7
REMARK    4  A    between atoms: C_8  and  S_9
REMARK    5  A    between atoms: S_9  and  N_12
REMARK    6  A    between atoms: N_12  and  C_13
REMARK    7  A    between atoms: C_18  and  S_19
REMARK    8  A    between atoms: S_19  and  N_20
REMARK                            x       y       z     vdW  Elec       q    Type
REMARK                         _______ _______ _______ _____ _____    ______ ____
ROOT
ATOM      1  N   UNL     1       5.879   3.484  17.931  0.00  0.00    +0.000 N 
ATOM      2  H   UNL     1       5.804   3.131  16.968  0.00  0.00    +0.000 HD
ENDROOT
BRANCH   1   3
ATOM      3  C   UNL     1       6.581   4.740  18.020  0.00  0.00    +0.000 A 
ATOM      4  C   UNL     1       7.073   5.102  19.280  0.00  0.00    +0.000 A 
ATOM      5  C   UNL     1       7.770   6.305  19.458  0.00  0.00    +0.000 A 
ATOM      6  C   UNL     1       8.003   7.147  18.374  0.00  0.00    +0.000 A 
ATOM      7  C   UNL     1       7.503   6.810  17.120  0.00  0.00    +0.000 A 
ATOM      8  C   UNL     1       6.755   5.633  16.953  0.00  0.00    +0.000 A 
BRANCH   8   9
ATOM      9  S   UNL     1       6.032   5.368  15.368  0.00  0.00    +0.000 S 
ATOM     10  O   UNL     1       5.491   4.030  15.312  0.00  0.00    +0.000 OA
ATOM     11  O   UNL     1       5.239   6.522  15.015  0.00  0.00    +0.000 OA
BRANCH   9  12
ATOM     12  N   UNL     1       7.390   5.359  14.389  0.00  0.00    +0.000 NA
ATOM     13  H   UNL     1       7.373   4.588  13.723  0.00  0.00    +0.000 HD
ATOM     14  H   UNL     1       7.593   6.278  13.990  0.00  0.00    +0.000 HD
ENDBRANCH   9  12
ENDBRANCH   8   9
ENDBRANCH   1   3
BRANCH   1  15
ATOM     15  S   UNL     1       4.300   3.437  18.585  0.00  0.00    +0.000 S 
ATOM     16  O   UNL     1       4.474   3.227  20.009  0.00  0.00    +0.000 OA
ATOM     17  O   UNL     1       3.493   2.526  17.812  0.00  0.00    +0.000 OA
BRANCH  15  19
ATOM     18  C   UNL     1       2.759   5.532  19.182  0.00  0.00    +0.000 C 
ATOM     19  C   UNL     1       3.722   5.054  18.378  0.00  0.00    +0.000 C 
BRANCH  18  23
ATOM     20  C   UNL     1       1.435   9.614  19.084  0.00  0.00    +0.000 A 
ATOM     21  C   UNL     1       1.329   8.852  20.250  0.00  0.00    +0.000 A 
ATOM     22  C   UNL     1       1.760   7.520  20.271  0.00  0.00    +0.000 A 
ATOM     23  C   UNL     1       2.281   6.921  19.119  0.00  0.00    +0.000 A 
ATOM     24  C   UNL     1       2.384   7.691  17.953  0.00  0.00    +0.000 A 
ATOM     25  C   UNL     1       1.955   9.022  17.933  0.00  0.00    +0.000 A 
BRANCH  20  27
ATOM     26  C   UNL     1       0.777  11.598  20.876  0.00  0.00    +0.000 C 
ATOM     27  S   UNL     1       0.868  11.304  19.089  0.00  0.00    +0.000 S 
ENDBRANCH  20  27
ENDBRANCH  18  23
ENDBRANCH  15  19
ENDBRANCH   1  15
TORSDOF 7
ENDMDL
MODEL 8
REMARK VINA RESULT:      -7.0      2.207      2.645
REMARK  Name = 
REMARK  8 active torsions:
REMARK  status: ('A' for Active; 'I' for Inactive)
REMARK    1  A    between atoms: C_1  and  S_2
REMARK    2  A    between atoms: S_2  and  C_3
REMARK    3  A    between atoms: C_6  and  C_7
REMARK    4  A    between atoms: C_8  and  S_9
REMARK    5  A    between atoms: S_9  and  N_12
REMARK    6  A    between atoms: N_12  and  C_13
REMARK    7  A    between atoms: C_18  and  S_19
REMARK    8  A    between atoms: S_19  and  N_20
REMARK                            x       y       z     vdW  Elec       q    Type
REMARK                         _______ _______ _______ _____ _____    ______ ____
ROOT
ATOM      1  N   UNL     1       5.186   3.459  17.454  0.00  0.00    +0.000 N 
ATOM      2  H   UNL     1       4.972   3.379  16.451  0.00  0.00    +0.000 HD
ENDROOT
BRANCH   1   3
ATOM      3  C   UNL     1       6.089   4.542  17.755  0.00  0.00    +0.000 A 
ATOM      4  C   UNL     1       6.422   4.733  19.100  0.00  0.00    +0.000 A 
ATOM      5  C   UNL     1       7.296   5.759  19.483  0.00  0.00    +0.000 A 
ATOM      6  C   UNL     1       7.864   6.591  18.523  0.00  0.00    +0.000 A 
ATOM      7  C   UNL     1       7.526   6.426  17.182  0.00  0.00    +0.000 A 
ATOM      8  C   UNL     1       6.606   5.435  16.805  0.00  0.00    +0.000 A 
BRANCH   8   9
ATOM      9  S   UNL     1       6.122   5.402  15.111  0.00  0.00    +0.000 S 
ATOM     10  O   UNL     1       7.291   5.586  14.281  0.00  0.00    +0.000 OA
ATOM     11  O   UNL     1       5.210   4.302  14.904  0.00  0.00    +0.000 OA
BRANCH   9  12
ATOM     12  N   UNL     1       5.246   6.824  14.996  0.00  0.00    +0.000 NA
ATOM     13  H   UNL     1       5.443   7.322  14.129  0.00  0.00    +0.000 HD
ATOM     14  H   UNL     1       4.256   6.694  15.211  0.00  0.00    +0.000 HD
ENDBRANCH   9  12
ENDBRANCH   8   9
ENDBRANCH   1   3
BRANCH   1  15
ATOM     15  S   UNL     1       3.682   3.462  18.269  0.00  0.00    +0.000 S 
ATOM     16  O   UNL     1       4.001   3.295  19.674  0.00  0.00    +0.000 OA
ATOM     17  O   UNL     1       2.787   2.542  17.614  0.00  0.00    +0.000 OA
BRANCH  15  19
ATOM     18  C   UNL     1       2.583   5.742  19.111  0.00  0.00    +0.000 C 
ATOM     19  C   UNL     1       3.111   5.082  18.069  0.00  0.00    +0.000 C 
BRANCH  18  23
ATOM     20  C   UNL     1       1.409   9.869  18.974  0.00  0.00    +0.000 A 
ATOM     21  C   UNL     1       1.272   9.121  20.146  0.00  0.00    +0.000 A 
ATOM     22  C   UNL     1       1.654   7.775  20.180  0.00  0.00    +0.000 A 
ATOM     23  C   UNL     1       2.156   7.147  19.035  0.00  0.00    +0.000 A 
ATOM     24  C   UNL     1       2.291   7.903  17.863  0.00  0.00    +0.000 A 
ATOM     25  C   UNL     1       1.911   9.248  17.829  0.00  0.00    +0.000 A 
BRANCH  20  27
ATOM     26  C   UNL     1      -0.521  11.493  20.080  0.00  0.00    +0.000 C 
ATOM     27  S   UNL     1       0.905  11.579  18.962  0.00  0.00    +0.000 S 
ENDBRANCH  20  27
ENDBRANCH  18  23
ENDBRANCH  15  19
ENDBRANCH   1  15
TORSDOF 7
ENDMDL
MODEL 9
REMARK VINA RESULT:      -7.0      4.113      6.323
REMARK  Name = 
REMARK  8 active torsions:
REMARK  status: ('A' for Active; 'I' for Inactive)
REMARK    1  A    between atoms: C_1  and  S_2
REMARK    2  A    between atoms: S_2  and  C_3
REMARK    3  A    between atoms: C_6  and  C_7
REMARK    4  A    between atoms: C_8  and  S_9
REMARK    5  A    between atoms: S_9  and  N_12
REMARK    6  A    between atoms: N_12  and  C_13
REMARK    7  A    between atoms: C_18  and  S_19
REMARK    8  A    between atoms: S_19  and  N_20
REMARK                            x       y       z     vdW  Elec       q    Type
REMARK                         _______ _______ _______ _____ _____    ______ ____
ROOT
ATOM      1  N   UNL     1       5.978   5.120  18.768  0.00  0.00    +0.000 N 
ATOM      2  H   UNL     1       6.351   5.525  19.636  0.00  0.00    +0.000 HD
ENDROOT
BRANCH   1   3
ATOM      3  C   UNL     1       4.596   5.456  18.535  0.00  0.00    +0.000 A 
ATOM      4  C   UNL     1       4.298   6.809  18.334  0.00  0.00    +0.000 A 
ATOM      5  C   UNL     1       2.981   7.226  18.098  0.00  0.00    +0.000 A 
ATOM      6  C   UNL     1       1.951   6.292  18.037  0.00  0.00    +0.000 A 
ATOM      7  C   UNL     1       2.228   4.945  18.254  0.00  0.00    +0.000 A 
ATOM      8  C   UNL     1       3.539   4.534  18.548  0.00  0.00    +0.000 A 
BRANCH   8   9
ATOM      9  S   UNL     1       3.766   2.837  18.960  0.00  0.00    +0.000 S 
ATOM     10  O   UNL     1       4.845   2.722  19.915  0.00  0.00    +0.000 OA
ATOM     11  O   UNL     1       2.476   2.234  19.197  0.00  0.00    +0.000 OA
BRANCH   9  12
ATOM     12  N   UNL     1       4.360   2.229  17.518  0.00  0.00    +0.000 NA
ATOM     13  H   UNL     1       5.361   2.040  17.569  0.00  0.00    +0.000 HD
ATOM     14  H   UNL     1       3.789   1.467  17.148  0.00  0.00    +0.000 HD
ENDBRANCH   9  12
ENDBRANCH   8   9
ENDBRANCH   1   3
BRANCH   1  15
ATOM     15  S   UNL     1       7.087   5.524  17.531  0.00  0.00    +0.000 S 
ATOM     16  O   UNL     1       6.278   5.966  16.411  0.00  0.00    +0.000 OA
ATOM     17  O   UNL     1       8.026   4.443  17.364  0.00  0.00    +0.000 OA
BRANCH  15  19
ATOM     18  C   UNL     1       7.706   8.119  17.580  0.00  0.00    +0.000 C 
ATOM     19  C   UNL     1       7.900   6.919  18.150  0.00  0.00    +0.000 C 
BRANCH  18  23
ATOM     20  C   UNL     1       9.533  11.688  19.113  0.00  0.00    +0.000 A 
ATOM     21  C   UNL     1       9.635  10.476  19.800  0.00  0.00    +0.000 A 
ATOM     22  C   UNL     1       9.032   9.318  19.294  0.00  0.00    +0.000 A 
ATOM     23  C   UNL     1       8.297   9.359  18.105  0.00  0.00    +0.000 A 
ATOM     24  C   UNL     1       8.199  10.577  17.421  0.00  0.00    +0.000 A 
ATOM     25  C   UNL     1       8.803  11.733  17.926  0.00  0.00    +0.000 A 
BRANCH  20  27
ATOM     26  C   UNL     1      12.051  12.694  19.595  0.00  0.00    +0.000 C 
ATOM     27  S   UNL     1      10.306  13.145  19.790  0.00  0.00    +0.000 S 
ENDBRANCH  20  27
ENDBRANCH  18  23
ENDBRANCH  15  19
ENDBRANCH   1  15
TORSDOF 7
ENDMDL
