MODEL 1
REMARK VINA RESULT:      -8.7      0.000      0.000
REMARK  Name = 
REMARK  7 active torsions:
REMARK  status: ('A' for Active; 'I' for Inactive)
REMARK    1  A    between atoms: O_1  and  C_2
REMARK    2  A    between atoms: C_5  and  C_6
REMARK    3  A    between atoms: C_7  and  C_8
REMARK    4  A    between atoms: C_11  and  O_12
REMARK    5  A    between atoms: O_12  and  C_13
REMARK    6  A    between atoms: C_13  and  C_14
REMARK    7  A    between atoms: C_14  and  N_15
REMARK                            x       y       z     vdW  Elec       q    Type
REMARK                         _______ _______ _______ _____ _____    ______ ____
ROOT
ATOM      1  C   UNL     1       4.582   3.914  16.784  0.00  0.00    +0.000 C 
ATOM      2  C   UNL     1       4.747   4.600  17.947  0.00  0.00    +0.000 C 
ATOM      3  C   UNL     1       3.832   4.300  19.093  0.00  0.00    +0.000 A 
ATOM      4  C   UNL     1       3.242   5.344  19.826  0.00  0.00    +0.000 A 
ATOM      5  C   UNL     1       2.405   5.071  20.912  0.00  0.00    +0.000 A 
ATOM      6  C   UNL     1       2.162   3.755  21.280  0.00  0.00    +0.000 A 
ATOM      7  F   UNL     1       1.367   3.500  22.325  0.00  0.00    +0.000 F 
ATOM      8  C   UNL     1       2.738   2.702  20.584  0.00  0.00    +0.000 A 
ATOM      9  C   UNL     1       3.553   2.979  19.488  0.00  0.00    +0.000 A 
ATOM     10  O   UNL     1       4.150   1.918  18.862  0.00  0.00    +0.000 OA
ATOM     11  C   UNL     1       3.583   1.670  17.572  0.00  0.00    +0.000 C 
ATOM     12  C   UNL     1       3.502   2.864  16.610  0.00  0.00    +0.000 C 
ENDROOT
BRANCH   1  16
ATOM     13  C   UNL     1       6.807   4.389  13.163  0.00  0.00    +0.000 A 
ATOM     14  C   UNL     1       7.436   4.633  14.381  0.00  0.00    +0.000 A 
ATOM     15  C   UNL     1       6.705   4.521  15.571  0.00  0.00    +0.000 A 
ATOM     16  C   UNL     1       5.352   4.164  15.541  0.00  0.00    +0.000 A 
ATOM     17  C   UNL     1       4.731   3.949  14.302  0.00  0.00    +0.000 A 
ATOM     18  C   UNL     1       5.459   4.059  13.114  0.00  0.00    +0.000 A 
BRANCH  13  19
ATOM     19  O   UNL     1       7.487   4.450  11.982  0.00  0.00    +0.000 OA
ATOM     20  H   UNL     1       7.089   3.821  11.360  0.00  0.00    +0.000 HD
ENDBRANCH  13  19
ENDBRANCH   1  16
BRANCH   2  21
ATOM     21  C   UNL     1       5.813   5.622  18.058  0.00  0.00    +0.000 A 
ATOM     22  C   UNL     1       5.719   6.844  17.386  0.00  0.00    +0.000 A 
ATOM     23  C   UNL     1       6.737   7.794  17.507  0.00  0.00    +0.000 A 
ATOM     24  C   UNL     1       7.853   7.530  18.307  0.00  0.00    +0.000 A 
ATOM     25  C   UNL     1       7.948   6.309  18.974  0.00  0.00    +0.000 A 
ATOM     26  C   UNL     1       6.929   5.362  18.861  0.00  0.00    +0.000 A 
BRANCH  24  27
ATOM     27  O   UNL     1       8.908   8.382  18.503  0.00  0.00    +0.000 OA
BRANCH  27  28
ATOM     28  C   UNL     1       8.582   9.776  18.438  0.00  0.00    +0.000 C 
BRANCH  28  29
ATOM     29  C   UNL     1       9.280  10.513  19.593  0.00  0.00    +0.000 C 
BRANCH  29  30
ATOM     30  N   UNL     1      10.063  11.693  19.168  0.00  0.00    +0.000 NA
ATOM     31  C   UNL     1      11.506  11.507  19.401  0.00  0.00    +0.000 C 
ATOM     32  C   UNL     1      12.305  12.740  18.982  0.00  0.00    +0.000 C 
ATOM     33  C   UNL     1      12.050  13.091  17.525  0.00  0.00    +0.000 C 
ATOM     34  C   UNL     1      10.553  13.215  17.269  0.00  0.00    +0.000 C 
ATOM     35  C   UNL     1       9.799  11.974  17.746  0.00  0.00    +0.000 C 
ENDBRANCH  29  30
ENDBRANCH  28  29
ENDBRANCH  27  28
ENDBRANCH  24  27
ENDBRANCH   2  21
TORSDOF 7
ENDMDL
MODEL 2
REMARK VINA RESULT:      -8.4      8.451     11.840
REMARK  Name = 
REMARK  7 active torsions:
REMARK  status: ('A' for Active; 'I' for Inactive)
REMARK    1  A    between atoms: O_1  and  C_2
REMARK    2  A    between atoms: C_5  and  C_6
REMARK    3  A    between atoms: C_7  and  C_8
REMARK    4  A    between atoms: C_11  and  O_12
REMARK    5  A    between atoms: O_12  and  C_13
REMARK    6  A    between atoms: C_13  and  C_14
REMARK    7  A    between atoms: C_14  and  N_15
REMARK                            x       y       z     vdW  Elec       q    Type
REMARK                         _______ _______ _______ _____ _____    ______ ____
ROOT
ATOM      1  C   UNL     1      -1.363  13.968  21.368  0.00  0.00    +0.000 C 
ATOM      2  C   UNL     1      -1.876  12.822  21.891  0.00  0.00    +0.000 C 
ATOM      3  C   UNL     1      -3.190  12.884  22.605  0.00  0.00    +0.000 A 
ATOM      4  C   UNL     1      -3.359  12.240  23.843  0.00  0.00    +0.000 A 
ATOM      5  C   UNL     1      -4.590  12.275  24.505  0.00  0.00    +0.000 A 
ATOM      6  C   UNL     1      -5.663  12.941  23.929  0.00  0.00    +0.000 A 
ATOM      7  F   UNL     1      -6.840  12.965  24.563  0.00  0.00    +0.000 F 
ATOM      8  C   UNL     1      -5.531  13.578  22.703  0.00  0.00    +0.000 A 
ATOM      9  C   UNL     1      -4.295  13.560  22.059  0.00  0.00    +0.000 A 
ATOM     10  O   UNL     1      -4.220  14.147  20.824  0.00  0.00    +0.000 OA
ATOM     11  C   UNL     1      -3.469  15.366  20.858  0.00  0.00    +0.000 C 
ATOM     12  C   UNL     1      -2.072  15.302  21.492  0.00  0.00    +0.000 C 
ENDROOT
BRANCH   1  16
ATOM     13  C   UNL     1       2.433  14.048  19.401  0.00  0.00    +0.000 A 
ATOM     14  C   UNL     1       2.392  13.990  20.791  0.00  0.00    +0.000 A 
ATOM     15  C   UNL     1       1.155  14.004  21.447  0.00  0.00    +0.000 A 
ATOM     16  C   UNL     1      -0.036  14.076  20.715  0.00  0.00    +0.000 A 
ATOM     17  C   UNL     1       0.029  14.162  19.317  0.00  0.00    +0.000 A 
ATOM     18  C   UNL     1       1.262  14.145  18.660  0.00  0.00    +0.000 A 
BRANCH  13  19
ATOM     19  O   UNL     1       3.612  13.998  18.717  0.00  0.00    +0.000 OA
ATOM     20  H   UNL     1       3.841  14.895  18.424  0.00  0.00    +0.000 HD
ENDBRANCH  13  19
ENDBRANCH   1  16
BRANCH   2  21
ATOM     21  C   UNL     1      -1.134  11.547  21.749  0.00  0.00    +0.000 A 
ATOM     22  C   UNL     1      -0.626  10.876  22.865  0.00  0.00    +0.000 A 
ATOM     23  C   UNL     1       0.070   9.674  22.706  0.00  0.00    +0.000 A 
ATOM     24  C   UNL     1       0.254   9.132  21.431  0.00  0.00    +0.000 A 
ATOM     25  C   UNL     1      -0.251   9.804  20.318  0.00  0.00    +0.000 A 
ATOM     26  C   UNL     1      -0.953  11.000  20.474  0.00  0.00    +0.000 A 
BRANCH  24  27
ATOM     27  O   UNL     1       0.913   7.963  21.154  0.00  0.00    +0.000 OA
BRANCH  27  28
ATOM     28  C   UNL     1       1.683   7.973  19.946  0.00  0.00    +0.000 C 
BRANCH  28  29
ATOM     29  C   UNL     1       2.554   6.707  19.891  0.00  0.00    +0.000 C 
BRANCH  29  30
ATOM     30  N   UNL     1       1.784   5.453  19.748  0.00  0.00    +0.000 NA
ATOM     31  C   UNL     1       2.124   4.740  18.504  0.00  0.00    +0.000 C 
ATOM     32  C   UNL     1       1.306   3.459  18.350  0.00  0.00    +0.000 C 
ATOM     33  C   UNL     1       1.494   2.541  19.548  0.00  0.00    +0.000 C 
ATOM     34  C   UNL     1       1.209   3.299  20.839  0.00  0.00    +0.000 C 
ATOM     35  C   UNL     1       2.021   4.592  20.920  0.00  0.00    +0.000 C 
ENDBRANCH  29  30
ENDBRANCH  28  29
ENDBRANCH  27  28
ENDBRANCH  24  27
ENDBRANCH   2  21
TORSDOF 7
ENDMDL
MODEL 3
REMARK VINA RESULT:      -8.4      0.656      1.233
REMARK  Name = 
REMARK  7 active torsions:
REMARK  status: ('A' for Active; 'I' for Inactive)
REMARK    1  A    between atoms: O_1  and  C_2
REMARK    2  A    between atoms: C_5  and  C_6
REMARK    3  A    between atoms: C_7  and  C_8
REMARK    4  A    between atoms: C_11  and  O_12
REMARK    5  A    between atoms: O_12  and  C_13
REMARK    6  A    between atoms: C_13  and  C_14
REMARK    7  A    between atoms: C_14  and  N_15
REMARK                            x       y       z     vdW  Elec       q    Type
REMARK                         _______ _______ _______ _____ _____    ______ ____
ROOT
ATOM      1  C   UNL     1       4.650   3.705  16.916  0.00  0.00    +0.000 C 
ATOM      2  C   UNL     1       4.758   4.458  18.044  0.00  0.00    +0.000 C 
ATOM      3  C   UNL     1       3.826   4.181  19.183  0.00  0.00    +0.000 A 
ATOM      4  C   UNL     1       3.178   5.239  19.845  0.00  0.00    +0.000 A 
ATOM      5  C   UNL     1       2.324   4.989  20.923  0.00  0.00    +0.000 A 
ATOM      6  C   UNL     1       2.123   3.686  21.356  0.00  0.00    +0.000 A 
ATOM      7  F   UNL     1       1.311   3.455  22.394  0.00  0.00    +0.000 F 
ATOM      8  C   UNL     1       2.757   2.622  20.730  0.00  0.00    +0.000 A 
ATOM      9  C   UNL     1       3.589   2.873  19.641  0.00  0.00    +0.000 A 
ATOM     10  O   UNL     1       4.242   1.805  19.087  0.00  0.00    +0.000 OA
ATOM     11  C   UNL     1       3.719   1.468  17.799  0.00  0.00    +0.000 C 
ATOM     12  C   UNL     1       3.615   2.606  16.772  0.00  0.00    +0.000 C 
ENDROOT
BRANCH   1  16
ATOM     13  C   UNL     1       6.918   4.571  13.396  0.00  0.00    +0.000 A 
ATOM     14  C   UNL     1       5.605   4.128  13.263  0.00  0.00    +0.000 A 
ATOM     15  C   UNL     1       4.867   3.802  14.408  0.00  0.00    +0.000 A 
ATOM     16  C   UNL     1       5.440   3.920  15.680  0.00  0.00    +0.000 A 
ATOM     17  C   UNL     1       6.773   4.342  15.789  0.00  0.00    +0.000 A 
ATOM     18  C   UNL     1       7.511   4.670  14.649  0.00  0.00    +0.000 A 
BRANCH  13  19
ATOM     19  O   UNL     1       7.664   4.935  12.313  0.00  0.00    +0.000 OA
ATOM     20  H   UNL     1       8.086   5.789  12.497  0.00  0.00    +0.000 HD
ENDBRANCH  13  19
ENDBRANCH   1  16
BRANCH   2  21
ATOM     21  C   UNL     1       5.781   5.525  18.125  0.00  0.00    +0.000 A 
ATOM     22  C   UNL     1       5.627   6.731  17.434  0.00  0.00    +0.000 A 
ATOM     23  C   UNL     1       6.605   7.725  17.527  0.00  0.00    +0.000 A 
ATOM     24  C   UNL     1       7.739   7.523  18.318  0.00  0.00    +0.000 A 
ATOM     25  C   UNL     1       7.895   6.318  19.004  0.00  0.00    +0.000 A 
ATOM     26  C   UNL     1       6.916   5.327  18.920  0.00  0.00    +0.000 A 
BRANCH  24  27
ATOM     27  O   UNL     1       8.759   8.422  18.488  0.00  0.00    +0.000 OA
BRANCH  27  28
ATOM     28  C   UNL     1       8.464   9.760  18.068  0.00  0.00    +0.000 C 
BRANCH  28  29
ATOM     29  C   UNL     1       9.397  10.738  18.803  0.00  0.00    +0.000 C 
BRANCH  29  30
ATOM     30  N   UNL     1       9.671  11.984  18.057  0.00  0.00    +0.000 NA
ATOM     31  C   UNL     1       9.341  13.181  18.850  0.00  0.00    +0.000 C 
ATOM     32  C   UNL     1       9.603  14.464  18.062  0.00  0.00    +0.000 C 
ATOM     33  C   UNL     1      11.045  14.532  17.585  0.00  0.00    +0.000 C 
ATOM     34  C   UNL     1      11.406  13.262  16.825  0.00  0.00    +0.000 C 
ATOM     35  C   UNL     1      11.084  12.009  17.641  0.00  0.00    +0.000 C 
ENDBRANCH  29  30
ENDBRANCH  28  29
ENDBRANCH  27  28
ENDBRANCH  24  27
ENDBRANCH   2  21
TORSDOF 7
ENDMDL
MODEL 4
REMARK VINA RESULT:      -8.4      4.382      7.367
REMARK  Name = 
REMARK  7 active torsions:
REMARK  status: ('A' for Active; 'I' for Inactive)
REMARK    1  A    between atoms: O_1  and  C_2
REMARK    2  A    between atoms: C_5  and  C_6
REMARK    3  A    between atoms: C_7  and  C_8
REMARK    4  A    between atoms: C_11  and  O_12
REMARK    5  A    between atoms: O_12  and  C_13
REMARK    6  A    between atoms: C_13  and  C_14
REMARK    7  A    between atoms: C_14  and  N_15
REMARK                            x       y       z     vdW  Elec       q    Type
REMARK                         _______ _______ _______ _____ _____    ______ ____
ROOT
ATOM      1  C   UNL     1       2.308   5.472  19.215  0.00  0.00    +0.000 C 
ATOM      2  C   UNL     1       2.876   6.542  18.597  0.00  0.00    +0.000 C 
ATOM      3  C   UNL     1       2.227   7.884  18.744  0.00  0.00    +0.000 A 
ATOM      4  C   UNL     1       2.040   8.711  17.623  0.00  0.00    +0.000 A 
ATOM      5  C   UNL     1       1.455   9.973  17.757  0.00  0.00    +0.000 A 
ATOM      6  C   UNL     1       1.066  10.423  19.011  0.00  0.00    +0.000 A 
ATOM      7  F   UNL     1       0.514  11.635  19.134  0.00  0.00    +0.000 F 
ATOM      8  C   UNL     1       1.247   9.635  20.138  0.00  0.00    +0.000 A 
ATOM      9  C   UNL     1       1.809   8.367  19.996  0.00  0.00    +0.000 A 
ATOM     10  O   UNL     1       2.026   7.643  21.138  0.00  0.00    +0.000 OA
ATOM     11  C   UNL     1       1.127   6.534  21.246  0.00  0.00    +0.000 C 
ATOM     12  C   UNL     1       1.040   5.591  20.038  0.00  0.00    +0.000 C 
ENDROOT
BRANCH   1  16
ATOM     13  C   UNL     1       3.908   1.530  18.784  0.00  0.00    +0.000 A 
ATOM     14  C   UNL     1       3.006   2.001  17.835  0.00  0.00    +0.000 A 
ATOM     15  C   UNL     1       2.445   3.275  17.989  0.00  0.00    +0.000 A 
ATOM     16  C   UNL     1       2.785   4.074  19.087  0.00  0.00    +0.000 A 
ATOM     17  C   UNL     1       3.675   3.568  20.046  0.00  0.00    +0.000 A 
ATOM     18  C   UNL     1       4.239   2.299  19.894  0.00  0.00    +0.000 A 
BRANCH  13  19
ATOM     19  O   UNL     1       4.509   0.312  18.658  0.00  0.00    +0.000 OA
ATOM     20  H   UNL     1       4.649   0.129  17.715  0.00  0.00    +0.000 HD
ENDBRANCH  13  19
ENDBRANCH   1  16
BRANCH   2  21
ATOM     21  C   UNL     1       4.109   6.366  17.797  0.00  0.00    +0.000 A 
ATOM     22  C   UNL     1       5.366   6.299  18.406  0.00  0.00    +0.000 A 
ATOM     23  C   UNL     1       6.516   6.130  17.631  0.00  0.00    +0.000 A 
ATOM     24  C   UNL     1       6.416   6.019  16.242  0.00  0.00    +0.000 A 
ATOM     25  C   UNL     1       5.163   6.089  15.633  0.00  0.00    +0.000 A 
ATOM     26  C   UNL     1       4.012   6.249  16.406  0.00  0.00    +0.000 A 
BRANCH  24  27
ATOM     27  O   UNL     1       7.470   5.848  15.382  0.00  0.00    +0.000 OA
BRANCH  27  28
ATOM     28  C   UNL     1       7.403   4.672  14.567  0.00  0.00    +0.000 C 
BRANCH  28  29
ATOM     29  C   UNL     1       7.568   5.070  13.090  0.00  0.00    +0.000 C 
BRANCH  29  30
ATOM     30  N   UNL     1       6.923   4.138  12.141  0.00  0.00    +0.000 NA
ATOM     31  C   UNL     1       7.749   2.941  11.901  0.00  0.00    +0.000 C 
ATOM     32  C   UNL     1       7.088   1.995  10.900  0.00  0.00    +0.000 C 
ATOM     33  C   UNL     1       5.697   1.589  11.363  0.00  0.00    +0.000 C 
ATOM     34  C   UNL     1       4.867   2.827  11.678  0.00  0.00    +0.000 C 
ATOM     35  C   UNL     1       5.594   3.758  12.649  0.00  0.00    +0.000 C 
ENDBRANCH  29  30
ENDBRANCH  28  29
ENDBRANCH  27  28
ENDBRANCH  24  27
ENDBRANCH   2  21
TORSDOF 7
ENDMDL
MODEL 5
REMARK VINA RESULT:      -8.3      0.374      1.209
REMARK  Name = 
REMARK  7 active torsions:
REMARK  status: ('A' for Active; 'I' for Inactive)
REMARK    1  A    between atoms: O_1  and  C_2
REMARK    2  A    between atoms: C_5  and  C_6
REMARK    3  A    between atoms: C_7  and  C_8
REMARK    4  A    between atoms: C_11  and  O_12
REMARK    5  A    between atoms: O_12  and  C_13
REMARK    6  A    between atoms: C_13  and  C_14
REMARK    7  A    between atoms: C_14  and  N_15
REMARK                            x       y       z     vdW  Elec       q    Type
REMARK                         _______ _______ _______ _____ _____    ______ ____
ROOT
ATOM      1  C   UNL     1       4.552   3.836  16.790  0.00  0.00    +0.000 C 
ATOM      2  C   UNL     1       4.757   4.507  17.955  0.00  0.00    +0.000 C 
ATOM      3  C   UNL     1       3.848   4.231  19.112  0.00  0.00    +0.000 A 
ATOM      4  C   UNL     1       3.306   5.291  19.860  0.00  0.00    +0.000 A 
ATOM      5  C   UNL     1       2.475   5.041  20.955  0.00  0.00    +0.000 A 
ATOM      6  C   UNL     1       2.188   3.732  21.318  0.00  0.00    +0.000 A 
ATOM      7  F   UNL     1       1.398   3.498  22.371  0.00  0.00    +0.000 F 
ATOM      8  C   UNL     1       2.716   2.664  20.606  0.00  0.00    +0.000 A 
ATOM      9  C   UNL     1       3.526   2.919  19.500  0.00  0.00    +0.000 A 
ATOM     10  O   UNL     1       4.075   1.841  18.859  0.00  0.00    +0.000 OA
ATOM     11  C   UNL     1       3.482   1.625  17.575  0.00  0.00    +0.000 C 
ATOM     12  C   UNL     1       3.431   2.829  16.622  0.00  0.00    +0.000 C 
ENDROOT
BRANCH   1  16
ATOM     13  C   UNL     1       6.736   4.258  13.138  0.00  0.00    +0.000 A 
ATOM     14  C   UNL     1       7.402   4.431  14.348  0.00  0.00    +0.000 A 
ATOM     15  C   UNL     1       6.687   4.335  15.549  0.00  0.00    +0.000 A 
ATOM     16  C   UNL     1       5.313   4.068  15.538  0.00  0.00    +0.000 A 
ATOM     17  C   UNL     1       4.657   3.924  14.307  0.00  0.00    +0.000 A 
ATOM     18  C   UNL     1       5.368   4.017  13.108  0.00  0.00    +0.000 A 
BRANCH  13  19
ATOM     19  O   UNL     1       7.397   4.305  11.945  0.00  0.00    +0.000 OA
ATOM     20  H   UNL     1       8.114   4.955  12.010  0.00  0.00    +0.000 HD
ENDBRANCH  13  19
ENDBRANCH   1  16
BRANCH   2  21
ATOM     21  C   UNL     1       5.862   5.488  18.058  0.00  0.00    +0.000 A 
ATOM     22  C   UNL     1       6.986   5.234  18.849  0.00  0.00    +0.000 A 
ATOM     23  C   UNL     1       8.017   6.174  18.930  0.00  0.00    +0.000 A 
ATOM     24  C   UNL     1       7.933   7.371  18.214  0.00  0.00    +0.000 A 
ATOM     25  C   UNL     1       6.810   7.627  17.428  0.00  0.00    +0.000 A 
ATOM     26  C   UNL     1       5.783   6.686  17.339  0.00  0.00    +0.000 A 
BRANCH  24  27
ATOM     27  O   UNL     1       8.879   8.363  18.213  0.00  0.00    +0.000 OA
BRANCH  27  28
ATOM     28  C   UNL     1       8.369   9.688  18.402  0.00  0.00    +0.000 C 
BRANCH  28  29
ATOM     29  C   UNL     1       9.156  10.377  19.530  0.00  0.00    +0.000 C 
BRANCH  29  30
ATOM     30  N   UNL     1      10.331  11.143  19.062  0.00  0.00    +0.000 NA
ATOM     31  C   UNL     1      10.007  11.988  17.899  0.00  0.00    +0.000 C 
ATOM     32  C   UNL     1      11.232  12.758  17.407  0.00  0.00    +0.000 C 
ATOM     33  C   UNL     1      11.833  13.603  18.519  0.00  0.00    +0.000 C 
ATOM     34  C   UNL     1      12.103  12.741  19.746  0.00  0.00    +0.000 C 
ATOM     35  C   UNL     1      10.858  11.962  20.168  0.00  0.00    +0.000 C 
ENDBRANCH  29  30
ENDBRANCH  28  29
ENDBRANCH  27  28
ENDBRANCH  24  27
ENDBRANCH   2  21
TORSDOF 7
ENDMDL
MODEL 6
REMARK VINA RESULT:      -8.2      1.049      1.339
REMARK  Name = 
REMARK  7 active torsions:
REMARK  status: ('A' for Active; 'I' for Inactive)
REMARK    1  A    between atoms: O_1  and  C_2
REMARK    2  A    between atoms: C_5  and  C_6
REMARK    3  A    between atoms: C_7  and  C_8
REMARK    4  A    between atoms: C_11  and  O_12
REMARK    5  A    between atoms: O_12  and  C_13
REMARK    6  A    between atoms: C_13  and  C_14
REMARK    7  A    between atoms: C_14  and  N_15
REMARK                            x       y       z     vdW  Elec       q    Type
REMARK                         _______ _______ _______ _____ _____    ______ ____
ROOT
ATOM      1  C   UNL     1       4.577   3.840  16.822  0.00  0.00    +0.000 C 
ATOM      2  C   UNL     1       4.721   4.558  17.968  0.00  0.00    +0.000 C 
ATOM      3  C   UNL     1       3.818   4.256  19.123  0.00  0.00    +0.000 A 
ATOM      4  C   UNL     1       3.197   5.299  19.832  0.00  0.00    +0.000 A 
ATOM      5  C   UNL     1       2.369   5.026  20.926  0.00  0.00    +0.000 A 
ATOM      6  C   UNL     1       2.167   3.712  21.325  0.00  0.00    +0.000 A 
ATOM      7  F   UNL     1       1.381   3.457  22.376  0.00  0.00    +0.000 F 
ATOM      8  C   UNL     1       2.774   2.661  20.652  0.00  0.00    +0.000 A 
ATOM      9  C   UNL     1       3.579   2.938  19.548  0.00  0.00    +0.000 A 
ATOM     10  O   UNL     1       4.208   1.881  18.946  0.00  0.00    +0.000 OA
ATOM     11  C   UNL     1       3.648   1.586  17.663  0.00  0.00    +0.000 C 
ATOM     12  C   UNL     1       3.528   2.755  16.673  0.00  0.00    +0.000 C 
ENDROOT
BRANCH   1  16
ATOM     13  C   UNL     1       6.763   4.301  13.175  0.00  0.00    +0.000 A 
ATOM     14  C   UNL     1       7.422   4.486  14.387  0.00  0.00    +0.000 A 
ATOM     15  C   UNL     1       6.705   4.378  15.586  0.00  0.00    +0.000 A 
ATOM     16  C   UNL     1       5.336   4.085  15.572  0.00  0.00    +0.000 A 
ATOM     17  C   UNL     1       4.687   3.929  14.339  0.00  0.00    +0.000 A 
ATOM     18  C   UNL     1       5.399   4.034  13.142  0.00  0.00    +0.000 A 
BRANCH  13  19
ATOM     19  O   UNL     1       7.425   4.359  11.984  0.00  0.00    +0.000 OA
ATOM     20  H   UNL     1       6.783   4.530  11.278  0.00  0.00    +0.000 HD
ENDBRANCH  13  19
ENDBRANCH   1  16
BRANCH   2  21
ATOM     21  C   UNL     1       5.756   5.614  18.053  0.00  0.00    +0.000 A 
ATOM     22  C   UNL     1       5.606   6.832  17.384  0.00  0.00    +0.000 A 
ATOM     23  C   UNL     1       6.595   7.815  17.480  0.00  0.00    +0.000 A 
ATOM     24  C   UNL     1       7.737   7.588  18.253  0.00  0.00    +0.000 A 
ATOM     25  C   UNL     1       7.889   6.371  18.918  0.00  0.00    +0.000 A 
ATOM     26  C   UNL     1       6.899   5.392  18.830  0.00  0.00    +0.000 A 
BRANCH  24  27
ATOM     27  O   UNL     1       8.768   8.474  18.425  0.00  0.00    +0.000 OA
BRANCH  27  28
ATOM     28  C   UNL     1       8.459   9.835  18.100  0.00  0.00    +0.000 C 
BRANCH  28  29
ATOM     29  C   UNL     1       9.660  10.726  18.460  0.00  0.00    +0.000 C 
BRANCH  29  30
ATOM     30  N   UNL     1       9.336  11.819  19.402  0.00  0.00    +0.000 NA
ATOM     31  C   UNL     1       9.401  11.371  20.804  0.00  0.00    +0.000 C 
ATOM     32  C   UNL     1       9.041  12.499  21.770  0.00  0.00    +0.000 C 
ATOM     33  C   UNL     1       9.941  13.708  21.563  0.00  0.00    +0.000 C 
ATOM     34  C   UNL     1       9.927  14.127  20.099  0.00  0.00    +0.000 C 
ATOM     35  C   UNL     1      10.251  12.952  19.176  0.00  0.00    +0.000 C 
ENDBRANCH  29  30
ENDBRANCH  28  29
ENDBRANCH  27  28
ENDBRANCH  24  27
ENDBRANCH   2  21
TORSDOF 7
ENDMDL
MODEL 7
REMARK VINA RESULT:      -8.0      8.157     11.569
REMARK  Name = 
REMARK  7 active torsions:
REMARK  status: ('A' for Active; 'I' for Inactive)
REMARK    1  A    between atoms: O_1  and  C_2
REMARK    2  A    between atoms: C_5  and  C_6
REMARK    3  A    between atoms: C_7  and  C_8
REMARK    4  A    between atoms: C_11  and  O_12
REMARK    5  A    between atoms: O_12  and  C_13
REMARK    6  A    between atoms: C_13  and  C_14
REMARK    7  A    between atoms: C_14  and  N_15
REMARK                            x       y       z     vdW  Elec       q    Type
REMARK                         _______ _______ _______ _____ _____    ______ ____
ROOT
ATOM      1  C   UNL     1      -0.305  14.365  21.135  0.00  0.00    +0.000 C 
ATOM      2  C   UNL     1      -0.912  13.166  21.343  0.00  0.00    +0.000 C 
ATOM      3  C   UNL     1      -2.200  13.136  22.106  0.00  0.00    +0.000 A 
ATOM      4  C   UNL     1      -2.403  12.188  23.123  0.00  0.00    +0.000 A 
ATOM      5  C   UNL     1      -3.612  12.140  23.824  0.00  0.00    +0.000 A 
ATOM      6  C   UNL     1      -4.629  13.029  23.505  0.00  0.00    +0.000 A 
ATOM      7  F   UNL     1      -5.786  12.973  24.174  0.00  0.00    +0.000 F 
ATOM      8  C   UNL     1      -4.463  13.970  22.499  0.00  0.00    +0.000 A 
ATOM      9  C   UNL     1      -3.248  14.029  21.819  0.00  0.00    +0.000 A 
ATOM     10  O   UNL     1      -3.143  14.930  20.793  0.00  0.00    +0.000 OA
ATOM     11  C   UNL     1      -2.281  16.022  21.128  0.00  0.00    +0.000 C 
ATOM     12  C   UNL     1      -0.883  15.666  21.656  0.00  0.00    +0.000 C 
ENDROOT
BRANCH   1  16
ATOM     13  C   UNL     1       3.452  14.659  19.113  0.00  0.00    +0.000 A 
ATOM     14  C   UNL     1       3.435  14.337  20.467  0.00  0.00    +0.000 A 
ATOM     15  C   UNL     1       2.213  14.279  21.148  0.00  0.00    +0.000 A 
ATOM     16  C   UNL     1       1.012  14.540  20.477  0.00  0.00    +0.000 A 
ATOM     17  C   UNL     1       1.054  14.889  19.119  0.00  0.00    +0.000 A 
ATOM     18  C   UNL     1       2.272  14.945  18.437  0.00  0.00    +0.000 A 
BRANCH  13  19
ATOM     19  O   UNL     1       4.614  14.691  18.399  0.00  0.00    +0.000 OA
ATOM     20  H   UNL     1       4.411  14.943  17.484  0.00  0.00    +0.000 HD
ENDBRANCH  13  19
ENDBRANCH   1  16
BRANCH   2  21
ATOM     21  C   UNL     1      -0.296  11.925  20.820  0.00  0.00    +0.000 A 
ATOM     22  C   UNL     1       0.436  11.072  21.651  0.00  0.00    +0.000 A 
ATOM     23  C   UNL     1       1.007   9.906  21.135  0.00  0.00    +0.000 A 
ATOM     24  C   UNL     1       0.842   9.580  19.786  0.00  0.00    +0.000 A 
ATOM     25  C   UNL     1       0.114  10.432  18.956  0.00  0.00    +0.000 A 
ATOM     26  C   UNL     1      -0.464  11.594  19.470  0.00  0.00    +0.000 A 
BRANCH  24  27
ATOM     27  O   UNL     1       1.350   8.466  19.171  0.00  0.00    +0.000 OA
BRANCH  27  28
ATOM     28  C   UNL     1       1.940   7.502  20.051  0.00  0.00    +0.000 C 
BRANCH  28  29
ATOM     29  C   UNL     1       2.841   6.558  19.237  0.00  0.00    +0.000 C 
BRANCH  29  30
ATOM     30  N   UNL     1       2.527   5.125  19.417  0.00  0.00    +0.000 NA
ATOM     31  C   UNL     1       1.644   4.898  20.574  0.00  0.00    +0.000 C 
ATOM     32  C   UNL     1       1.345   3.412  20.769  0.00  0.00    +0.000 C 
ATOM     33  C   UNL     1       0.734   2.806  19.515  0.00  0.00    +0.000 C 
ATOM     34  C   UNL     1       1.614   3.101  18.307  0.00  0.00    +0.000 C 
ATOM     35  C   UNL     1       1.916   4.595  18.186  0.00  0.00    +0.000 C 
ENDBRANCH  29  30
ENDBRANCH  28  29
ENDBRANCH  27  28
ENDBRANCH  24  27
ENDBRANCH   2  21
TORSDOF 7
ENDMDL
MODEL 8
REMARK VINA RESULT:      -8.0      8.392     11.513
REMARK  Name = 
REMARK  7 active torsions:
REMARK  status: ('A' for Active; 'I' for Inactive)
REMARK    1  A    between atoms: O_1  and  C_2
REMARK    2  A    between atoms: C_5  and  C_6
REMARK    3  A    between atoms: C_7  and  C_8
REMARK    4  A    between atoms: C_11  and  O_12
REMARK    5  A    between atoms: O_12  and  C_13
REMARK    6  A    between atoms: C_13  and  C_14
REMARK    7  A    between atoms: C_14  and  N_15
REMARK                            x       y       z     vdW  Elec       q    Type
REMARK                         _______ _______ _______ _____ _____    ______ ____
ROOT
ATOM      1  C   UNL     1      -1.388  13.894  21.310  0.00  0.00    +0.000 C 
ATOM      2  C   UNL     1      -1.917  12.769  21.861  0.00  0.00    +0.000 C 
ATOM      3  C   UNL     1      -3.223  12.871  22.586  0.00  0.00    +0.000 A 
ATOM      4  C   UNL     1      -3.392  12.256  23.839  0.00  0.00    +0.000 A 
ATOM      5  C   UNL     1      -4.616  12.329  24.511  0.00  0.00    +0.000 A 
ATOM      6  C   UNL     1      -5.681  13.003  23.931  0.00  0.00    +0.000 A 
ATOM      7  F   UNL     1      -6.852  13.063  24.575  0.00  0.00    +0.000 F 
ATOM      8  C   UNL     1      -5.549  13.612  22.691  0.00  0.00    +0.000 A 
ATOM      9  C   UNL     1      -4.320  13.557  22.035  0.00  0.00    +0.000 A 
ATOM     10  O   UNL     1      -4.245  14.117  20.789  0.00  0.00    +0.000 OA
ATOM     11  C   UNL     1      -3.472  15.321  20.790  0.00  0.00    +0.000 C 
ATOM     12  C   UNL     1      -2.070  15.244  21.413  0.00  0.00    +0.000 C 
ENDROOT
BRANCH   1  16
ATOM     13  C   UNL     1       2.390  13.860  19.306  0.00  0.00    +0.000 A 
ATOM     14  C   UNL     1       2.362  13.830  20.698  0.00  0.00    +0.000 A 
ATOM     15  C   UNL     1       1.131  13.882  21.365  0.00  0.00    +0.000 A 
ATOM     16  C   UNL     1      -0.065  13.963  20.642  0.00  0.00    +0.000 A 
ATOM     17  C   UNL     1      -0.012  14.020  19.242  0.00  0.00    +0.000 A 
ATOM     18  C   UNL     1       1.214  13.966  18.574  0.00  0.00    +0.000 A 
BRANCH  13  19
ATOM     19  O   UNL     1       3.562  13.774  18.612  0.00  0.00    +0.000 OA
ATOM     20  H   UNL     1       3.703  12.850  18.352  0.00  0.00    +0.000 HD
ENDBRANCH  13  19
ENDBRANCH   1  16
BRANCH   2  21
ATOM     21  C   UNL     1      -1.202  11.478  21.739  0.00  0.00    +0.000 A 
ATOM     22  C   UNL     1      -0.678  10.829  22.862  0.00  0.00    +0.000 A 
ATOM     23  C   UNL     1      -0.008   9.611  22.722  0.00  0.00    +0.000 A 
ATOM     24  C   UNL     1       0.136   9.030  21.459  0.00  0.00    +0.000 A 
ATOM     25  C   UNL     1      -0.382   9.679  20.339  0.00  0.00    +0.000 A 
ATOM     26  C   UNL     1      -1.059  10.891  20.477  0.00  0.00    +0.000 A 
BRANCH  24  27
ATOM     27  O   UNL     1       0.768   7.842  21.200  0.00  0.00    +0.000 OA
BRANCH  27  28
ATOM     28  C   UNL     1       1.715   7.880  20.125  0.00  0.00    +0.000 C 
BRANCH  28  29
ATOM     29  C   UNL     1       2.570   6.601  20.159  0.00  0.00    +0.000 C 
BRANCH  29  30
ATOM     30  N   UNL     1       2.633   5.886  18.867  0.00  0.00    +0.000 NA
ATOM     31  C   UNL     1       4.022   5.678  18.423  0.00  0.00    +0.000 C 
ATOM     32  C   UNL     1       4.078   4.960  17.075  0.00  0.00    +0.000 C 
ATOM     33  C   UNL     1       3.341   3.631  17.130  0.00  0.00    +0.000 C 
ATOM     34  C   UNL     1       1.926   3.838  17.655  0.00  0.00    +0.000 C 
ATOM     35  C   UNL     1       1.927   4.598  18.982  0.00  0.00    +0.000 C 
ENDBRANCH  29  30
ENDBRANCH  28  29
ENDBRANCH  27  28
ENDBRANCH  24  27
ENDBRANCH   2  21
TORSDOF 7
ENDMDL
MODEL 9
REMARK VINA RESULT:      -7.9      1.165      1.819
REMARK  Name = 
REMARK  7 active torsions:
REMARK  status: ('A' for Active; 'I' for Inactive)
REMARK    1  A    between atoms: O_1  and  C_2
REMARK    2  A    between atoms: C_5  and  C_6
REMARK    3  A    between atoms: C_7  and  C_8
REMARK    4  A    between atoms: C_11  and  O_12
REMARK    5  A    between atoms: O_12  and  C_13
REMARK    6  A    between atoms: C_13  and  C_14
REMARK    7  A    between atoms: C_14  and  N_15
REMARK                            x       y       z     vdW  Elec       q    Type
REMARK                         _______ _______ _______ _____ _____    ______ ____
ROOT
ATOM      1  C   UNL     1       4.715   3.734  16.855  0.00  0.00    +0.000 C 
ATOM      2  C   UNL     1       4.806   4.561  17.932  0.00  0.00    +0.000 C 
ATOM      3  C   UNL     1       3.914   4.309  19.107  0.00  0.00    +0.000 A 
ATOM      4  C   UNL     1       3.225   5.372  19.718  0.00  0.00    +0.000 A 
ATOM      5  C   UNL     1       2.407   5.148  20.829  0.00  0.00    +0.000 A 
ATOM      6  C   UNL     1       2.283   3.866  21.346  0.00  0.00    +0.000 A 
ATOM      7  F   UNL     1       1.505   3.659  22.415  0.00  0.00    +0.000 F 
ATOM      8  C   UNL     1       2.958   2.798  20.772  0.00  0.00    +0.000 A 
ATOM      9  C   UNL     1       3.753   3.022  19.650  0.00  0.00    +0.000 A 
ATOM     10  O   UNL     1       4.450   1.956  19.148  0.00  0.00    +0.000 OA
ATOM     11  C   UNL     1       3.919   1.512  17.895  0.00  0.00    +0.000 C 
ATOM     12  C   UNL     1       3.736   2.577  16.804  0.00  0.00    +0.000 C 
ENDROOT
BRANCH   1  16
ATOM     13  C   UNL     1       6.873   4.491  13.242  0.00  0.00    +0.000 A 
ATOM     14  C   UNL     1       5.562   4.031  13.163  0.00  0.00    +0.000 A 
ATOM     15  C   UNL     1       4.860   3.741  14.340  0.00  0.00    +0.000 A 
ATOM     16  C   UNL     1       5.467   3.911  15.590  0.00  0.00    +0.000 A 
ATOM     17  C   UNL     1       6.798   4.351  15.645  0.00  0.00    +0.000 A 
ATOM     18  C   UNL     1       7.500   4.643  14.473  0.00  0.00    +0.000 A 
BRANCH  13  19
ATOM     19  O   UNL     1       7.584   4.823  12.126  0.00  0.00    +0.000 OA
ATOM     20  H   UNL     1       8.132   4.064  11.868  0.00  0.00    +0.000 HD
ENDBRANCH  13  19
ENDBRANCH   1  16
BRANCH   2  21
ATOM     21  C   UNL     1       5.773   5.682  17.923  0.00  0.00    +0.000 A 
ATOM     22  C   UNL     1       6.983   5.602  18.619  0.00  0.00    +0.000 A 
ATOM     23  C   UNL     1       7.881   6.672  18.595  0.00  0.00    +0.000 A 
ATOM     24  C   UNL     1       7.579   7.827  17.868  0.00  0.00    +0.000 A 
ATOM     25  C   UNL     1       6.370   7.908  17.176  0.00  0.00    +0.000 A 
ATOM     26  C   UNL     1       5.475   6.838  17.192  0.00  0.00    +0.000 A 
BRANCH  24  27
ATOM     27  O   UNL     1       8.379   8.934  17.768  0.00  0.00    +0.000 OA
BRANCH  27  28
ATOM     28  C   UNL     1       8.843   9.463  19.016  0.00  0.00    +0.000 C 
BRANCH  28  29
ATOM     29  C   UNL     1       9.668  10.734  18.753  0.00  0.00    +0.000 C 
BRANCH  29  30
ATOM     30  N   UNL     1       9.324  11.868  19.636  0.00  0.00    +0.000 NA
ATOM     31  C   UNL     1       9.548  11.544  21.056  0.00  0.00    +0.000 C 
ATOM     32  C   UNL     1       9.167  12.712  21.965  0.00  0.00    +0.000 C 
ATOM     33  C   UNL     1       9.929  13.973  21.587  0.00  0.00    +0.000 C 
ATOM     34  C   UNL     1       9.753  14.268  20.103  0.00  0.00    +0.000 C 
ATOM     35  C   UNL     1      10.106  13.053  19.244  0.00  0.00    +0.000 C 
ENDBRANCH  29  30
ENDBRANCH  28  29
ENDBRANCH  27  28
ENDBRANCH  24  27
ENDBRANCH   2  21
TORSDOF 7
ENDMDL
