MODEL 1
REMARK VINA RESULT:      -9.1      0.000      0.000
REMARK  Name = 
REMARK  7 active torsions:
REMARK  status: ('A' for Active; 'I' for Inactive)
REMARK    1  A    between atoms: C_2  and  C_3
REMARK    2  A    between atoms: C_2  and  C_24
REMARK    3  A    between atoms: C_6  and  C_7
REMARK    4  A    between atoms: C_11  and  N_12
REMARK    5  A    between atoms: N_12  and  S_13
REMARK    6  A    between atoms: S_13  and  C_16
REMARK    7  A    between atoms: C_29  and  O_30
REMARK                            x       y       z     vdW  Elec       q    Type
REMARK                         _______ _______ _______ _____ _____    ______ ____
ROOT
ATOM      1  C   UNL     1       2.915   6.944  18.876  0.00  0.00    +0.000 A 
ATOM      2  C   UNL     1       2.978   7.675  17.705  0.00  0.00    +0.000 A 
ATOM      3  C   UNL     1       2.183   8.853  17.766  0.00  0.00    +0.000 A 
ATOM      4  C   UNL     1       1.459   8.966  18.939  0.00  0.00    +0.000 A 
ATOM      5  S   UNL     1       1.789   7.635  19.968  0.00  0.00    +0.000 S 
ENDROOT
BRANCH   4   6
ATOM      6  C   UNL     1       0.501  10.028  19.304  0.00  0.00    +0.000 A 
ATOM      7  C   UNL     1       0.494  10.655  20.558  0.00  0.00    +0.000 A 
ATOM      8  C   UNL     1      -0.399  11.700  20.829  0.00  0.00    +0.000 A 
ATOM      9  C   UNL     1      -1.279  12.146  19.844  0.00  0.00    +0.000 A 
ATOM     10  C   UNL     1      -1.290  11.527  18.601  0.00  0.00    +0.000 A 
ATOM     11  C   UNL     1      -0.423  10.467  18.339  0.00  0.00    +0.000 A 
BRANCH  10  12
ATOM     12  N   UNL     1      -2.182  11.997  17.601  0.00  0.00    +0.000 N 
ATOM     13  H   UNL     1      -2.370  12.996  17.552  0.00  0.00    +0.000 HD
BRANCH  12  14
ATOM     14  S   UNL     1      -3.494  11.037  17.146  0.00  0.00    +0.000 S 
ATOM     15  O   UNL     1      -3.619  11.172  15.706  0.00  0.00    +0.000 OA
ATOM     16  O   UNL     1      -3.369   9.741  17.773  0.00  0.00    +0.000 OA
BRANCH  14  17
ATOM     17  C   UNL     1      -4.890  11.878  17.861  0.00  0.00    +0.000 A 
ATOM     18  C   UNL     1      -4.963  12.012  19.254  0.00  0.00    +0.000 A 
ATOM     19  C   UNL     1      -6.094  12.589  19.829  0.00  0.00    +0.000 A 
ATOM     20  C   UNL     1      -7.130  13.055  19.017  0.00  0.00    +0.000 A 
ATOM     21  C   UNL     1      -7.032  12.957  17.627  0.00  0.00    +0.000 A 
ATOM     22  C   UNL     1      -5.908  12.371  17.041  0.00  0.00    +0.000 A 
ENDBRANCH  14  17
ENDBRANCH  12  14
ENDBRANCH  10  12
ENDBRANCH   4   6
BRANCH   1  24
ATOM     23  O   UNL     1       4.859   5.781  19.547  0.00  0.00    +0.000 OA
ATOM     24  C   UNL     1       3.665   5.752  19.275  0.00  0.00    +0.000 C 
BRANCH  24  25
ATOM     25  C   UNL     1       2.981   4.428  19.309  0.00  0.00    +0.000 A 
ATOM     26  C   UNL     1       2.950   3.566  18.205  0.00  0.00    +0.000 A 
ATOM     27 CL   UNL     1       3.806   3.860  16.731  0.00  0.00    +0.000 Cl
ATOM     28  C   UNL     1       2.227   2.359  18.264  0.00  0.00    +0.000 A 
ATOM     29  C   UNL     1       1.565   1.980  19.433  0.00  0.00    +0.000 A 
ATOM     30  C   UNL     1       1.610   2.823  20.532  0.00  0.00    +0.000 A 
ATOM     31  C   UNL     1       2.278   4.047  20.461  0.00  0.00    +0.000 A 
ATOM     32  F   UNL     1       2.218   4.857  21.528  0.00  0.00    +0.000 F 
BRANCH  30  33
ATOM     33  O   UNL     1       1.006   2.479  21.706  0.00  0.00    +0.000 OA
ATOM     34  H   UNL     1       0.453   3.213  22.023  0.00  0.00    +0.000 HD
ENDBRANCH  30  33
ENDBRANCH  24  25
ENDBRANCH   1  24
TORSDOF 7
ENDMDL
MODEL 2
REMARK VINA RESULT:      -9.1      4.172     10.107
REMARK  Name = 
REMARK  7 active torsions:
REMARK  status: ('A' for Active; 'I' for Inactive)
REMARK    1  A    between atoms: C_2  and  C_3
REMARK    2  A    between atoms: C_2  and  C_24
REMARK    3  A    between atoms: C_6  and  C_7
REMARK    4  A    between atoms: C_11  and  N_12
REMARK    5  A    between atoms: N_12  and  S_13
REMARK    6  A    between atoms: S_13  and  C_16
REMARK    7  A    between atoms: C_29  and  O_30
REMARK                            x       y       z     vdW  Elec       q    Type
REMARK                         _______ _______ _______ _____ _____    ______ ____
ROOT
ATOM      1  C   UNL     1       1.497   9.413  19.124  0.00  0.00    +0.000 A 
ATOM      2  C   UNL     1       1.200   8.755  20.302  0.00  0.00    +0.000 A 
ATOM      3  C   UNL     1       1.713   7.429  20.319  0.00  0.00    +0.000 A 
ATOM      4  C   UNL     1       2.317   7.059  19.130  0.00  0.00    +0.000 A 
ATOM      5  S   UNL     1       2.273   8.360  18.015  0.00  0.00    +0.000 S 
ENDROOT
BRANCH   4   6
ATOM      6  C   UNL     1       2.901   5.747  18.790  0.00  0.00    +0.000 A 
ATOM      7  C   UNL     1       2.188   4.740  18.125  0.00  0.00    +0.000 A 
ATOM      8  C   UNL     1       2.812   3.537  17.772  0.00  0.00    +0.000 A 
ATOM      9  C   UNL     1       4.161   3.334  18.059  0.00  0.00    +0.000 A 
ATOM     10  C   UNL     1       4.877   4.318  18.727  0.00  0.00    +0.000 A 
ATOM     11  C   UNL     1       4.250   5.505  19.106  0.00  0.00    +0.000 A 
BRANCH  10  12
ATOM     12  N   UNL     1       6.253   4.107  19.004  0.00  0.00    +0.000 N 
ATOM     13  H   UNL     1       6.536   3.970  19.972  0.00  0.00    +0.000 HD
BRANCH  12  14
ATOM     14  S   UNL     1       7.416   4.890  18.063  0.00  0.00    +0.000 S 
ATOM     15  O   UNL     1       7.501   6.248  18.566  0.00  0.00    +0.000 OA
ATOM     16  O   UNL     1       8.586   4.048  17.963  0.00  0.00    +0.000 OA
BRANCH  14  17
ATOM     17  C   UNL     1       6.652   4.987  16.457  0.00  0.00    +0.000 A 
ATOM     18  C   UNL     1       5.877   6.110  16.140  0.00  0.00    +0.000 A 
ATOM     19  C   UNL     1       5.201   6.155  14.921  0.00  0.00    +0.000 A 
ATOM     20  C   UNL     1       5.324   5.098  14.016  0.00  0.00    +0.000 A 
ATOM     21  C   UNL     1       6.132   4.001  14.321  0.00  0.00    +0.000 A 
ATOM     22  C   UNL     1       6.804   3.941  15.543  0.00  0.00    +0.000 A 
ENDBRANCH  14  17
ENDBRANCH  12  14
ENDBRANCH  10  12
ENDBRANCH   4   6
BRANCH   1  24
ATOM     23  O   UNL     1       2.115  11.490  18.182  0.00  0.00    +0.000 OA
ATOM     24  C   UNL     1       1.269  10.809  18.750  0.00  0.00    +0.000 C 
BRANCH  24  25
ATOM     25  C   UNL     1      -0.019  11.468  19.110  0.00  0.00    +0.000 A 
ATOM     26  C   UNL     1      -0.127  12.388  20.162  0.00  0.00    +0.000 A 
ATOM     27 CL   UNL     1       1.222  12.973  21.072  0.00  0.00    +0.000 Cl
ATOM     28  C   UNL     1      -1.381  12.926  20.510  0.00  0.00    +0.000 A 
ATOM     29  C   UNL     1      -2.528  12.588  19.791  0.00  0.00    +0.000 A 
ATOM     30  C   UNL     1      -2.419  11.692  18.739  0.00  0.00    +0.000 A 
ATOM     31  C   UNL     1      -1.188  11.113  18.425  0.00  0.00    +0.000 A 
ATOM     32  F   UNL     1      -1.160  10.191  17.450  0.00  0.00    +0.000 F 
BRANCH  30  33
ATOM     33  O   UNL     1      -3.508  11.358  17.986  0.00  0.00    +0.000 OA
ATOM     34  H   UNL     1      -3.721  12.079  17.372  0.00  0.00    +0.000 HD
ENDBRANCH  30  33
ENDBRANCH  24  25
ENDBRANCH   1  24
TORSDOF 7
ENDMDL
MODEL 3
REMARK VINA RESULT:      -9.0      2.509      3.086
REMARK  Name = 
REMARK  7 active torsions:
REMARK  status: ('A' for Active; 'I' for Inactive)
REMARK    1  A    between atoms: C_2  and  C_3
REMARK    2  A    between atoms: C_2  and  C_24
REMARK    3  A    between atoms: C_6  and  C_7
REMARK    4  A    between atoms: C_11  and  N_12
REMARK    5  A    between atoms: N_12  and  S_13
REMARK    6  A    between atoms: S_13  and  C_16
REMARK    7  A    between atoms: C_29  and  O_30
REMARK                            x       y       z     vdW  Elec       q    Type
REMARK                         _______ _______ _______ _____ _____    ______ ____
ROOT
ATOM      1  C   UNL     1       2.663   7.325  18.239  0.00  0.00    +0.000 A 
ATOM      2  C   UNL     1       2.199   8.478  17.636  0.00  0.00    +0.000 A 
ATOM      3  C   UNL     1       1.481   9.305  18.543  0.00  0.00    +0.000 A 
ATOM      4  C   UNL     1       1.330   8.743  19.797  0.00  0.00    +0.000 A 
ATOM      5  S   UNL     1       2.101   7.212  19.855  0.00  0.00    +0.000 S 
ENDROOT
BRANCH   4   6
ATOM      6  C   UNL     1       0.599   9.303  20.950  0.00  0.00    +0.000 A 
ATOM      7  C   UNL     1       0.853   8.923  22.276  0.00  0.00    +0.000 A 
ATOM      8  C   UNL     1       0.171   9.532  23.337  0.00  0.00    +0.000 A 
ATOM      9  C   UNL     1      -0.755  10.544  23.088  0.00  0.00    +0.000 A 
ATOM     10  C   UNL     1      -1.024  10.923  21.780  0.00  0.00    +0.000 A 
ATOM     11  C   UNL     1      -0.368  10.297  20.721  0.00  0.00    +0.000 A 
BRANCH  10  12
ATOM     12  N   UNL     1      -1.960  11.963  21.538  0.00  0.00    +0.000 N 
ATOM     13  H   UNL     1      -2.938  11.797  21.768  0.00  0.00    +0.000 HD
BRANCH  12  14
ATOM     14  S   UNL     1      -1.741  12.981  20.209  0.00  0.00    +0.000 S 
ATOM     15  O   UNL     1      -2.510  14.181  20.482  0.00  0.00    +0.000 OA
ATOM     16  O   UNL     1      -0.332  13.044  19.891  0.00  0.00    +0.000 OA
BRANCH  14  17
ATOM     17  C   UNL     1      -2.579  12.126  18.891  0.00  0.00    +0.000 A 
ATOM     18  C   UNL     1      -1.834  11.663  17.799  0.00  0.00    +0.000 A 
ATOM     19  C   UNL     1      -2.491  11.073  16.720  0.00  0.00    +0.000 A 
ATOM     20  C   UNL     1      -3.879  10.921  16.748  0.00  0.00    +0.000 A 
ATOM     21  C   UNL     1      -4.612  11.345  17.859  0.00  0.00    +0.000 A 
ATOM     22  C   UNL     1      -3.964  11.947  18.939  0.00  0.00    +0.000 A 
ENDBRANCH  14  17
ENDBRANCH  12  14
ENDBRANCH  10  12
ENDBRANCH   4   6
BRANCH   1  24
ATOM     23  O   UNL     1       4.323   6.476  16.788  0.00  0.00    +0.000 OA
ATOM     24  C   UNL     1       3.538   6.279  17.708  0.00  0.00    +0.000 C 
BRANCH  24  25
ATOM     25  C   UNL     1       3.452   4.896  18.258  0.00  0.00    +0.000 A 
ATOM     26  C   UNL     1       4.498   4.304  18.979  0.00  0.00    +0.000 A 
ATOM     27 CL   UNL     1       5.943   5.137  19.436  0.00  0.00    +0.000 Cl
ATOM     28  C   UNL     1       4.396   2.969  19.414  0.00  0.00    +0.000 A 
ATOM     29  C   UNL     1       3.240   2.225  19.172  0.00  0.00    +0.000 A 
ATOM     30  C   UNL     1       2.197   2.815  18.476  0.00  0.00    +0.000 A 
ATOM     31  C   UNL     1       2.315   4.121  17.994  0.00  0.00    +0.000 A 
ATOM     32  F   UNL     1       1.307   4.610  17.256  0.00  0.00    +0.000 F 
BRANCH  30  33
ATOM     33  O   UNL     1       1.035   2.139  18.245  0.00  0.00    +0.000 OA
ATOM     34  H   UNL     1       0.657   1.831  19.086  0.00  0.00    +0.000 HD
ENDBRANCH  30  33
ENDBRANCH  24  25
ENDBRANCH   1  24
TORSDOF 7
ENDMDL
MODEL 4
REMARK VINA RESULT:      -9.0      4.219     10.036
REMARK  Name = 
REMARK  7 active torsions:
REMARK  status: ('A' for Active; 'I' for Inactive)
REMARK    1  A    between atoms: C_2  and  C_3
REMARK    2  A    between atoms: C_2  and  C_24
REMARK    3  A    between atoms: C_6  and  C_7
REMARK    4  A    between atoms: C_11  and  N_12
REMARK    5  A    between atoms: N_12  and  S_13
REMARK    6  A    between atoms: S_13  and  C_16
REMARK    7  A    between atoms: C_29  and  O_30
REMARK                            x       y       z     vdW  Elec       q    Type
REMARK                         _______ _______ _______ _____ _____    ______ ____
ROOT
ATOM      1  C   UNL     1       1.290   9.379  19.415  0.00  0.00    +0.000 A 
ATOM      2  C   UNL     1       1.116   8.696  20.604  0.00  0.00    +0.000 A 
ATOM      3  C   UNL     1       1.676   7.390  20.558  0.00  0.00    +0.000 A 
ATOM      4  C   UNL     1       2.193   7.057  19.319  0.00  0.00    +0.000 A 
ATOM      5  S   UNL     1       2.010   8.370  18.231  0.00  0.00    +0.000 S 
ENDROOT
BRANCH   4   6
ATOM      6  C   UNL     1       2.795   5.773  18.912  0.00  0.00    +0.000 A 
ATOM      7  C   UNL     1       2.100   4.799  18.181  0.00  0.00    +0.000 A 
ATOM      8  C   UNL     1       2.741   3.624  17.768  0.00  0.00    +0.000 A 
ATOM      9  C   UNL     1       4.088   3.418  18.060  0.00  0.00    +0.000 A 
ATOM     10  C   UNL     1       4.786   4.370  18.791  0.00  0.00    +0.000 A 
ATOM     11  C   UNL     1       4.143   5.526  19.229  0.00  0.00    +0.000 A 
BRANCH  10  12
ATOM     12  N   UNL     1       6.162   4.156  19.073  0.00  0.00    +0.000 N 
ATOM     13  H   UNL     1       6.439   3.998  20.039  0.00  0.00    +0.000 HD
BRANCH  12  14
ATOM     14  S   UNL     1       7.328   4.964  18.157  0.00  0.00    +0.000 S 
ATOM     15  O   UNL     1       7.356   6.330  18.646  0.00  0.00    +0.000 OA
ATOM     16  O   UNL     1       8.526   4.157  18.103  0.00  0.00    +0.000 OA
BRANCH  14  17
ATOM     17  C   UNL     1       6.610   5.019  16.529  0.00  0.00    +0.000 A 
ATOM     18  C   UNL     1       5.797   6.105  16.181  0.00  0.00    +0.000 A 
ATOM     19  C   UNL     1       5.158   6.115  14.942  0.00  0.00    +0.000 A 
ATOM     20  C   UNL     1       5.355   5.061  14.047  0.00  0.00    +0.000 A 
ATOM     21  C   UNL     1       6.201   4.002  14.383  0.00  0.00    +0.000 A 
ATOM     22  C   UNL     1       6.837   3.978  15.626  0.00  0.00    +0.000 A 
ENDBRANCH  14  17
ENDBRANCH  12  14
ENDBRANCH  10  12
ENDBRANCH   4   6
BRANCH   1  24
ATOM     23  O   UNL     1       1.758  11.493  18.470  0.00  0.00    +0.000 OA
ATOM     24  C   UNL     1       0.981  10.770  19.083  0.00  0.00    +0.000 C 
BRANCH  24  25
ATOM     25  C   UNL     1      -0.304  11.370  19.544  0.00  0.00    +0.000 A 
ATOM     26  C   UNL     1      -1.489  11.276  18.803  0.00  0.00    +0.000 A 
ATOM     27 CL   UNL     1      -1.646  10.347  17.352  0.00  0.00    +0.000 Cl
ATOM     28  C   UNL     1      -2.659  11.923  19.245  0.00  0.00    +0.000 A 
ATOM     29  C   UNL     1      -2.670  12.634  20.446  0.00  0.00    +0.000 A 
ATOM     30  C   UNL     1      -1.503  12.713  21.189  0.00  0.00    +0.000 A 
ATOM     31  C   UNL     1      -0.327  12.120  20.728  0.00  0.00    +0.000 A 
ATOM     32  F   UNL     1       0.791  12.300  21.448  0.00  0.00    +0.000 F 
BRANCH  30  33
ATOM     33  O   UNL     1      -1.476  13.369  22.386  0.00  0.00    +0.000 OA
ATOM     34  H   UNL     1      -0.874  14.131  22.334  0.00  0.00    +0.000 HD
ENDBRANCH  30  33
ENDBRANCH  24  25
ENDBRANCH   1  24
TORSDOF 7
ENDMDL
MODEL 5
REMARK VINA RESULT:      -9.0      4.544     10.298
REMARK  Name = 
REMARK  7 active torsions:
REMARK  status: ('A' for Active; 'I' for Inactive)
REMARK    1  A    between atoms: C_2  and  C_3
REMARK    2  A    between atoms: C_2  and  C_24
REMARK    3  A    between atoms: C_6  and  C_7
REMARK    4  A    between atoms: C_11  and  N_12
REMARK    5  A    between atoms: N_12  and  S_13
REMARK    6  A    between atoms: S_13  and  C_16
REMARK    7  A    between atoms: C_29  and  O_30
REMARK                            x       y       z     vdW  Elec       q    Type
REMARK                         _______ _______ _______ _____ _____    ______ ____
ROOT
ATOM      1  C   UNL     1       1.063   9.631  19.504  0.00  0.00    +0.000 A 
ATOM      2  C   UNL     1       0.875   9.025  20.732  0.00  0.00    +0.000 A 
ATOM      3  C   UNL     1       1.506   7.753  20.804  0.00  0.00    +0.000 A 
ATOM      4  C   UNL     1       2.093   7.363  19.613  0.00  0.00    +0.000 A 
ATOM      5  S   UNL     1       1.886   8.583  18.426  0.00  0.00    +0.000 S 
ENDROOT
BRANCH   4   6
ATOM      6  C   UNL     1       2.780   6.090  19.326  0.00  0.00    +0.000 A 
ATOM      7  C   UNL     1       2.797   5.010  20.220  0.00  0.00    +0.000 A 
ATOM      8  C   UNL     1       3.412   3.801  19.869  0.00  0.00    +0.000 A 
ATOM      9  C   UNL     1       3.998   3.649  18.613  0.00  0.00    +0.000 A 
ATOM     10  C   UNL     1       3.997   4.714  17.721  0.00  0.00    +0.000 A 
ATOM     11  C   UNL     1       3.411   5.927  18.080  0.00  0.00    +0.000 A 
BRANCH  10  12
ATOM     12  N   UNL     1       4.586   4.545  16.440  0.00  0.00    +0.000 N 
ATOM     13  H   UNL     1       4.466   3.651  15.967  0.00  0.00    +0.000 HD
BRANCH  12  14
ATOM     14  S   UNL     1       6.057   5.300  16.100  0.00  0.00    +0.000 S 
ATOM     15  O   UNL     1       5.772   6.719  15.993  0.00  0.00    +0.000 OA
ATOM     16  O   UNL     1       7.065   4.799  17.007  0.00  0.00    +0.000 OA
BRANCH  14  17
ATOM     17  C   UNL     1       6.443   4.732  14.457  0.00  0.00    +0.000 A 
ATOM     18  C   UNL     1       7.544   5.284  13.788  0.00  0.00    +0.000 A 
ATOM     19  C   UNL     1       7.802   4.912  12.470  0.00  0.00    +0.000 A 
ATOM     20  C   UNL     1       6.983   3.975  11.836  0.00  0.00    +0.000 A 
ATOM     21  C   UNL     1       5.913   3.398  12.522  0.00  0.00    +0.000 A 
ATOM     22  C   UNL     1       5.639   3.771  13.839  0.00  0.00    +0.000 A 
ENDBRANCH  14  17
ENDBRANCH  12  14
ENDBRANCH  10  12
ENDBRANCH   4   6
BRANCH   1  24
ATOM     23  O   UNL     1       1.511  11.772  18.611  0.00  0.00    +0.000 OA
ATOM     24  C   UNL     1       0.695  10.976  19.059  0.00  0.00    +0.000 C 
BRANCH  24  25
ATOM     25  C   UNL     1      -0.717  11.436  19.194  0.00  0.00    +0.000 A 
ATOM     26  C   UNL     1      -1.158  12.210  20.276  0.00  0.00    +0.000 A 
ATOM     27 CL   UNL     1      -0.110  12.837  21.500  0.00  0.00    +0.000 Cl
ATOM     28  C   UNL     1      -2.517  12.557  20.395  0.00  0.00    +0.000 A 
ATOM     29  C   UNL     1      -3.440  12.174  19.421  0.00  0.00    +0.000 A 
ATOM     30  C   UNL     1      -3.002  11.424  18.341  0.00  0.00    +0.000 A 
ATOM     31  C   UNL     1      -1.666  11.030  18.246  0.00  0.00    +0.000 A 
ATOM     32  F   UNL     1      -1.318  10.236  17.222  0.00  0.00    +0.000 F 
BRANCH  30  33
ATOM     33  O   UNL     1      -3.862  11.055  17.347  0.00  0.00    +0.000 OA
ATOM     34  H   UNL     1      -3.486  10.315  16.841  0.00  0.00    +0.000 HD
ENDBRANCH  30  33
ENDBRANCH  24  25
ENDBRANCH   1  24
TORSDOF 7
ENDMDL
MODEL 6
REMARK VINA RESULT:      -8.9      4.509     10.299
REMARK  Name = 
REMARK  7 active torsions:
REMARK  status: ('A' for Active; 'I' for Inactive)
REMARK    1  A    between atoms: C_2  and  C_3
REMARK    2  A    between atoms: C_2  and  C_24
REMARK    3  A    between atoms: C_6  and  C_7
REMARK    4  A    between atoms: C_11  and  N_12
REMARK    5  A    between atoms: N_12  and  S_13
REMARK    6  A    between atoms: S_13  and  C_16
REMARK    7  A    between atoms: C_29  and  O_30
REMARK                            x       y       z     vdW  Elec       q    Type
REMARK                         _______ _______ _______ _____ _____    ______ ____
ROOT
ATOM      1  C   UNL     1       1.034   9.672  19.533  0.00  0.00    +0.000 A 
ATOM      2  C   UNL     1       0.873   9.056  20.759  0.00  0.00    +0.000 A 
ATOM      3  C   UNL     1       1.529   7.795  20.816  0.00  0.00    +0.000 A 
ATOM      4  C   UNL     1       2.107   7.423  19.615  0.00  0.00    +0.000 A 
ATOM      5  S   UNL     1       1.863   8.645  18.438  0.00  0.00    +0.000 S 
ENDROOT
BRANCH   4   6
ATOM      6  C   UNL     1       2.814   6.164  19.312  0.00  0.00    +0.000 A 
ATOM      7  C   UNL     1       2.844   5.071  20.190  0.00  0.00    +0.000 A 
ATOM      8  C   UNL     1       3.479   3.878  19.823  0.00  0.00    +0.000 A 
ATOM      9  C   UNL     1       4.071   3.753  18.568  0.00  0.00    +0.000 A 
ATOM     10  C   UNL     1       4.058   4.830  17.692  0.00  0.00    +0.000 A 
ATOM     11  C   UNL     1       3.453   6.029  18.066  0.00  0.00    +0.000 A 
BRANCH  10  12
ATOM     12  N   UNL     1       4.653   4.689  16.410  0.00  0.00    +0.000 N 
ATOM     13  H   UNL     1       4.406   3.876  15.849  0.00  0.00    +0.000 HD
BRANCH  12  14
ATOM     14  S   UNL     1       6.238   5.220  16.172  0.00  0.00    +0.000 S 
ATOM     15  O   UNL     1       6.189   6.670  16.185  0.00  0.00    +0.000 OA
ATOM     16  O   UNL     1       7.118   4.487  17.053  0.00  0.00    +0.000 OA
BRANCH  14  17
ATOM     17  C   UNL     1       6.588   4.737  14.494  0.00  0.00    +0.000 A 
ATOM     18  C   UNL     1       7.618   5.385  13.801  0.00  0.00    +0.000 A 
ATOM     19  C   UNL     1       7.842   5.078  12.460  0.00  0.00    +0.000 A 
ATOM     20  C   UNL     1       7.060   4.109  11.826  0.00  0.00    +0.000 A 
ATOM     21  C   UNL     1       6.063   3.436  12.535  0.00  0.00    +0.000 A 
ATOM     22  C   UNL     1       5.824   3.744  13.875  0.00  0.00    +0.000 A 
ENDBRANCH  14  17
ENDBRANCH  12  14
ENDBRANCH  10  12
ENDBRANCH   4   6
BRANCH   1  24
ATOM     23  O   UNL     1       1.422  11.809  18.603  0.00  0.00    +0.000 OA
ATOM     24  C   UNL     1       0.635  11.011  19.100  0.00  0.00    +0.000 C 
BRANCH  24  25
ATOM     25  C   UNL     1      -0.770  11.465  19.308  0.00  0.00    +0.000 A 
ATOM     26  C   UNL     1      -1.815  11.102  18.449  0.00  0.00    +0.000 A 
ATOM     27 CL   UNL     1      -1.641   9.987  17.139  0.00  0.00    +0.000 Cl
ATOM     28  C   UNL     1      -3.111  11.617  18.648  0.00  0.00    +0.000 A 
ATOM     29  C   UNL     1      -3.386  12.463  19.723  0.00  0.00    +0.000 A 
ATOM     30  C   UNL     1      -2.357  12.809  20.584  0.00  0.00    +0.000 A 
ATOM     31  C   UNL     1      -1.059  12.345  20.360  0.00  0.00    +0.000 A 
ATOM     32  F   UNL     1      -0.088  12.779  21.179  0.00  0.00    +0.000 F 
BRANCH  30  33
ATOM     33  O   UNL     1      -2.585  13.606  21.668  0.00  0.00    +0.000 OA
ATOM     34  H   UNL     1      -1.777  13.679  22.203  0.00  0.00    +0.000 HD
ENDBRANCH  30  33
ENDBRANCH  24  25
ENDBRANCH   1  24
TORSDOF 7
ENDMDL
MODEL 7
REMARK VINA RESULT:      -8.9      4.580     10.194
REMARK  Name = 
REMARK  7 active torsions:
REMARK  status: ('A' for Active; 'I' for Inactive)
REMARK    1  A    between atoms: C_2  and  C_3
REMARK    2  A    between atoms: C_2  and  C_24
REMARK    3  A    between atoms: C_6  and  C_7
REMARK    4  A    between atoms: C_11  and  N_12
REMARK    5  A    between atoms: N_12  and  S_13
REMARK    6  A    between atoms: S_13  and  C_16
REMARK    7  A    between atoms: C_29  and  O_30
REMARK                            x       y       z     vdW  Elec       q    Type
REMARK                         _______ _______ _______ _____ _____    ______ ____
ROOT
ATOM      1  C   UNL     1       1.289   9.256  19.464  0.00  0.00    +0.000 A 
ATOM      2  C   UNL     1       1.626   9.325  18.126  0.00  0.00    +0.000 A 
ATOM      3  C   UNL     1       2.188   8.108  17.652  0.00  0.00    +0.000 A 
ATOM      4  C   UNL     1       2.354   7.157  18.643  0.00  0.00    +0.000 A 
ATOM      5  S   UNL     1       1.788   7.763  20.144  0.00  0.00    +0.000 S 
ENDROOT
BRANCH   4   6
ATOM      6  C   UNL     1       2.954   5.816  18.509  0.00  0.00    +0.000 A 
ATOM      7  C   UNL     1       2.268   4.722  17.961  0.00  0.00    +0.000 A 
ATOM      8  C   UNL     1       2.907   3.486  17.801  0.00  0.00    +0.000 A 
ATOM      9  C   UNL     1       4.244   3.334  18.164  0.00  0.00    +0.000 A 
ATOM     10  C   UNL     1       4.933   4.406  18.717  0.00  0.00    +0.000 A 
ATOM     11  C   UNL     1       4.290   5.628  18.905  0.00  0.00    +0.000 A 
BRANCH  10  12
ATOM     12  N   UNL     1       6.298   4.243  19.072  0.00  0.00    +0.000 N 
ATOM     13  H   UNL     1       6.541   4.223  20.061  0.00  0.00    +0.000 HD
BRANCH  12  14
ATOM     14  S   UNL     1       7.493   4.926  18.095  0.00  0.00    +0.000 S 
ATOM     15  O   UNL     1       7.665   6.292  18.553  0.00  0.00    +0.000 OA
ATOM     16  O   UNL     1       8.611   4.013  18.010  0.00  0.00    +0.000 OA
BRANCH  14  17
ATOM     17  C   UNL     1       6.717   5.018  16.495  0.00  0.00    +0.000 A 
ATOM     18  C   UNL     1       5.993   6.168  16.156  0.00  0.00    +0.000 A 
ATOM     19  C   UNL     1       5.307   6.214  14.943  0.00  0.00    +0.000 A 
ATOM     20  C   UNL     1       5.369   5.130  14.065  0.00  0.00    +0.000 A 
ATOM     21  C   UNL     1       6.127   4.004  14.390  0.00  0.00    +0.000 A 
ATOM     22  C   UNL     1       6.809   3.944  15.607  0.00  0.00    +0.000 A 
ENDBRANCH  14  17
ENDBRANCH  12  14
ENDBRANCH  10  12
ENDBRANCH   4   6
BRANCH   1  24
ATOM     23  O   UNL     1       0.151   9.950  21.415  0.00  0.00    +0.000 OA
ATOM     24  C   UNL     1       0.583  10.226  20.302  0.00  0.00    +0.000 C 
BRANCH  24  25
ATOM     25  C   UNL     1       0.320  11.598  19.779  0.00  0.00    +0.000 A 
ATOM     26  C   UNL     1      -0.686  11.868  18.842  0.00  0.00    +0.000 A 
ATOM     27 CL   UNL     1      -1.824  10.690  18.285  0.00  0.00    +0.000 Cl
ATOM     28  C   UNL     1      -0.846  13.167  18.324  0.00  0.00    +0.000 A 
ATOM     29  C   UNL     1      -0.036  14.215  18.763  0.00  0.00    +0.000 A 
ATOM     30  C   UNL     1       0.947  13.954  19.704  0.00  0.00    +0.000 A 
ATOM     31  C   UNL     1       1.146  12.656  20.180  0.00  0.00    +0.000 A 
ATOM     32  F   UNL     1       2.166  12.449  21.026  0.00  0.00    +0.000 F 
BRANCH  30  33
ATOM     33  O   UNL     1       1.741  14.953  20.187  0.00  0.00    +0.000 OA
ATOM     34  H   UNL     1       1.500  15.799  19.773  0.00  0.00    +0.000 HD
ENDBRANCH  30  33
ENDBRANCH  24  25
ENDBRANCH   1  24
TORSDOF 7
ENDMDL
MODEL 8
REMARK VINA RESULT:      -8.8      3.750      4.438
REMARK  Name = 
REMARK  7 active torsions:
REMARK  status: ('A' for Active; 'I' for Inactive)
REMARK    1  A    between atoms: C_2  and  C_3
REMARK    2  A    between atoms: C_2  and  C_24
REMARK    3  A    between atoms: C_6  and  C_7
REMARK    4  A    between atoms: C_11  and  N_12
REMARK    5  A    between atoms: N_12  and  S_13
REMARK    6  A    between atoms: S_13  and  C_16
REMARK    7  A    between atoms: C_29  and  O_30
REMARK                            x       y       z     vdW  Elec       q    Type
REMARK                         _______ _______ _______ _____ _____    ______ ____
ROOT
ATOM      1  C   UNL     1       2.774   7.252  18.178  0.00  0.00    +0.000 A 
ATOM      2  C   UNL     1       2.344   8.400  17.540  0.00  0.00    +0.000 A 
ATOM      3  C   UNL     1       1.620   9.258  18.412  0.00  0.00    +0.000 A 
ATOM      4  C   UNL     1       1.430   8.726  19.674  0.00  0.00    +0.000 A 
ATOM      5  S   UNL     1       2.173   7.184  19.783  0.00  0.00    +0.000 S 
ENDROOT
BRANCH   4   6
ATOM      6  C   UNL     1       0.682   9.322  20.798  0.00  0.00    +0.000 A 
ATOM      7  C   UNL     1       0.743   8.826  22.107  0.00  0.00    +0.000 A 
ATOM      8  C   UNL     1       0.060   9.470  23.147  0.00  0.00    +0.000 A 
ATOM      9  C   UNL     1      -0.672  10.629  22.896  0.00  0.00    +0.000 A 
ATOM     10  C   UNL     1      -0.749  11.126  21.602  0.00  0.00    +0.000 A 
ATOM     11  C   UNL     1      -0.095  10.470  20.560  0.00  0.00    +0.000 A 
BRANCH  10  12
ATOM     12  N   UNL     1      -1.488  12.314  21.358  0.00  0.00    +0.000 N 
ATOM     13  H   UNL     1      -2.129  12.332  20.568  0.00  0.00    +0.000 HD
BRANCH  12  14
ATOM     14  S   UNL     1      -0.779  13.810  21.689  0.00  0.00    +0.000 S 
ATOM     15  O   UNL     1       0.618  13.545  21.978  0.00  0.00    +0.000 OA
ATOM     16  O   UNL     1      -1.172  14.754  20.667  0.00  0.00    +0.000 OA
BRANCH  14  17
ATOM     17  C   UNL     1      -1.535  14.296  23.227  0.00  0.00    +0.000 A 
ATOM     18  C   UNL     1      -2.741  13.696  23.610  0.00  0.00    +0.000 A 
ATOM     19  C   UNL     1      -3.387  14.132  24.766  0.00  0.00    +0.000 A 
ATOM     20  C   UNL     1      -2.815  15.139  25.547  0.00  0.00    +0.000 A 
ATOM     21  C   UNL     1      -1.591  15.703  25.182  0.00  0.00    +0.000 A 
ATOM     22  C   UNL     1      -0.942  15.281  24.020  0.00  0.00    +0.000 A 
ENDBRANCH  14  17
ENDBRANCH  12  14
ENDBRANCH  10  12
ENDBRANCH   4   6
BRANCH   1  24
ATOM     23  O   UNL     1       4.444   6.342  16.778  0.00  0.00    +0.000 OA
ATOM     24  C   UNL     1       3.643   6.180  17.690  0.00  0.00    +0.000 C 
BRANCH  24  25
ATOM     25  C   UNL     1       3.530   4.815  18.277  0.00  0.00    +0.000 A 
ATOM     26  C   UNL     1       4.552   4.234  19.040  0.00  0.00    +0.000 A 
ATOM     27 CL   UNL     1       5.994   5.067  19.508  0.00  0.00    +0.000 Cl
ATOM     28  C   UNL     1       4.427   2.913  19.510  0.00  0.00    +0.000 A 
ATOM     29  C   UNL     1       3.270   2.174  19.262  0.00  0.00    +0.000 A 
ATOM     30  C   UNL     1       2.250   2.753  18.523  0.00  0.00    +0.000 A 
ATOM     31  C   UNL     1       2.392   4.043  18.008  0.00  0.00    +0.000 A 
ATOM     32  F   UNL     1       1.407   4.519  17.231  0.00  0.00    +0.000 F 
BRANCH  30  33
ATOM     33  O   UNL     1       1.087   2.080  18.284  0.00  0.00    +0.000 OA
ATOM     34  H   UNL     1       0.888   1.485  19.026  0.00  0.00    +0.000 HD
ENDBRANCH  30  33
ENDBRANCH  24  25
ENDBRANCH   1  24
TORSDOF 7
ENDMDL
MODEL 9
REMARK VINA RESULT:      -8.8      1.583      1.723
REMARK  Name = 
REMARK  7 active torsions:
REMARK  status: ('A' for Active; 'I' for Inactive)
REMARK    1  A    between atoms: C_2  and  C_3
REMARK    2  A    between atoms: C_2  and  C_24
REMARK    3  A    between atoms: C_6  and  C_7
REMARK    4  A    between atoms: C_11  and  N_12
REMARK    5  A    between atoms: N_12  and  S_13
REMARK    6  A    between atoms: S_13  and  C_16
REMARK    7  A    between atoms: C_29  and  O_30
REMARK                            x       y       z     vdW  Elec       q    Type
REMARK                         _______ _______ _______ _____ _____    ______ ____
ROOT
ATOM      1  C   UNL     1       2.719   6.983  18.891  0.00  0.00    +0.000 A 
ATOM      2  C   UNL     1       2.260   6.913  20.192  0.00  0.00    +0.000 A 
ATOM      3  C   UNL     1       1.401   7.998  20.517  0.00  0.00    +0.000 A 
ATOM      4  C   UNL     1       1.280   8.927  19.499  0.00  0.00    +0.000 A 
ATOM      5  S   UNL     1       2.203   8.436  18.140  0.00  0.00    +0.000 S 
ENDROOT
BRANCH   4   6
ATOM      6  C   UNL     1       0.517  10.189  19.521  0.00  0.00    +0.000 A 
ATOM      7  C   UNL     1       0.650  11.146  20.537  0.00  0.00    +0.000 A 
ATOM      8  C   UNL     1      -0.054  12.356  20.475  0.00  0.00    +0.000 A 
ATOM      9  C   UNL     1      -0.880  12.634  19.387  0.00  0.00    +0.000 A 
ATOM     10  C   UNL     1      -1.028  11.691  18.378  0.00  0.00    +0.000 A 
ATOM     11  C   UNL     1      -0.352  10.474  18.453  0.00  0.00    +0.000 A 
BRANCH  10  12
ATOM     12  N   UNL     1      -1.862  11.989  17.268  0.00  0.00    +0.000 N 
ATOM     13  H   UNL     1      -2.019  12.966  17.030  0.00  0.00    +0.000 HD
BRANCH  12  14
ATOM     14  S   UNL     1      -3.181  10.990  16.933  0.00  0.00    +0.000 S 
ATOM     15  O   UNL     1      -3.424  11.099  15.507  0.00  0.00    +0.000 OA
ATOM     16  O   UNL     1      -2.973   9.707  17.567  0.00  0.00    +0.000 OA
BRANCH  14  17
ATOM     17  C   UNL     1      -4.537  11.808  17.747  0.00  0.00    +0.000 A 
ATOM     18  C   UNL     1      -4.446  12.073  19.120  0.00  0.00    +0.000 A 
ATOM     19  C   UNL     1      -5.537  12.632  19.784  0.00  0.00    +0.000 A 
ATOM     20  C   UNL     1      -6.698  12.949  19.075  0.00  0.00    +0.000 A 
ATOM     21  C   UNL     1      -6.766  12.722  17.699  0.00  0.00    +0.000 A 
ATOM     22  C   UNL     1      -5.683  12.153  17.027  0.00  0.00    +0.000 A 
ENDBRANCH  14  17
ENDBRANCH  12  14
ENDBRANCH  10  12
ENDBRANCH   4   6
BRANCH   1  24
ATOM     23  O   UNL     1       4.281   6.356  17.233  0.00  0.00    +0.000 OA
ATOM     24  C   UNL     1       3.511   6.020  18.125  0.00  0.00    +0.000 C 
BRANCH  24  25
ATOM     25  C   UNL     1       3.351   4.561  18.387  0.00  0.00    +0.000 A 
ATOM     26  C   UNL     1       2.208   3.847  18.005  0.00  0.00    +0.000 A 
ATOM     27 CL   UNL     1       0.918   4.522  17.072  0.00  0.00    +0.000 Cl
ATOM     28  C   UNL     1       2.074   2.486  18.341  0.00  0.00    +0.000 A 
ATOM     29  C   UNL     1       3.091   1.815  19.022  0.00  0.00    +0.000 A 
ATOM     30  C   UNL     1       4.230   2.516  19.385  0.00  0.00    +0.000 A 
ATOM     31  C   UNL     1       4.345   3.879  19.103  0.00  0.00    +0.000 A 
ATOM     32  F   UNL     1       5.433   4.523  19.551  0.00  0.00    +0.000 F 
BRANCH  30  33
ATOM     33  O   UNL     1       5.265   1.894  20.022  0.00  0.00    +0.000 OA
ATOM     34  H   UNL     1       5.320   0.967  19.739  0.00  0.00    +0.000 HD
ENDBRANCH  30  33
ENDBRANCH  24  25
ENDBRANCH   1  24
TORSDOF 7
ENDMDL
