MODEL 1
REMARK VINA RESULT:      -7.0      0.000      0.000
REMARK  Name = 
REMARK  9 active torsions:
REMARK  status: ('A' for Active; 'I' for Inactive)
REMARK    1  A    between atoms: C_1  and  N_2
REMARK    2  A    between atoms: N_2  and  C_3
REMARK    3  A    between atoms: N_2  and  C_4
REMARK    4  A    between atoms: C_4  and  C_5
REMARK    5  A    between atoms: C_5  and  C_6
REMARK    6  A    between atoms: C_6  and  O_7
REMARK    7  A    between atoms: O_7  and  C_8
REMARK    8  A    between atoms: C_11  and  C_12
REMARK    9  A    between atoms: C_16  and  C_17
REMARK                            x       y       z     vdW  Elec       q    Type
REMARK                         _______ _______ _______ _____ _____    ______ ____
ROOT
ATOM      1  C   UNL     1       1.037   9.140  20.142  0.00  0.00    +0.000 A 
ATOM      2  C   UNL     1       0.286  10.110  19.289  0.00  0.00    +0.000 A 
ATOM      3  N   UNL     1      -0.539  11.020  19.712  0.00  0.00    +0.000 NA
ATOM      4  C   UNL     1      -0.724  11.082  21.071  0.00  0.00    +0.000 A 
ATOM      5  C   UNL     1      -1.521  11.875  21.873  0.00  0.00    +0.000 A 
ATOM      6  C   UNL     1      -1.264  11.436  23.186  0.00  0.00    +0.000 A 
ATOM      7  N   UNL     1      -0.380  10.440  23.241  0.00  0.00    +0.000 NA
ATOM      8  N   UNL     1      -0.053  10.217  21.946  0.00  0.00    +0.000 N 
ATOM      9  C   UNL     1       0.817   9.249  21.460  0.00  0.00    +0.000 A 
ENDROOT
BRANCH   1  13
ATOM     10  C   UNL     1       3.391   6.050  18.395  0.00  0.00    +0.000 A 
ATOM     11  C   UNL     1       3.197   7.269  17.740  0.00  0.00    +0.000 A 
ATOM     12  C   UNL     1       2.437   8.276  18.329  0.00  0.00    +0.000 A 
ATOM     13  C   UNL     1       1.858   8.077  19.581  0.00  0.00    +0.000 A 
ATOM     14  C   UNL     1       2.046   6.862  20.245  0.00  0.00    +0.000 A 
ATOM     15  C   UNL     1       2.812   5.854  19.652  0.00  0.00    +0.000 A 
BRANCH  10  16
ATOM     16  O   UNL     1       4.115   4.996  17.892  0.00  0.00    +0.000 OA
BRANCH  16  17
ATOM     17  C   UNL     1       4.990   4.373  18.838  0.00  0.00    +0.000 C 
BRANCH  17  18
ATOM     18  C   UNL     1       6.282   5.167  18.973  0.00  0.00    +0.000 C 
BRANCH  18  19
ATOM     19  C   UNL     1       7.324   4.711  17.940  0.00  0.00    +0.000 C 
BRANCH  19  21
ATOM     20  C   UNL     1       6.801   5.182  15.604  0.00  0.00    +0.000 C 
ATOM     21  N   UNL     1       7.501   5.639  16.805  0.00  0.00    +0.000 NA
ATOM     22  C   UNL     1       7.035   6.980  17.168  0.00  0.00    +0.000 C 
ENDBRANCH  19  21
ENDBRANCH  18  19
ENDBRANCH  17  18
ENDBRANCH  16  17
ENDBRANCH  10  16
ENDBRANCH   1  13
BRANCH   5  23
ATOM     23  C   UNL     1      -2.452  12.942  21.488  0.00  0.00    +0.000 A 
ATOM     24  C   UNL     1      -2.048  14.291  21.243  0.00  0.00    +0.000 A 
ATOM     25  C   UNL     1      -3.107  15.103  20.897  0.00  0.00    +0.000 A 
ATOM     26  S   UNL     1      -4.587  14.249  20.866  0.00  0.00    +0.000 S 
ATOM     27  C   UNL     1      -3.814  12.789  21.317  0.00  0.00    +0.000 A 
ENDBRANCH   5  23
TORSDOF 7
ENDMDL
MODEL 2
REMARK VINA RESULT:      -6.9      2.707      3.953
REMARK  Name = 
REMARK  9 active torsions:
REMARK  status: ('A' for Active; 'I' for Inactive)
REMARK    1  A    between atoms: C_1  and  N_2
REMARK    2  A    between atoms: N_2  and  C_3
REMARK    3  A    between atoms: N_2  and  C_4
REMARK    4  A    between atoms: C_4  and  C_5
REMARK    5  A    between atoms: C_5  and  C_6
REMARK    6  A    between atoms: C_6  and  O_7
REMARK    7  A    between atoms: O_7  and  C_8
REMARK    8  A    between atoms: C_11  and  C_12
REMARK    9  A    between atoms: C_16  and  C_17
REMARK                            x       y       z     vdW  Elec       q    Type
REMARK                         _______ _______ _______ _____ _____    ______ ____
ROOT
ATOM      1  C   UNL     1       2.819   7.494  18.485  0.00  0.00    +0.000 A 
ATOM      2  C   UNL     1       2.249   8.697  17.808  0.00  0.00    +0.000 A 
ATOM      3  N   UNL     1       1.370   9.513  18.310  0.00  0.00    +0.000 NA
ATOM      4  C   UNL     1       0.939   9.226  19.583  0.00  0.00    +0.000 A 
ATOM      5  C   UNL     1       0.018   9.827  20.418  0.00  0.00    +0.000 A 
ATOM      6  C   UNL     1       0.025   9.044  21.588  0.00  0.00    +0.000 A 
ATOM      7  N   UNL     1       0.872   8.018  21.525  0.00  0.00    +0.000 NA
ATOM      8  N   UNL     1       1.429   8.123  20.295  0.00  0.00    +0.000 N 
ATOM      9  C   UNL     1       2.363   7.266  19.725  0.00  0.00    +0.000 A 
ENDROOT
BRANCH   1  13
ATOM     10  C   UNL     1       5.434   4.847  16.412  0.00  0.00    +0.000 A 
ATOM     11  C   UNL     1       5.508   6.231  16.225  0.00  0.00    +0.000 A 
ATOM     12  C   UNL     1       4.656   7.085  16.920  0.00  0.00    +0.000 A 
ATOM     13  C   UNL     1       3.717   6.568  17.811  0.00  0.00    +0.000 A 
ATOM     14  C   UNL     1       3.635   5.187  18.006  0.00  0.00    +0.000 A 
ATOM     15  C   UNL     1       4.494   4.332  17.308  0.00  0.00    +0.000 A 
BRANCH  10  16
ATOM     16  O   UNL     1       6.222   3.926  15.767  0.00  0.00    +0.000 OA
BRANCH  16  17
ATOM     17  C   UNL     1       5.783   3.592  14.446  0.00  0.00    +0.000 C 
BRANCH  17  18
ATOM     18  C   UNL     1       6.639   4.299  13.404  0.00  0.00    +0.000 C 
BRANCH  18  19
ATOM     19  C   UNL     1       6.631   3.538  12.070  0.00  0.00    +0.000 C 
BRANCH  19  21
ATOM     20  C   UNL     1       4.361   3.148  11.267  0.00  0.00    +0.000 C 
ATOM     21  N   UNL     1       5.529   2.566  11.930  0.00  0.00    +0.000 NA
ATOM     22  C   UNL     1       5.983   1.387  11.186  0.00  0.00    +0.000 C 
ENDBRANCH  19  21
ENDBRANCH  18  19
ENDBRANCH  17  18
ENDBRANCH  16  17
ENDBRANCH  10  16
ENDBRANCH   1  13
BRANCH   5  23
ATOM     23  C   UNL     1      -0.815  11.011  20.178  0.00  0.00    +0.000 A 
ATOM     24  C   UNL     1      -1.698  11.140  19.060  0.00  0.00    +0.000 A 
ATOM     25  C   UNL     1      -2.369  12.345  19.057  0.00  0.00    +0.000 A 
ATOM     26  S   UNL     1      -1.940  13.322  20.391  0.00  0.00    +0.000 S 
ATOM     27  C   UNL     1      -0.855  12.135  20.978  0.00  0.00    +0.000 A 
ENDBRANCH   5  23
TORSDOF 7
ENDMDL
MODEL 3
REMARK VINA RESULT:      -6.9      1.919      3.009
REMARK  Name = 
REMARK  9 active torsions:
REMARK  status: ('A' for Active; 'I' for Inactive)
REMARK    1  A    between atoms: C_1  and  N_2
REMARK    2  A    between atoms: N_2  and  C_3
REMARK    3  A    between atoms: N_2  and  C_4
REMARK    4  A    between atoms: C_4  and  C_5
REMARK    5  A    between atoms: C_5  and  C_6
REMARK    6  A    between atoms: C_6  and  O_7
REMARK    7  A    between atoms: O_7  and  C_8
REMARK    8  A    between atoms: C_11  and  C_12
REMARK    9  A    between atoms: C_16  and  C_17
REMARK                            x       y       z     vdW  Elec       q    Type
REMARK                         _______ _______ _______ _____ _____    ______ ____
ROOT
ATOM      1  C   UNL     1       1.129   9.195  19.981  0.00  0.00    +0.000 A 
ATOM      2  C   UNL     1       0.394  10.224  19.185  0.00  0.00    +0.000 A 
ATOM      3  N   UNL     1      -0.425  11.115  19.659  0.00  0.00    +0.000 NA
ATOM      4  C   UNL     1      -0.619  11.094  21.019  0.00  0.00    +0.000 A 
ATOM      5  C   UNL     1      -1.413  11.844  21.864  0.00  0.00    +0.000 A 
ATOM      6  C   UNL     1      -1.169  11.322  23.148  0.00  0.00    +0.000 A 
ATOM      7  N   UNL     1      -0.296  10.315  23.146  0.00  0.00    +0.000 NA
ATOM      8  N   UNL     1       0.038  10.169  21.842  0.00  0.00    +0.000 N 
ATOM      9  C   UNL     1       0.902   9.225  21.302  0.00  0.00    +0.000 A 
ENDROOT
BRANCH   1  13
ATOM     10  C   UNL     1       3.562   6.146  18.271  0.00  0.00    +0.000 A 
ATOM     11  C   UNL     1       2.967   5.978  19.525  0.00  0.00    +0.000 A 
ATOM     12  C   UNL     1       2.162   6.978  20.066  0.00  0.00    +0.000 A 
ATOM     13  C   UNL     1       1.943   8.160  19.361  0.00  0.00    +0.000 A 
ATOM     14  C   UNL     1       2.531   8.337  18.107  0.00  0.00    +0.000 A 
ATOM     15  C   UNL     1       3.337   7.330  17.566  0.00  0.00    +0.000 A 
BRANCH  10  16
ATOM     16  O   UNL     1       4.377   5.223  17.661  0.00  0.00    +0.000 OA
BRANCH  16  17
ATOM     17  C   UNL     1       4.538   4.001  18.388  0.00  0.00    +0.000 C 
BRANCH  17  18
ATOM     18  C   UNL     1       3.607   2.928  17.841  0.00  0.00    +0.000 C 
BRANCH  18  19
ATOM     19  C   UNL     1       3.237   1.907  18.928  0.00  0.00    +0.000 C 
BRANCH  19  21
ATOM     20  C   UNL     1       1.833   2.610  20.795  0.00  0.00    +0.000 C 
ATOM     21  N   UNL     1       1.862   2.042  19.446  0.00  0.00    +0.000 NA
ATOM     22  C   UNL     1       1.058   2.872  18.544  0.00  0.00    +0.000 C 
ENDBRANCH  19  21
ENDBRANCH  18  19
ENDBRANCH  17  18
ENDBRANCH  16  17
ENDBRANCH  10  16
ENDBRANCH   1  13
BRANCH   5  23
ATOM     23  C   UNL     1      -2.331  12.942  21.539  0.00  0.00    +0.000 A 
ATOM     24  C   UNL     1      -3.734  12.760  21.327  0.00  0.00    +0.000 A 
ATOM     25  C   UNL     1      -4.379  13.943  21.036  0.00  0.00    +0.000 A 
ATOM     26  S   UNL     1      -3.305  15.271  21.013  0.00  0.00    +0.000 S 
ATOM     27  C   UNL     1      -1.972  14.267  21.395  0.00  0.00    +0.000 A 
ENDBRANCH   5  23
TORSDOF 7
ENDMDL
MODEL 4
REMARK VINA RESULT:      -6.9      1.905      2.852
REMARK  Name = 
REMARK  9 active torsions:
REMARK  status: ('A' for Active; 'I' for Inactive)
REMARK    1  A    between atoms: C_1  and  N_2
REMARK    2  A    between atoms: N_2  and  C_3
REMARK    3  A    between atoms: N_2  and  C_4
REMARK    4  A    between atoms: C_4  and  C_5
REMARK    5  A    between atoms: C_5  and  C_6
REMARK    6  A    between atoms: C_6  and  O_7
REMARK    7  A    between atoms: O_7  and  C_8
REMARK    8  A    between atoms: C_11  and  C_12
REMARK    9  A    between atoms: C_16  and  C_17
REMARK                            x       y       z     vdW  Elec       q    Type
REMARK                         _______ _______ _______ _____ _____    ______ ____
ROOT
ATOM      1  C   UNL     1       0.949   9.386  20.008  0.00  0.00    +0.000 A 
ATOM      2  C   UNL     1       0.113  10.295  19.167  0.00  0.00    +0.000 A 
ATOM      3  N   UNL     1      -0.732  11.180  19.605  0.00  0.00    +0.000 NA
ATOM      4  C   UNL     1      -0.854  11.275  20.970  0.00  0.00    +0.000 A 
ATOM      5  C   UNL     1      -1.647  12.055  21.788  0.00  0.00    +0.000 A 
ATOM      6  C   UNL     1      -1.306  11.667  23.099  0.00  0.00    +0.000 A 
ATOM      7  N   UNL     1      -0.375  10.714  23.136  0.00  0.00    +0.000 NA
ATOM      8  N   UNL     1      -0.102  10.467  21.834  0.00  0.00    +0.000 N 
ATOM      9  C   UNL     1       0.788   9.525  21.332  0.00  0.00    +0.000 A 
ENDROOT
BRANCH   1  13
ATOM     10  C   UNL     1       3.355   6.354  18.233  0.00  0.00    +0.000 A 
ATOM     11  C   UNL     1       3.067   7.540  17.552  0.00  0.00    +0.000 A 
ATOM     12  C   UNL     1       2.291   8.529  18.149  0.00  0.00    +0.000 A 
ATOM     13  C   UNL     1       1.789   8.345  19.437  0.00  0.00    +0.000 A 
ATOM     14  C   UNL     1       2.073   7.164  20.128  0.00  0.00    +0.000 A 
ATOM     15  C   UNL     1       2.855   6.174  19.525  0.00  0.00    +0.000 A 
BRANCH  10  16
ATOM     16  O   UNL     1       4.102   5.319  17.725  0.00  0.00    +0.000 OA
BRANCH  16  17
ATOM     17  C   UNL     1       4.604   4.410  18.710  0.00  0.00    +0.000 C 
BRANCH  17  18
ATOM     18  C   UNL     1       3.976   3.034  18.538  0.00  0.00    +0.000 C 
BRANCH  18  19
ATOM     19  C   UNL     1       3.408   2.514  19.867  0.00  0.00    +0.000 C 
BRANCH  19  21
ATOM     20  C   UNL     1       1.302   2.906  21.034  0.00  0.00    +0.000 C 
ATOM     21  N   UNL     1       1.947   2.306  19.865  0.00  0.00    +0.000 NA
ATOM     22  C   UNL     1       1.358   2.855  18.640  0.00  0.00    +0.000 C 
ENDBRANCH  19  21
ENDBRANCH  18  19
ENDBRANCH  17  18
ENDBRANCH  16  17
ENDBRANCH  10  16
ENDBRANCH   1  13
BRANCH   5  23
ATOM     23  C   UNL     1      -2.644  13.066  21.420  0.00  0.00    +0.000 A 
ATOM     24  C   UNL     1      -3.923  12.747  20.867  0.00  0.00    +0.000 A 
ATOM     25  C   UNL     1      -4.678  13.870  20.605  0.00  0.00    +0.000 A 
ATOM     26  S   UNL     1      -3.854  15.308  21.020  0.00  0.00    +0.000 S 
ATOM     27  C   UNL     1      -2.484  14.431  21.552  0.00  0.00    +0.000 A 
ENDBRANCH   5  23
TORSDOF 7
ENDMDL
MODEL 5
REMARK VINA RESULT:      -6.9      0.527      1.065
REMARK  Name = 
REMARK  9 active torsions:
REMARK  status: ('A' for Active; 'I' for Inactive)
REMARK    1  A    between atoms: C_1  and  N_2
REMARK    2  A    between atoms: N_2  and  C_3
REMARK    3  A    between atoms: N_2  and  C_4
REMARK    4  A    between atoms: C_4  and  C_5
REMARK    5  A    between atoms: C_5  and  C_6
REMARK    6  A    between atoms: C_6  and  O_7
REMARK    7  A    between atoms: O_7  and  C_8
REMARK    8  A    between atoms: C_11  and  C_12
REMARK    9  A    between atoms: C_16  and  C_17
REMARK                            x       y       z     vdW  Elec       q    Type
REMARK                         _______ _______ _______ _____ _____    ______ ____
ROOT
ATOM      1  C   UNL     1       0.741   9.570  19.963  0.00  0.00    +0.000 A 
ATOM      2  C   UNL     1      -0.165  10.413  19.127  0.00  0.00    +0.000 A 
ATOM      3  N   UNL     1      -1.020  11.287  19.568  0.00  0.00    +0.000 NA
ATOM      4  C   UNL     1      -1.080  11.436  20.932  0.00  0.00    +0.000 A 
ATOM      5  C   UNL     1      -1.861  12.224  21.755  0.00  0.00    +0.000 A 
ATOM      6  C   UNL     1      -1.444  11.906  23.062  0.00  0.00    +0.000 A 
ATOM      7  N   UNL     1      -0.479  10.988  23.095  0.00  0.00    +0.000 NA
ATOM      8  N   UNL     1      -0.259  10.693  21.791  0.00  0.00    +0.000 N 
ATOM      9  C   UNL     1       0.639   9.761  21.287  0.00  0.00    +0.000 A 
ENDROOT
BRANCH   1  13
ATOM     10  C   UNL     1       3.281   6.525  18.409  0.00  0.00    +0.000 A 
ATOM     11  C   UNL     1       2.711   6.412  19.680  0.00  0.00    +0.000 A 
ATOM     12  C   UNL     1       1.870   7.408  20.170  0.00  0.00    +0.000 A 
ATOM     13  C   UNL     1       1.591   8.534  19.396  0.00  0.00    +0.000 A 
ATOM     14  C   UNL     1       2.155   8.656  18.124  0.00  0.00    +0.000 A 
ATOM     15  C   UNL     1       2.997   7.652  17.635  0.00  0.00    +0.000 A 
BRANCH  10  16
ATOM     16  O   UNL     1       4.127   5.601  17.844  0.00  0.00    +0.000 OA
BRANCH  16  17
ATOM     17  C   UNL     1       4.806   4.765  18.787  0.00  0.00    +0.000 C 
BRANCH  17  18
ATOM     18  C   UNL     1       6.218   5.276  19.036  0.00  0.00    +0.000 C 
BRANCH  18  19
ATOM     19  C   UNL     1       7.208   4.688  18.019  0.00  0.00    +0.000 C 
BRANCH  19  21
ATOM     20  C   UNL     1       6.855   5.296  15.684  0.00  0.00    +0.000 C 
ATOM     21  N   UNL     1       7.571   5.606  16.922  0.00  0.00    +0.000 NA
ATOM     22  C   UNL     1       7.306   6.994  17.312  0.00  0.00    +0.000 C 
ENDBRANCH  19  21
ENDBRANCH  18  19
ENDBRANCH  17  18
ENDBRANCH  16  17
ENDBRANCH  10  16
ENDBRANCH   1  13
BRANCH   5  23
ATOM     23  C   UNL     1      -2.910  13.184  21.394  0.00  0.00    +0.000 A 
ATOM     24  C   UNL     1      -2.776  14.598  21.558  0.00  0.00    +0.000 A 
ATOM     25  C   UNL     1      -3.898  15.284  21.147  0.00  0.00    +0.000 A 
ATOM     26  S   UNL     1      -5.115  14.235  20.566  0.00  0.00    +0.000 S 
ATOM     27  C   UNL     1      -4.142  12.858  20.863  0.00  0.00    +0.000 A 
ENDBRANCH   5  23
TORSDOF 7
ENDMDL
MODEL 6
REMARK VINA RESULT:      -6.8      4.302     10.323
REMARK  Name = 
REMARK  9 active torsions:
REMARK  status: ('A' for Active; 'I' for Inactive)
REMARK    1  A    between atoms: C_1  and  N_2
REMARK    2  A    between atoms: N_2  and  C_3
REMARK    3  A    between atoms: N_2  and  C_4
REMARK    4  A    between atoms: C_4  and  C_5
REMARK    5  A    between atoms: C_5  and  C_6
REMARK    6  A    between atoms: C_6  and  O_7
REMARK    7  A    between atoms: O_7  and  C_8
REMARK    8  A    between atoms: C_11  and  C_12
REMARK    9  A    between atoms: C_16  and  C_17
REMARK                            x       y       z     vdW  Elec       q    Type
REMARK                         _______ _______ _______ _____ _____    ______ ____
ROOT
ATOM      1  C   UNL     1       1.901   8.054  19.319  0.00  0.00    +0.000 A 
ATOM      2  C   UNL     1       2.591   8.219  18.004  0.00  0.00    +0.000 A 
ATOM      3  N   UNL     1       3.427   7.379  17.469  0.00  0.00    +0.000 NA
ATOM      4  C   UNL     1       3.685   6.241  18.193  0.00  0.00    +0.000 A 
ATOM      5  C   UNL     1       4.515   5.159  17.974  0.00  0.00    +0.000 A 
ATOM      6  C   UNL     1       4.335   4.331  19.099  0.00  0.00    +0.000 A 
ATOM      7  N   UNL     1       3.469   4.829  19.981  0.00  0.00    +0.000 NA
ATOM      8  N   UNL     1       3.075   6.002  19.432  0.00  0.00    +0.000 N 
ATOM      9  C   UNL     1       2.191   6.924  19.979  0.00  0.00    +0.000 A 
ENDROOT
BRANCH   1  13
ATOM     10  C   UNL     1      -0.611  11.014  21.072  0.00  0.00    +0.000 A 
ATOM     11  C   UNL     1      -0.168   9.911  21.809  0.00  0.00    +0.000 A 
ATOM     12  C   UNL     1       0.664   8.959  21.228  0.00  0.00    +0.000 A 
ATOM     13  C   UNL     1       1.064   9.094  19.899  0.00  0.00    +0.000 A 
ATOM     14  C   UNL     1       0.629  10.193  19.153  0.00  0.00    +0.000 A 
ATOM     15  C   UNL     1      -0.205  11.148  19.742  0.00  0.00    +0.000 A 
BRANCH  10  16
ATOM     16  O   UNL     1      -1.439  11.998  21.554  0.00  0.00    +0.000 OA
BRANCH  16  17
ATOM     17  C   UNL     1      -1.520  12.058  22.982  0.00  0.00    +0.000 C 
BRANCH  17  18
ATOM     18  C   UNL     1      -2.968  12.205  23.429  0.00  0.00    +0.000 C 
BRANCH  18  19
ATOM     19  C   UNL     1      -3.851  12.732  22.288  0.00  0.00    +0.000 C 
BRANCH  19  21
ATOM     20  C   UNL     1      -5.925  13.043  23.534  0.00  0.00    +0.000 C 
ATOM     21  N   UNL     1      -5.277  12.371  22.406  0.00  0.00    +0.000 NA
ATOM     22  C   UNL     1      -5.987  12.694  21.165  0.00  0.00    +0.000 C 
ENDBRANCH  19  21
ENDBRANCH  18  19
ENDBRANCH  17  18
ENDBRANCH  16  17
ENDBRANCH  10  16
ENDBRANCH   1  13
BRANCH   5  23
ATOM     23  C   UNL     1       5.410   4.893  16.842  0.00  0.00    +0.000 A 
ATOM     24  C   UNL     1       6.823   5.109  16.886  0.00  0.00    +0.000 A 
ATOM     25  C   UNL     1       7.442   4.785  15.698  0.00  0.00    +0.000 A 
ATOM     26  S   UNL     1       6.331   4.225  14.527  0.00  0.00    +0.000 S 
ATOM     27  C   UNL     1       5.017   4.413  15.609  0.00  0.00    +0.000 A 
ENDBRANCH   5  23
TORSDOF 7
ENDMDL
MODEL 7
REMARK VINA RESULT:      -6.8      4.257     10.136
REMARK  Name = 
REMARK  9 active torsions:
REMARK  status: ('A' for Active; 'I' for Inactive)
REMARK    1  A    between atoms: C_1  and  N_2
REMARK    2  A    between atoms: N_2  and  C_3
REMARK    3  A    between atoms: N_2  and  C_4
REMARK    4  A    between atoms: C_4  and  C_5
REMARK    5  A    between atoms: C_5  and  C_6
REMARK    6  A    between atoms: C_6  and  O_7
REMARK    7  A    between atoms: O_7  and  C_8
REMARK    8  A    between atoms: C_11  and  C_12
REMARK    9  A    between atoms: C_16  and  C_17
REMARK                            x       y       z     vdW  Elec       q    Type
REMARK                         _______ _______ _______ _____ _____    ______ ____
ROOT
ATOM      1  C   UNL     1       1.123   8.454  20.451  0.00  0.00    +0.000 A 
ATOM      2  C   UNL     1       1.752   8.702  19.118  0.00  0.00    +0.000 A 
ATOM      3  N   UNL     1       2.475   7.857  18.445  0.00  0.00    +0.000 NA
ATOM      4  C   UNL     1       2.667   6.629  19.028  0.00  0.00    +0.000 A 
ATOM      5  C   UNL     1       3.380   5.510  18.643  0.00  0.00    +0.000 A 
ATOM      6  C   UNL     1       3.188   4.582  19.685  0.00  0.00    +0.000 A 
ATOM      7  N   UNL     1       2.422   5.052  20.668  0.00  0.00    +0.000 NA
ATOM      8  N   UNL     1       2.107   6.308  20.272  0.00  0.00    +0.000 N 
ATOM      9  C   UNL     1       1.345   7.237  20.969  0.00  0.00    +0.000 A 
ENDROOT
BRANCH   1  13
ATOM     10  C   UNL     1      -1.015  11.411  22.647  0.00  0.00    +0.000 A 
ATOM     11  C   UNL     1      -0.828  10.124  23.159  0.00  0.00    +0.000 A 
ATOM     12  C   UNL     1      -0.114   9.171  22.437  0.00  0.00    +0.000 A 
ATOM     13  C   UNL     1       0.420   9.492  21.190  0.00  0.00    +0.000 A 
ATOM     14  C   UNL     1       0.240  10.775  20.669  0.00  0.00    +0.000 A 
ATOM     15  C   UNL     1      -0.476  11.730  21.398  0.00  0.00    +0.000 A 
BRANCH  10  16
ATOM     16  O   UNL     1      -1.711  12.413  23.279  0.00  0.00    +0.000 OA
BRANCH  16  17
ATOM     17  C   UNL     1      -3.130  12.347  23.110  0.00  0.00    +0.000 C 
BRANCH  17  18
ATOM     18  C   UNL     1      -3.621  13.506  22.255  0.00  0.00    +0.000 C 
BRANCH  18  19
ATOM     19  C   UNL     1      -4.609  13.025  21.181  0.00  0.00    +0.000 C 
BRANCH  19  21
ATOM     20  C   UNL     1      -6.682  13.162  22.459  0.00  0.00    +0.000 C 
ATOM     21  N   UNL     1      -5.774  12.291  21.711  0.00  0.00    +0.000 NA
ATOM     22  C   UNL     1      -6.503  11.638  20.620  0.00  0.00    +0.000 C 
ENDBRANCH  19  21
ENDBRANCH  18  19
ENDBRANCH  17  18
ENDBRANCH  16  17
ENDBRANCH  10  16
ENDBRANCH   1  13
BRANCH   5  23
ATOM     23  C   UNL     1       4.182   5.294  17.433  0.00  0.00    +0.000 A 
ATOM     24  C   UNL     1       4.385   4.009  16.840  0.00  0.00    +0.000 A 
ATOM     25  C   UNL     1       5.175   4.069  15.713  0.00  0.00    +0.000 A 
ATOM     26  S   UNL     1       5.677   5.665  15.365  0.00  0.00    +0.000 S 
ATOM     27  C   UNL     1       4.837   6.281  16.723  0.00  0.00    +0.000 A 
ENDBRANCH   5  23
TORSDOF 7
ENDMDL
MODEL 8
REMARK VINA RESULT:      -6.8      2.290      3.313
REMARK  Name = 
REMARK  9 active torsions:
REMARK  status: ('A' for Active; 'I' for Inactive)
REMARK    1  A    between atoms: C_1  and  N_2
REMARK    2  A    between atoms: N_2  and  C_3
REMARK    3  A    between atoms: N_2  and  C_4
REMARK    4  A    between atoms: C_4  and  C_5
REMARK    5  A    between atoms: C_5  and  C_6
REMARK    6  A    between atoms: C_6  and  O_7
REMARK    7  A    between atoms: O_7  and  C_8
REMARK    8  A    between atoms: C_11  and  C_12
REMARK    9  A    between atoms: C_16  and  C_17
REMARK                            x       y       z     vdW  Elec       q    Type
REMARK                         _______ _______ _______ _____ _____    ______ ____
ROOT
ATOM      1  C   UNL     1       0.461   9.692  20.376  0.00  0.00    +0.000 A 
ATOM      2  C   UNL     1       0.611  10.161  21.786  0.00  0.00    +0.000 A 
ATOM      3  N   UNL     1      -0.056  11.127  22.345  0.00  0.00    +0.000 NA
ATOM      4  C   UNL     1      -0.980  11.761  21.551  0.00  0.00    +0.000 A 
ATOM      5  C   UNL     1      -1.837  12.821  21.774  0.00  0.00    +0.000 A 
ATOM      6  C   UNL     1      -2.518  12.998  20.554  0.00  0.00    +0.000 A 
ATOM      7  N   UNL     1      -2.139  12.133  19.613  0.00  0.00    +0.000 NA
ATOM      8  N   UNL     1      -1.192  11.379  20.219  0.00  0.00    +0.000 N 
ATOM      9  C   UNL     1      -0.457  10.347  19.650  0.00  0.00    +0.000 A 
ENDROOT
BRANCH   1  13
ATOM     10  C   UNL     1       2.934   6.733  18.567  0.00  0.00    +0.000 A 
ATOM     11  C   UNL     1       2.586   7.903  17.884  0.00  0.00    +0.000 A 
ATOM     12  C   UNL     1       1.789   8.868  18.492  0.00  0.00    +0.000 A 
ATOM     13  C   UNL     1       1.325   8.677  19.793  0.00  0.00    +0.000 A 
ATOM     14  C   UNL     1       1.667   7.513  20.485  0.00  0.00    +0.000 A 
ATOM     15  C   UNL     1       2.470   6.546  19.871  0.00  0.00    +0.000 A 
BRANCH  10  16
ATOM     16  O   UNL     1       3.705   5.722  18.048  0.00  0.00    +0.000 OA
BRANCH  16  17
ATOM     17  C   UNL     1       4.581   5.100  18.994  0.00  0.00    +0.000 C 
BRANCH  17  18
ATOM     18  C   UNL     1       4.533   3.586  18.852  0.00  0.00    +0.000 C 
BRANCH  18  19
ATOM     19  C   UNL     1       3.522   2.968  19.830  0.00  0.00    +0.000 C 
BRANCH  19  21
ATOM     20  C   UNL     1       1.114   3.068  19.458  0.00  0.00    +0.000 C 
ATOM     21  N   UNL     1       2.354   2.341  19.182  0.00  0.00    +0.000 NA
ATOM     22  C   UNL     1       2.563   2.253  17.734  0.00  0.00    +0.000 C 
ENDBRANCH  19  21
ENDBRANCH  18  19
ENDBRANCH  17  18
ENDBRANCH  16  17
ENDBRANCH  10  16
ENDBRANCH   1  13
BRANCH   5  23
ATOM     23  C   UNL     1      -2.022  13.623  22.989  0.00  0.00    +0.000 A 
ATOM     24  C   UNL     1      -3.220  13.608  23.768  0.00  0.00    +0.000 A 
ATOM     25  C   UNL     1      -3.148  14.446  24.860  0.00  0.00    +0.000 A 
ATOM     26  S   UNL     1      -1.645  15.254  24.951  0.00  0.00    +0.000 S 
ATOM     27  C   UNL     1      -1.086  14.482  23.528  0.00  0.00    +0.000 A 
ENDBRANCH   5  23
TORSDOF 7
ENDMDL
MODEL 9
REMARK VINA RESULT:      -6.8      2.748      4.106
REMARK  Name = 
REMARK  9 active torsions:
REMARK  status: ('A' for Active; 'I' for Inactive)
REMARK    1  A    between atoms: C_1  and  N_2
REMARK    2  A    between atoms: N_2  and  C_3
REMARK    3  A    between atoms: N_2  and  C_4
REMARK    4  A    between atoms: C_4  and  C_5
REMARK    5  A    between atoms: C_5  and  C_6
REMARK    6  A    between atoms: C_6  and  O_7
REMARK    7  A    between atoms: O_7  and  C_8
REMARK    8  A    between atoms: C_11  and  C_12
REMARK    9  A    between atoms: C_16  and  C_17
REMARK                            x       y       z     vdW  Elec       q    Type
REMARK                         _______ _______ _______ _____ _____    ______ ____
ROOT
ATOM      1  C   UNL     1       2.936   7.463  18.424  0.00  0.00    +0.000 A 
ATOM      2  C   UNL     1       2.329   8.652  17.753  0.00  0.00    +0.000 A 
ATOM      3  N   UNL     1       1.415   9.428  18.253  0.00  0.00    +0.000 NA
ATOM      4  C   UNL     1       0.979   9.111  19.516  0.00  0.00    +0.000 A 
ATOM      5  C   UNL     1       0.024   9.667  20.346  0.00  0.00    +0.000 A 
ATOM      6  C   UNL     1       0.046   8.870  21.507  0.00  0.00    +0.000 A 
ATOM      7  N   UNL     1       0.932   7.877  21.443  0.00  0.00    +0.000 NA
ATOM      8  N   UNL     1       1.500   8.017  20.222  0.00  0.00    +0.000 N 
ATOM      9  C   UNL     1       2.472   7.204  19.655  0.00  0.00    +0.000 A 
ENDROOT
BRANCH   1  13
ATOM     10  C   UNL     1       5.676   4.800  16.543  0.00  0.00    +0.000 A 
ATOM     11  C   UNL     1       4.515   4.326  17.161  0.00  0.00    +0.000 A 
ATOM     12  C   UNL     1       3.620   5.209  17.759  0.00  0.00    +0.000 A 
ATOM     13  C   UNL     1       3.876   6.580  17.751  0.00  0.00    +0.000 A 
ATOM     14  C   UNL     1       5.033   7.064  17.135  0.00  0.00    +0.000 A 
ATOM     15  C   UNL     1       5.927   6.174  16.533  0.00  0.00    +0.000 A 
BRANCH  10  16
ATOM     16  O   UNL     1       6.620   4.008  15.936  0.00  0.00    +0.000 OA
BRANCH  16  17
ATOM     17  C   UNL     1       6.900   4.356  14.576  0.00  0.00    +0.000 C 
BRANCH  17  18
ATOM     18  C   UNL     1       5.717   4.013  13.682  0.00  0.00    +0.000 C 
BRANCH  18  19
ATOM     19  C   UNL     1       6.185   3.427  12.341  0.00  0.00    +0.000 C 
BRANCH  19  21
ATOM     20  C   UNL     1       4.226   2.929  10.976  0.00  0.00    +0.000 C 
ATOM     21  N   UNL     1       5.305   2.375  11.796  0.00  0.00    +0.000 NA
ATOM     22  C   UNL     1       6.086   1.420  11.005  0.00  0.00    +0.000 C 
ENDBRANCH  19  21
ENDBRANCH  18  19
ENDBRANCH  17  18
ENDBRANCH  16  17
ENDBRANCH  10  16
ENDBRANCH   1  13
BRANCH   5  23
ATOM     23  C   UNL     1      -0.849  10.822  20.109  0.00  0.00    +0.000 A 
ATOM     24  C   UNL     1      -1.000  11.900  21.036  0.00  0.00    +0.000 A 
ATOM     25  C   UNL     1      -1.876  12.863  20.584  0.00  0.00    +0.000 A 
ATOM     26  S   UNL     1      -2.521  12.475  19.050  0.00  0.00    +0.000 S 
ATOM     27  C   UNL     1      -1.628  11.016  18.986  0.00  0.00    +0.000 A 
ENDBRANCH   5  23
TORSDOF 7
ENDMDL
