MODEL 1
REMARK VINA RESULT:      -7.4      0.000      0.000
REMARK  Name = 
REMARK  8 active torsions:
REMARK  status: ('A' for Active; 'I' for Inactive)
REMARK    1  A    between atoms: C_2  and  C_32
REMARK    2  A    between atoms: N_3  and  C_4
REMARK    3  A    between atoms: C_4  and  C_5
REMARK    4  A    between atoms: N_7  and  C_8
REMARK    5  A    between atoms: N_7  and  C_17
REMARK    6  A    between atoms: C_17  and  C_18
REMARK    7  A    between atoms: C_17  and  C_26
REMARK    8  A    between atoms: N_20  and  C_21
REMARK                            x       y       z     vdW  Elec       q    Type
REMARK                         _______ _______ _______ _____ _____    ______ ____
ROOT
ATOM      1  C   UNL     1       0.150   9.348  20.840  0.00  0.00    +0.000 C 
ATOM      2  O   UNL     1      -0.769   8.615  21.224  0.00  0.00    +0.000 OA
ATOM      3  N   UNL     1      -0.089  10.642  20.352  0.00  0.00    +0.000 N 
ENDROOT
BRANCH   3   4
ATOM      4  C   UNL     1       0.975  11.489  19.860  0.00  0.00    +0.000 A 
ATOM      5  C   UNL     1       1.501  11.379  18.543  0.00  0.00    +0.000 A 
ATOM      6  C   UNL     1       2.495  12.256  18.060  0.00  0.00    +0.000 A 
ATOM      7  C   UNL     1       2.877  13.297  18.871  0.00  0.00    +0.000 A 
ATOM      8  C   UNL     1       2.360  13.430  20.132  0.00  0.00    +0.000 A 
ATOM      9  C   UNL     1       1.488  12.506  20.676  0.00  0.00    +0.000 A 
ATOM     10  O   UNL     1       2.822  14.539  20.771  0.00  0.00    +0.000 OA
ATOM     11  C   UNL     1       3.770  15.031  19.803  0.00  0.00    +0.000 C 
ATOM     12  O   UNL     1       3.774  14.275  18.573  0.00  0.00    +0.000 OA
ENDBRANCH   3   4
BRANCH   1  13
ATOM     13  C   UNL     1       1.583   8.790  20.828  0.00  0.00    +0.000 C 
BRANCH  13  16
ATOM     14  O   UNL     1       2.664   7.278  18.837  0.00  0.00    +0.000 OA
ATOM     15  C   UNL     1       2.305   6.679  19.861  0.00  0.00    +0.000 C 
ATOM     16  N   UNL     1       1.737   7.356  20.918  0.00  0.00    +0.000 N 
ATOM     17  H   UNL     1       1.447   6.854  21.745  0.00  0.00    +0.000 HD
BRANCH  15  18
ATOM     18  C   UNL     1       2.463   5.248  19.999  0.00  0.00    +0.000 A 
ATOM     19  C   UNL     1       2.258   4.447  21.110  0.00  0.00    +0.000 A 
ATOM     20  C   UNL     1       2.624   3.134  20.745  0.00  0.00    +0.000 A 
ATOM     21  C   UNL     1       3.033   3.207  19.433  0.00  0.00    +0.000 A 
ATOM     22  O   UNL     1       2.908   4.477  18.957  0.00  0.00    +0.000 OA
ENDBRANCH  15  18
ENDBRANCH  13  16
ENDBRANCH   1  13
BRANCH   3  23
ATOM     23  C   UNL     1      -1.533  11.117  20.228  0.00  0.00    +0.000 C 
BRANCH  23  24
ATOM     24  C   UNL     1      -2.170  11.007  18.813  0.00  0.00    +0.000 A 
ATOM     25  C   UNL     1      -1.600  10.207  17.809  0.00  0.00    +0.000 A 
ATOM     26  C   UNL     1      -2.264   9.997  16.612  0.00  0.00    +0.000 A 
ATOM     27  N   UNL     1      -3.426  10.591  16.296  0.00  0.00    +0.000 NA
ATOM     28  C   UNL     1      -3.941  11.425  17.222  0.00  0.00    +0.000 A 
ATOM     29  C   UNL     1      -3.375  11.652  18.480  0.00  0.00    +0.000 A 
ENDBRANCH  23  24
BRANCH  23  30
ATOM     30  C   UNL     1      -1.760  12.542  20.868  0.00  0.00    +0.000 C 
ATOM     31  O   UNL     1      -1.781  13.561  20.213  0.00  0.00    +0.000 OA
ATOM     32  N   UNL     1      -1.981  12.566  22.238  0.00  0.00    +0.000 N 
ATOM     33  H   UNL     1      -2.059  11.680  22.740  0.00  0.00    +0.000 HD
BRANCH  32  34
ATOM     34  C   UNL     1      -2.330  13.797  22.903  0.00  0.00    +0.000 C 
ATOM     35  C   UNL     1      -3.494  13.644  23.876  0.00  0.00    +0.000 C 
ATOM     36  C   UNL     1      -3.400  14.902  24.729  0.00  0.00    +0.000 C 
ATOM     37  C   UNL     1      -1.915  15.266  24.769  0.00  0.00    +0.000 C 
ATOM     38  C   UNL     1      -1.214  14.321  23.795  0.00  0.00    +0.000 C 
ENDBRANCH  32  34
ENDBRANCH  23  30
ENDBRANCH   3  23
TORSDOF 8
ENDMDL
MODEL 2
REMARK VINA RESULT:      -7.3      0.764      1.243
REMARK  Name = 
REMARK  8 active torsions:
REMARK  status: ('A' for Active; 'I' for Inactive)
REMARK    1  A    between atoms: C_2  and  C_32
REMARK    2  A    between atoms: N_3  and  C_4
REMARK    3  A    between atoms: C_4  and  C_5
REMARK    4  A    between atoms: N_7  and  C_8
REMARK    5  A    between atoms: N_7  and  C_17
REMARK    6  A    between atoms: C_17  and  C_18
REMARK    7  A    between atoms: C_17  and  C_26
REMARK    8  A    between atoms: N_20  and  C_21
REMARK                            x       y       z     vdW  Elec       q    Type
REMARK                         _______ _______ _______ _____ _____    ______ ____
ROOT
ATOM      1  C   UNL     1       0.264   9.337  20.885  0.00  0.00    +0.000 C 
ATOM      2  O   UNL     1      -0.626   8.568  21.268  0.00  0.00    +0.000 OA
ATOM      3  N   UNL     1      -0.025  10.624  20.405  0.00  0.00    +0.000 N 
ENDROOT
BRANCH   3   4
ATOM      4  C   UNL     1       1.006  11.513  19.915  0.00  0.00    +0.000 A 
ATOM      5  C   UNL     1       1.464  11.493  18.569  0.00  0.00    +0.000 A 
ATOM      6  C   UNL     1       2.423  12.411  18.093  0.00  0.00    +0.000 A 
ATOM      7  C   UNL     1       2.838  13.403  18.948  0.00  0.00    +0.000 A 
ATOM      8  C   UNL     1       2.385  13.450  20.240  0.00  0.00    +0.000 A 
ATOM      9  C   UNL     1       1.551  12.483  20.767  0.00  0.00    +0.000 A 
ATOM     10  O   UNL     1       2.870  14.521  20.924  0.00  0.00    +0.000 OA
ATOM     11  C   UNL     1       3.762  15.085  19.943  0.00  0.00    +0.000 C 
ATOM     12  O   UNL     1       3.709  14.408  18.668  0.00  0.00    +0.000 OA
ENDBRANCH   3   4
BRANCH   1  13
ATOM     13  C   UNL     1       1.717   8.833  20.864  0.00  0.00    +0.000 C 
BRANCH  13  16
ATOM     14  O   UNL     1       2.530   8.264  18.328  0.00  0.00    +0.000 OA
ATOM     15  C   UNL     1       2.366   7.301  19.091  0.00  0.00    +0.000 C 
ATOM     16  N   UNL     1       1.946   7.487  20.389  0.00  0.00    +0.000 N 
ATOM     17  H   UNL     1       1.814   6.693  20.999  0.00  0.00    +0.000 HD
BRANCH  15  18
ATOM     18  C   UNL     1       2.606   5.941  18.661  0.00  0.00    +0.000 A 
ATOM     19  C   UNL     1       3.475   5.470  17.691  0.00  0.00    +0.000 A 
ATOM     20  C   UNL     1       3.276   4.076  17.602  0.00  0.00    +0.000 A 
ATOM     21  C   UNL     1       2.297   3.774  18.521  0.00  0.00    +0.000 A 
ATOM     22  O   UNL     1       1.907   4.891  19.195  0.00  0.00    +0.000 OA
ENDBRANCH  15  18
ENDBRANCH  13  16
ENDBRANCH   1  13
BRANCH   3  23
ATOM     23  C   UNL     1      -1.486  11.045  20.289  0.00  0.00    +0.000 C 
BRANCH  23  24
ATOM     24  C   UNL     1      -2.132  10.893  18.882  0.00  0.00    +0.000 A 
ATOM     25  C   UNL     1      -3.318  11.565  18.540  0.00  0.00    +0.000 A 
ATOM     26  C   UNL     1      -3.791  11.544  17.239  0.00  0.00    +0.000 A 
ATOM     27  N   UNL     1      -3.217  10.832  16.254  0.00  0.00    +0.000 NA
ATOM     28  C   UNL     1      -2.124  10.118  16.593  0.00  0.00    +0.000 A 
ATOM     29  C   UNL     1      -1.539  10.126  17.863  0.00  0.00    +0.000 A 
ENDBRANCH  23  24
BRANCH  23  30
ATOM     30  C   UNL     1      -1.757  12.470  20.912  0.00  0.00    +0.000 C 
ATOM     31  O   UNL     1      -1.836  13.476  20.242  0.00  0.00    +0.000 OA
ATOM     32  N   UNL     1      -1.948  12.508  22.285  0.00  0.00    +0.000 N 
ATOM     33  H   UNL     1      -1.977  11.629  22.804  0.00  0.00    +0.000 HD
BRANCH  32  34
ATOM     34  C   UNL     1      -2.334  13.735  22.939  0.00  0.00    +0.000 C 
ATOM     35  C   UNL     1      -3.386  13.533  24.023  0.00  0.00    +0.000 C 
ATOM     36  C   UNL     1      -3.316  14.828  24.820  0.00  0.00    +0.000 C 
ATOM     37  C   UNL     1      -1.868  15.307  24.706  0.00  0.00    +0.000 C 
ATOM     38  C   UNL     1      -1.186  14.381  23.702  0.00  0.00    +0.000 C 
ENDBRANCH  32  34
ENDBRANCH  23  30
ENDBRANCH   3  23
TORSDOF 8
ENDMDL
MODEL 3
REMARK VINA RESULT:      -7.0      4.466     10.978
REMARK  Name = 
REMARK  8 active torsions:
REMARK  status: ('A' for Active; 'I' for Inactive)
REMARK    1  A    between atoms: C_2  and  C_32
REMARK    2  A    between atoms: N_3  and  C_4
REMARK    3  A    between atoms: C_4  and  C_5
REMARK    4  A    between atoms: N_7  and  C_8
REMARK    5  A    between atoms: N_7  and  C_17
REMARK    6  A    between atoms: C_17  and  C_18
REMARK    7  A    between atoms: C_17  and  C_26
REMARK    8  A    between atoms: N_20  and  C_21
REMARK                            x       y       z     vdW  Elec       q    Type
REMARK                         _______ _______ _______ _____ _____    ______ ____
ROOT
ATOM      1  C   UNL     1       3.496   7.347  17.646  0.00  0.00    +0.000 C 
ATOM      2  O   UNL     1       4.200   8.191  17.079  0.00  0.00    +0.000 OA
ATOM      3  N   UNL     1       3.920   6.019  17.813  0.00  0.00    +0.000 N 
ENDROOT
BRANCH   3   4
ATOM      4  C   UNL     1       3.085   5.016  18.437  0.00  0.00    +0.000 A 
ATOM      5  C   UNL     1       2.372   4.036  17.692  0.00  0.00    +0.000 A 
ATOM      6  C   UNL     1       1.614   3.026  18.321  0.00  0.00    +0.000 A 
ATOM      7  C   UNL     1       1.663   2.950  19.692  0.00  0.00    +0.000 A 
ATOM      8  C   UNL     1       2.367   3.871  20.420  0.00  0.00    +0.000 A 
ATOM      9  C   UNL     1       3.005   4.948  19.834  0.00  0.00    +0.000 A 
ATOM     10  O   UNL     1       2.337   3.614  21.756  0.00  0.00    +0.000 OA
ATOM     11  C   UNL     1       1.444   2.483  21.791  0.00  0.00    +0.000 C 
ATOM     12  O   UNL     1       1.052   2.025  20.478  0.00  0.00    +0.000 OA
ENDBRANCH   3   4
BRANCH   1  13
ATOM     13  C   UNL     1       2.086   7.752  18.110  0.00  0.00    +0.000 C 
BRANCH  13  16
ATOM     14  O   UNL     1       1.051   9.273  20.118  0.00  0.00    +0.000 OA
ATOM     15  C   UNL     1       1.199   9.825  19.018  0.00  0.00    +0.000 C 
ATOM     16  N   UNL     1       1.704   9.135  17.939  0.00  0.00    +0.000 N 
ATOM     17  H   UNL     1       1.816   9.598  17.048  0.00  0.00    +0.000 HD
BRANCH  15  18
ATOM     18  C   UNL     1       0.850  11.214  18.813  0.00  0.00    +0.000 A 
ATOM     19  C   UNL     1      -0.391  11.780  18.574  0.00  0.00    +0.000 A 
ATOM     20  C   UNL     1      -0.183  13.160  18.369  0.00  0.00    +0.000 A 
ATOM     21  C   UNL     1       1.172  13.360  18.493  0.00  0.00    +0.000 A 
ATOM     22  O   UNL     1       1.807  12.194  18.797  0.00  0.00    +0.000 OA
ENDBRANCH  15  18
ENDBRANCH  13  16
ENDBRANCH   1  13
BRANCH   3  23
ATOM     23  C   UNL     1       5.257   5.602  17.208  0.00  0.00    +0.000 C 
BRANCH  23  24
ATOM     24  C   UNL     1       6.519   6.296  17.793  0.00  0.00    +0.000 A 
ATOM     25  C   UNL     1       7.017   7.495  17.255  0.00  0.00    +0.000 A 
ATOM     26  C   UNL     1       8.042   8.180  17.884  0.00  0.00    +0.000 A 
ATOM     27  N   UNL     1       8.678   7.722  18.976  0.00  0.00    +0.000 NA
ATOM     28  C   UNL     1       8.261   6.531  19.452  0.00  0.00    +0.000 A 
ATOM     29  C   UNL     1       7.195   5.798  18.922  0.00  0.00    +0.000 A 
ENDBRANCH  23  24
BRANCH  23  30
ATOM     30  C   UNL     1       5.243   5.633  15.630  0.00  0.00    +0.000 C 
ATOM     31  O   UNL     1       5.127   6.658  14.994  0.00  0.00    +0.000 OA
ATOM     32  N   UNL     1       5.420   4.413  14.995  0.00  0.00    +0.000 N 
ATOM     33  H   UNL     1       5.618   3.586  15.561  0.00  0.00    +0.000 HD
BRANCH  32  34
ATOM     34  C   UNL     1       5.557   4.345  13.561  0.00  0.00    +0.000 C 
ATOM     35  C   UNL     1       6.974   4.012  13.108  0.00  0.00    +0.000 C 
ATOM     36  C   UNL     1       6.785   3.590  11.658  0.00  0.00    +0.000 C 
ATOM     37  C   UNL     1       5.386   2.976  11.584  0.00  0.00    +0.000 C 
ATOM     38  C   UNL     1       4.736   3.222  12.944  0.00  0.00    +0.000 C 
ENDBRANCH  32  34
ENDBRANCH  23  30
ENDBRANCH   3  23
TORSDOF 8
ENDMDL
MODEL 4
REMARK VINA RESULT:      -7.0      2.206      4.972
REMARK  Name = 
REMARK  8 active torsions:
REMARK  status: ('A' for Active; 'I' for Inactive)
REMARK    1  A    between atoms: C_2  and  C_32
REMARK    2  A    between atoms: N_3  and  C_4
REMARK    3  A    between atoms: C_4  and  C_5
REMARK    4  A    between atoms: N_7  and  C_8
REMARK    5  A    between atoms: N_7  and  C_17
REMARK    6  A    between atoms: C_17  and  C_18
REMARK    7  A    between atoms: C_17  and  C_26
REMARK    8  A    between atoms: N_20  and  C_21
REMARK                            x       y       z     vdW  Elec       q    Type
REMARK                         _______ _______ _______ _____ _____    ______ ____
ROOT
ATOM      1  C   UNL     1      -0.011  11.888  20.940  0.00  0.00    +0.000 C 
ATOM      2  O   UNL     1       0.907  12.328  21.643  0.00  0.00    +0.000 OA
ATOM      3  N   UNL     1      -0.657  12.685  19.983  0.00  0.00    +0.000 N 
ENDROOT
BRANCH   3   4
ATOM      4  C   UNL     1      -1.761  12.192  19.189  0.00  0.00    +0.000 A 
ATOM      5  C   UNL     1      -3.117  12.299  19.604  0.00  0.00    +0.000 A 
ATOM      6  C   UNL     1      -4.184  11.871  18.786  0.00  0.00    +0.000 A 
ATOM      7  C   UNL     1      -3.883  11.433  17.519  0.00  0.00    +0.000 A 
ATOM      8  C   UNL     1      -2.583  11.349  17.097  0.00  0.00    +0.000 A 
ATOM      9  C   UNL     1      -1.515  11.634  17.927  0.00  0.00    +0.000 A 
ATOM     10  O   UNL     1      -2.479  10.936  15.805  0.00  0.00    +0.000 OA
ATOM     11  C   UNL     1      -3.861  10.669  15.497  0.00  0.00    +0.000 C 
ATOM     12  O   UNL     1      -4.764  11.030  16.566  0.00  0.00    +0.000 OA
ENDBRANCH   3   4
BRANCH   1  13
ATOM     13  C   UNL     1      -0.503  10.451  21.183  0.00  0.00    +0.000 C 
BRANCH  13  16
ATOM     14  O   UNL     1       1.462   8.884  22.231  0.00  0.00    +0.000 OA
ATOM     15  C   UNL     1       1.122   8.648  21.063  0.00  0.00    +0.000 C 
ATOM     16  N   UNL     1       0.145   9.394  20.442  0.00  0.00    +0.000 N 
ATOM     17  H   UNL     1      -0.119   9.191  19.489  0.00  0.00    +0.000 HD
BRANCH  15  18
ATOM     18  C   UNL     1       1.731   7.584  20.295  0.00  0.00    +0.000 A 
ATOM     19  C   UNL     1       1.862   6.241  20.609  0.00  0.00    +0.000 A 
ATOM     20  C   UNL     1       2.597   5.643  19.564  0.00  0.00    +0.000 A 
ATOM     21  C   UNL     1       2.876   6.653  18.671  0.00  0.00    +0.000 A 
ATOM     22  O   UNL     1       2.326   7.828  19.085  0.00  0.00    +0.000 OA
ENDBRANCH  15  18
ENDBRANCH  13  16
ENDBRANCH   1  13
BRANCH   3  23
ATOM     23  C   UNL     1      -0.257  14.153  19.868  0.00  0.00    +0.000 C 
BRANCH  23  24
ATOM     24  C   UNL     1       1.265  14.437  19.723  0.00  0.00    +0.000 A 
ATOM     25  C   UNL     1       2.033  13.839  18.709  0.00  0.00    +0.000 A 
ATOM     26  C   UNL     1       3.346  14.224  18.497  0.00  0.00    +0.000 A 
ATOM     27  N   UNL     1       3.992  15.109  19.274  0.00  0.00    +0.000 NA
ATOM     28  C   UNL     1       3.288  15.628  20.301  0.00  0.00    +0.000 A 
ATOM     29  C   UNL     1       1.942  15.347  20.556  0.00  0.00    +0.000 A 
ENDBRANCH  23  24
BRANCH  23  30
ATOM     30  C   UNL     1      -0.922  15.052  20.983  0.00  0.00    +0.000 C 
ATOM     31  O   UNL     1      -1.410  16.135  20.748  0.00  0.00    +0.000 OA
ATOM     32  N   UNL     1      -0.958  14.511  22.260  0.00  0.00    +0.000 N 
ATOM     33  H   UNL     1      -0.630  13.554  22.399  0.00  0.00    +0.000 HD
BRANCH  32  34
ATOM     34  C   UNL     1      -1.658  15.188  23.323  0.00  0.00    +0.000 C 
ATOM     35  C   UNL     1      -2.685  14.305  24.023  0.00  0.00    +0.000 C 
ATOM     36  C   UNL     1      -2.968  15.059  25.315  0.00  0.00    +0.000 C 
ATOM     37  C   UNL     1      -1.674  15.799  25.655  0.00  0.00    +0.000 C 
ATOM     38  C   UNL     1      -0.739  15.601  24.464  0.00  0.00    +0.000 C 
ENDBRANCH  32  34
ENDBRANCH  23  30
ENDBRANCH   3  23
TORSDOF 8
ENDMDL
MODEL 5
REMARK VINA RESULT:      -6.9      3.048      6.449
REMARK  Name = 
REMARK  8 active torsions:
REMARK  status: ('A' for Active; 'I' for Inactive)
REMARK    1  A    between atoms: C_2  and  C_32
REMARK    2  A    between atoms: N_3  and  C_4
REMARK    3  A    between atoms: C_4  and  C_5
REMARK    4  A    between atoms: N_7  and  C_8
REMARK    5  A    between atoms: N_7  and  C_17
REMARK    6  A    between atoms: C_17  and  C_18
REMARK    7  A    between atoms: C_17  and  C_26
REMARK    8  A    between atoms: N_20  and  C_21
REMARK                            x       y       z     vdW  Elec       q    Type
REMARK                         _______ _______ _______ _____ _____    ______ ____
ROOT
ATOM      1  C   UNL     1       0.056  11.988  21.434  0.00  0.00    +0.000 C 
ATOM      2  O   UNL     1       1.236  12.181  21.115  0.00  0.00    +0.000 OA
ATOM      3  N   UNL     1      -0.854  13.047  21.577  0.00  0.00    +0.000 N 
ENDROOT
BRANCH   3   4
ATOM      4  C   UNL     1      -2.224  12.834  21.991  0.00  0.00    +0.000 A 
ATOM      5  C   UNL     1      -2.609  12.732  23.357  0.00  0.00    +0.000 A 
ATOM      6  C   UNL     1      -3.958  12.589  23.744  0.00  0.00    +0.000 A 
ATOM      7  C   UNL     1      -4.915  12.651  22.760  0.00  0.00    +0.000 A 
ATOM      8  C   UNL     1      -4.560  12.775  21.444  0.00  0.00    +0.000 A 
ATOM      9  C   UNL     1      -3.241  12.781  21.029  0.00  0.00    +0.000 A 
ATOM     10  O   UNL     1      -5.638  12.862  20.618  0.00  0.00    +0.000 OA
ATOM     11  C   UNL     1      -6.713  12.673  21.560  0.00  0.00    +0.000 C 
ATOM     12  O   UNL     1      -6.262  12.588  22.930  0.00  0.00    +0.000 OA
ENDBRANCH   3   4
BRANCH   1  13
ATOM     13  C   UNL     1      -0.397  10.554  21.754  0.00  0.00    +0.000 C 
BRANCH  13  16
ATOM     14  O   UNL     1       1.760   9.027  22.411  0.00  0.00    +0.000 OA
ATOM     15  C   UNL     1       1.201   8.770  21.335  0.00  0.00    +0.000 C 
ATOM     16  N   UNL     1       0.109   9.495  20.912  0.00  0.00    +0.000 N 
ATOM     17  H   UNL     1      -0.336   9.275  20.032  0.00  0.00    +0.000 HD
BRANCH  15  18
ATOM     18  C   UNL     1       1.662   7.703  20.474  0.00  0.00    +0.000 A 
ATOM     19  C   UNL     1       1.682   6.338  20.705  0.00  0.00    +0.000 A 
ATOM     20  C   UNL     1       2.298   5.740  19.586  0.00  0.00    +0.000 A 
ATOM     21  C   UNL     1       2.622   6.771  18.735  0.00  0.00    +0.000 A 
ATOM     22  O   UNL     1       2.209   7.965  19.246  0.00  0.00    +0.000 OA
ENDBRANCH  15  18
ENDBRANCH  13  16
ENDBRANCH   1  13
BRANCH   3  23
ATOM     23  C   UNL     1      -0.344  14.474  21.406  0.00  0.00    +0.000 C 
BRANCH  23  24
ATOM     24  C   UNL     1      -0.998  15.549  22.320  0.00  0.00    +0.000 A 
ATOM     25  C   UNL     1      -2.157  16.240  21.931  0.00  0.00    +0.000 A 
ATOM     26  C   UNL     1      -2.814  17.075  22.819  0.00  0.00    +0.000 A 
ATOM     27  N   UNL     1      -2.359  17.346  24.054  0.00  0.00    +0.000 NA
ATOM     28  C   UNL     1      -1.202  16.750  24.407  0.00  0.00    +0.000 A 
ATOM     29  C   UNL     1      -0.502  15.846  23.603  0.00  0.00    +0.000 A 
ENDBRANCH  23  24
BRANCH  23  30
ATOM     30  C   UNL     1      -0.308  14.927  19.894  0.00  0.00    +0.000 C 
ATOM     31  O   UNL     1      -0.758  14.252  18.995  0.00  0.00    +0.000 OA
ATOM     32  N   UNL     1       0.235  16.180  19.647  0.00  0.00    +0.000 N 
ATOM     33  H   UNL     1       0.509  16.763  20.439  0.00  0.00    +0.000 HD
BRANCH  32  34
ATOM     34  C   UNL     1       0.196  16.747  18.322  0.00  0.00    +0.000 C 
ATOM     35  C   UNL     1      -0.881  17.813  18.156  0.00  0.00    +0.000 C 
ATOM     36  C   UNL     1      -0.465  18.532  16.880  0.00  0.00    +0.000 C 
ATOM     37  C   UNL     1       1.060  18.428  16.825  0.00  0.00    +0.000 C 
ATOM     38  C   UNL     1       1.470  17.501  17.967  0.00  0.00    +0.000 C 
ENDBRANCH  32  34
ENDBRANCH  23  30
ENDBRANCH   3  23
TORSDOF 8
ENDMDL
MODEL 6
REMARK VINA RESULT:      -6.9      2.390      6.164
REMARK  Name = 
REMARK  8 active torsions:
REMARK  status: ('A' for Active; 'I' for Inactive)
REMARK    1  A    between atoms: C_2  and  C_32
REMARK    2  A    between atoms: N_3  and  C_4
REMARK    3  A    between atoms: C_4  and  C_5
REMARK    4  A    between atoms: N_7  and  C_8
REMARK    5  A    between atoms: N_7  and  C_17
REMARK    6  A    between atoms: C_17  and  C_18
REMARK    7  A    between atoms: C_17  and  C_26
REMARK    8  A    between atoms: N_20  and  C_21
REMARK                            x       y       z     vdW  Elec       q    Type
REMARK                         _______ _______ _______ _____ _____    ______ ____
ROOT
ATOM      1  C   UNL     1      -0.925  10.963  18.690  0.00  0.00    +0.000 C 
ATOM      2  O   UNL     1      -1.404   9.875  19.033  0.00  0.00    +0.000 OA
ATOM      3  N   UNL     1       0.191  11.517  19.335  0.00  0.00    +0.000 N 
ENDROOT
BRANCH   3   4
ATOM      4  C   UNL     1       0.729  12.809  18.969  0.00  0.00    +0.000 A 
ATOM      5  C   UNL     1       0.028  14.027  19.189  0.00  0.00    +0.000 A 
ATOM      6  C   UNL     1       0.597  15.281  18.884  0.00  0.00    +0.000 A 
ATOM      7  C   UNL     1       1.902  15.304  18.456  0.00  0.00    +0.000 A 
ATOM      8  C   UNL     1       2.597  14.140  18.264  0.00  0.00    +0.000 A 
ATOM      9  C   UNL     1       2.018  12.896  18.426  0.00  0.00    +0.000 A 
ATOM     10  O   UNL     1       3.884  14.359  17.880  0.00  0.00    +0.000 OA
ATOM     11  C   UNL     1       3.886  15.794  17.751  0.00  0.00    +0.000 C 
ATOM     12  O   UNL     1       2.643  16.406  18.164  0.00  0.00    +0.000 OA
ENDBRANCH   3   4
BRANCH   1  13
ATOM     13  C   UNL     1      -1.626  11.759  17.575  0.00  0.00    +0.000 C 
BRANCH  13  16
ATOM     14  O   UNL     1      -3.827  10.496  16.587  0.00  0.00    +0.000 OA
ATOM     15  C   UNL     1      -4.026  11.496  17.293  0.00  0.00    +0.000 C 
ATOM     16  N   UNL     1      -2.976  12.207  17.829  0.00  0.00    +0.000 N 
ATOM     17  H   UNL     1      -3.154  13.021  18.400  0.00  0.00    +0.000 HD
BRANCH  15  18
ATOM     18  C   UNL     1      -5.363  11.963  17.589  0.00  0.00    +0.000 A 
ATOM     19  C   UNL     1      -6.254  11.517  18.550  0.00  0.00    +0.000 A 
ATOM     20  C   UNL     1      -7.447  12.249  18.377  0.00  0.00    +0.000 A 
ATOM     21  C   UNL     1      -7.220  13.100  17.320  0.00  0.00    +0.000 A 
ATOM     22  O   UNL     1      -5.947  12.962  16.855  0.00  0.00    +0.000 OA
ENDBRANCH  15  18
ENDBRANCH  13  16
ENDBRANCH   1  13
BRANCH   3  23
ATOM     23  C   UNL     1       0.774  10.784  20.539  0.00  0.00    +0.000 C 
BRANCH  23  24
ATOM     24  C   UNL     1       1.142   9.289  20.317  0.00  0.00    +0.000 A 
ATOM     25  C   UNL     1       1.824   8.862  19.165  0.00  0.00    +0.000 A 
ATOM     26  C   UNL     1       2.282   7.560  19.058  0.00  0.00    +0.000 A 
ATOM     27  N   UNL     1       2.043   6.613  19.980  0.00  0.00    +0.000 NA
ATOM     28  C   UNL     1       1.318   6.994  21.051  0.00  0.00    +0.000 A 
ATOM     29  C   UNL     1       0.866   8.298  21.276  0.00  0.00    +0.000 A 
ENDBRANCH  23  24
BRANCH  23  30
ATOM     30  C   UNL     1      -0.082  10.992  21.849  0.00  0.00    +0.000 C 
ATOM     31  O   UNL     1       0.217  10.501  22.914  0.00  0.00    +0.000 OA
ATOM     32  N   UNL     1      -1.191  11.818  21.727  0.00  0.00    +0.000 N 
ATOM     33  H   UNL     1      -1.354  12.297  20.840  0.00  0.00    +0.000 HD
BRANCH  32  34
ATOM     34  C   UNL     1      -1.965  12.182  22.888  0.00  0.00    +0.000 C 
ATOM     35  C   UNL     1      -1.581  13.541  23.464  0.00  0.00    +0.000 C 
ATOM     36  C   UNL     1      -2.760  13.882  24.364  0.00  0.00    +0.000 C 
ATOM     37  C   UNL     1      -3.977  13.213  23.724  0.00  0.00    +0.000 C 
ATOM     38  C   UNL     1      -3.445  12.357  22.577  0.00  0.00    +0.000 C 
ENDBRANCH  32  34
ENDBRANCH  23  30
ENDBRANCH   3  23
TORSDOF 8
ENDMDL
MODEL 7
REMARK VINA RESULT:      -6.9      2.052      2.369
REMARK  Name = 
REMARK  8 active torsions:
REMARK  status: ('A' for Active; 'I' for Inactive)
REMARK    1  A    between atoms: C_2  and  C_32
REMARK    2  A    between atoms: N_3  and  C_4
REMARK    3  A    between atoms: C_4  and  C_5
REMARK    4  A    between atoms: N_7  and  C_8
REMARK    5  A    between atoms: N_7  and  C_17
REMARK    6  A    between atoms: C_17  and  C_18
REMARK    7  A    between atoms: C_17  and  C_26
REMARK    8  A    between atoms: N_20  and  C_21
REMARK                            x       y       z     vdW  Elec       q    Type
REMARK                         _______ _______ _______ _____ _____    ______ ____
ROOT
ATOM      1  C   UNL     1       0.192  10.126  20.418  0.00  0.00    +0.000 C 
ATOM      2  O   UNL     1      -0.783   9.426  20.716  0.00  0.00    +0.000 OA
ATOM      3  N   UNL     1       0.076  11.509  20.210  0.00  0.00    +0.000 N 
ENDROOT
BRANCH   3   4
ATOM      4  C   UNL     1       1.203  12.327  19.819  0.00  0.00    +0.000 A 
ATOM      5  C   UNL     1       1.499  12.632  18.461  0.00  0.00    +0.000 A 
ATOM      6  C   UNL     1       2.564  13.485  18.103  0.00  0.00    +0.000 A 
ATOM      7  C   UNL     1       3.258  14.101  19.116  0.00  0.00    +0.000 A 
ATOM      8  C   UNL     1       2.966  13.836  20.428  0.00  0.00    +0.000 A 
ATOM      9  C   UNL     1       2.018  12.903  20.802  0.00  0.00    +0.000 A 
ATOM     10  O   UNL     1       3.725  14.568  21.289  0.00  0.00    +0.000 OA
ATOM     11  C   UNL     1       4.600  15.246  20.366  0.00  0.00    +0.000 C 
ATOM     12  O   UNL     1       4.276  14.992  18.981  0.00  0.00    +0.000 OA
ENDBRANCH   3   4
BRANCH   1  13
ATOM     13  C   UNL     1       1.552   9.441  20.195  0.00  0.00    +0.000 C 
BRANCH  13  16
ATOM     14  O   UNL     1       2.619   7.594  18.503  0.00  0.00    +0.000 OA
ATOM     15  C   UNL     1       2.212   7.179  19.598  0.00  0.00    +0.000 C 
ATOM     16  N   UNL     1       1.647   8.036  20.516  0.00  0.00    +0.000 N 
ATOM     17  H   UNL     1       1.317   7.683  21.403  0.00  0.00    +0.000 HD
BRANCH  15  18
ATOM     18  C   UNL     1       2.310   5.784  19.966  0.00  0.00    +0.000 A 
ATOM     19  C   UNL     1       1.409   4.995  20.661  0.00  0.00    +0.000 A 
ATOM     20  C   UNL     1       2.008   3.729  20.825  0.00  0.00    +0.000 A 
ATOM     21  C   UNL     1       3.242   3.814  20.222  0.00  0.00    +0.000 A 
ATOM     22  O   UNL     1       3.424   5.045  19.666  0.00  0.00    +0.000 OA
ENDBRANCH  15  18
ENDBRANCH  13  16
ENDBRANCH   1  13
BRANCH   3  23
ATOM     23  C   UNL     1      -1.310  12.141  20.284  0.00  0.00    +0.000 C 
BRANCH  23  24
ATOM     24  C   UNL     1      -2.239  11.899  19.060  0.00  0.00    +0.000 A 
ATOM     25  C   UNL     1      -1.724  11.517  17.809  0.00  0.00    +0.000 A 
ATOM     26  C   UNL     1      -2.573  11.153  16.778  0.00  0.00    +0.000 A 
ATOM     27  N   UNL     1      -3.912  11.217  16.863  0.00  0.00    +0.000 NA
ATOM     28  C   UNL     1      -4.414  11.661  18.034  0.00  0.00    +0.000 A 
ATOM     29  C   UNL     1      -3.640  11.992  19.150  0.00  0.00    +0.000 A 
ENDBRANCH  23  24
BRANCH  23  30
ATOM     30  C   UNL     1      -1.261  13.665  20.695  0.00  0.00    +0.000 C 
ATOM     31  O   UNL     1      -1.130  14.032  21.841  0.00  0.00    +0.000 OA
ATOM     32  N   UNL     1      -1.332  14.579  19.654  0.00  0.00    +0.000 N 
ATOM     33  H   UNL     1      -1.338  14.233  18.693  0.00  0.00    +0.000 HD
BRANCH  32  34
ATOM     34  C   UNL     1      -1.163  15.989  19.903  0.00  0.00    +0.000 C 
ATOM     35  C   UNL     1      -0.665  16.759  18.685  0.00  0.00    +0.000 C 
ATOM     36  C   UNL     1      -0.963  18.208  19.044  0.00  0.00    +0.000 C 
ATOM     37  C   UNL     1      -2.199  18.165  19.945  0.00  0.00    +0.000 C 
ATOM     38  C   UNL     1      -2.473  16.691  20.230  0.00  0.00    +0.000 C 
ENDBRANCH  32  34
ENDBRANCH  23  30
ENDBRANCH   3  23
TORSDOF 8
ENDMDL
MODEL 8
REMARK VINA RESULT:      -6.8      2.073      5.260
REMARK  Name = 
REMARK  8 active torsions:
REMARK  status: ('A' for Active; 'I' for Inactive)
REMARK    1  A    between atoms: C_2  and  C_32
REMARK    2  A    between atoms: N_3  and  C_4
REMARK    3  A    between atoms: C_4  and  C_5
REMARK    4  A    between atoms: N_7  and  C_8
REMARK    5  A    between atoms: N_7  and  C_17
REMARK    6  A    between atoms: C_17  and  C_18
REMARK    7  A    between atoms: C_17  and  C_26
REMARK    8  A    between atoms: N_20  and  C_21
REMARK                            x       y       z     vdW  Elec       q    Type
REMARK                         _______ _______ _______ _____ _____    ______ ____
ROOT
ATOM      1  C   UNL     1       0.652   9.952  21.701  0.00  0.00    +0.000 C 
ATOM      2  O   UNL     1       1.190  10.083  22.807  0.00  0.00    +0.000 OA
ATOM      3  N   UNL     1       0.109  11.045  21.008  0.00  0.00    +0.000 N 
ENDROOT
BRANCH   3   4
ATOM      4  C   UNL     1      -0.561  10.895  19.736  0.00  0.00    +0.000 A 
ATOM      5  C   UNL     1       0.023  10.211  18.633  0.00  0.00    +0.000 A 
ATOM      6  C   UNL     1      -0.672  10.018  17.421  0.00  0.00    +0.000 A 
ATOM      7  C   UNL     1      -1.983  10.426  17.364  0.00  0.00    +0.000 A 
ATOM      8  C   UNL     1      -2.566  11.062  18.427  0.00  0.00    +0.000 A 
ATOM      9  C   UNL     1      -1.865  11.383  19.574  0.00  0.00    +0.000 A 
ATOM     10  O   UNL     1      -3.877  11.354  18.206  0.00  0.00    +0.000 OA
ATOM     11  C   UNL     1      -4.021  10.920  16.839  0.00  0.00    +0.000 C 
ATOM     12  O   UNL     1      -2.835  10.283  16.314  0.00  0.00    +0.000 OA
ENDBRANCH   3   4
BRANCH   1  13
ATOM     13  C   UNL     1       0.508   8.538  21.112  0.00  0.00    +0.000 C 
BRANCH  13  16
ATOM     14  O   UNL     1       1.228   5.916  20.967  0.00  0.00    +0.000 OA
ATOM     15  C   UNL     1       1.864   6.710  20.260  0.00  0.00    +0.000 C 
ATOM     16  N   UNL     1       1.581   8.057  20.273  0.00  0.00    +0.000 N 
ATOM     17  H   UNL     1       2.110   8.693  19.693  0.00  0.00    +0.000 HD
BRANCH  15  18
ATOM     18  C   UNL     1       2.930   6.265  19.389  0.00  0.00    +0.000 A 
ATOM     19  C   UNL     1       3.279   6.720  18.128  0.00  0.00    +0.000 A 
ATOM     20  C   UNL     1       4.339   5.907  17.675  0.00  0.00    +0.000 A 
ATOM     21  C   UNL     1       4.579   5.001  18.683  0.00  0.00    +0.000 A 
ATOM     22  O   UNL     1       3.755   5.230  19.743  0.00  0.00    +0.000 OA
ENDBRANCH  15  18
ENDBRANCH  13  16
ENDBRANCH   1  13
BRANCH   3  23
ATOM     23  C   UNL     1       0.124  12.414  21.682  0.00  0.00    +0.000 C 
BRANCH  23  24
ATOM     24  C   UNL     1      -1.066  12.721  22.635  0.00  0.00    +0.000 A 
ATOM     25  C   UNL     1      -1.195  13.965  23.275  0.00  0.00    +0.000 A 
ATOM     26  C   UNL     1      -2.338  14.276  23.991  0.00  0.00    +0.000 A 
ATOM     27  N   UNL     1      -3.344  13.408  24.193  0.00  0.00    +0.000 NA
ATOM     28  C   UNL     1      -3.192  12.182  23.651  0.00  0.00    +0.000 A 
ATOM     29  C   UNL     1      -2.103  11.798  22.862  0.00  0.00    +0.000 A 
ENDBRANCH  23  24
BRANCH  23  30
ATOM     30  C   UNL     1       0.381  13.590  20.660  0.00  0.00    +0.000 C 
ATOM     31  O   UNL     1      -0.476  14.386  20.347  0.00  0.00    +0.000 OA
ATOM     32  N   UNL     1       1.672  13.693  20.163  0.00  0.00    +0.000 N 
ATOM     33  H   UNL     1       2.392  13.068  20.527  0.00  0.00    +0.000 HD
BRANCH  32  34
ATOM     34  C   UNL     1       2.049  14.807  19.328  0.00  0.00    +0.000 C 
ATOM     35  C   UNL     1       3.055  15.741  19.991  0.00  0.00    +0.000 C 
ATOM     36  C   UNL     1       3.600  16.550  18.822  0.00  0.00    +0.000 C 
ATOM     37  C   UNL     1       3.525  15.624  17.607  0.00  0.00    +0.000 C 
ATOM     38  C   UNL     1       2.776  14.375  18.063  0.00  0.00    +0.000 C 
ENDBRANCH  32  34
ENDBRANCH  23  30
ENDBRANCH   3  23
TORSDOF 8
ENDMDL
MODEL 9
REMARK VINA RESULT:      -6.8      1.895      5.891
REMARK  Name = 
REMARK  8 active torsions:
REMARK  status: ('A' for Active; 'I' for Inactive)
REMARK    1  A    between atoms: C_2  and  C_32
REMARK    2  A    between atoms: N_3  and  C_4
REMARK    3  A    between atoms: C_4  and  C_5
REMARK    4  A    between atoms: N_7  and  C_8
REMARK    5  A    between atoms: N_7  and  C_17
REMARK    6  A    between atoms: C_17  and  C_18
REMARK    7  A    between atoms: C_17  and  C_26
REMARK    8  A    between atoms: N_20  and  C_21
REMARK                            x       y       z     vdW  Elec       q    Type
REMARK                         _______ _______ _______ _____ _____    ______ ____
ROOT
ATOM      1  C   UNL     1       0.460  12.316  18.573  0.00  0.00    +0.000 C 
ATOM      2  O   UNL     1      -0.210  13.316  18.291  0.00  0.00    +0.000 OA
ATOM      3  N   UNL     1      -0.140  11.111  18.969  0.00  0.00    +0.000 N 
ENDROOT
BRANCH   3   4
ATOM      4  C   UNL     1       0.638   9.950  19.343  0.00  0.00    +0.000 A 
ATOM      5  C   UNL     1       0.631   9.409  20.659  0.00  0.00    +0.000 A 
ATOM      6  C   UNL     1       1.346   8.238  20.989  0.00  0.00    +0.000 A 
ATOM      7  C   UNL     1       1.977   7.567  19.970  0.00  0.00    +0.000 A 
ATOM      8  C   UNL     1       1.970   8.062  18.694  0.00  0.00    +0.000 A 
ATOM      9  C   UNL     1       1.392   9.276  18.373  0.00  0.00    +0.000 A 
ATOM     10  O   UNL     1       2.609   7.244  17.813  0.00  0.00    +0.000 OA
ATOM     11  C   UNL     1       3.108   6.228  18.704  0.00  0.00    +0.000 C 
ATOM     12  O   UNL     1       2.669   6.400  20.070  0.00  0.00    +0.000 OA
ENDBRANCH   3   4
BRANCH   1  13
ATOM     13  C   UNL     1       1.994  12.428  18.563  0.00  0.00    +0.000 C 
BRANCH  13  16
ATOM     14  O   UNL     1       1.833  12.747  21.262  0.00  0.00    +0.000 OA
ATOM     15  C   UNL     1       2.456  13.615  20.633  0.00  0.00    +0.000 C 
ATOM     16  N   UNL     1       2.583  13.546  19.264  0.00  0.00    +0.000 N 
ATOM     17  H   UNL     1       3.092  14.262  18.765  0.00  0.00    +0.000 HD
BRANCH  15  18
ATOM     18  C   UNL     1       3.079  14.737  21.301  0.00  0.00    +0.000 A 
ATOM     19  C   UNL     1       2.536  15.623  22.217  0.00  0.00    +0.000 A 
ATOM     20  C   UNL     1       3.533  16.578  22.506  0.00  0.00    +0.000 A 
ATOM     21  C   UNL     1       4.627  16.225  21.751  0.00  0.00    +0.000 A 
ATOM     22  O   UNL     1       4.377  15.089  21.042  0.00  0.00    +0.000 OA
ENDBRANCH  15  18
ENDBRANCH  13  16
ENDBRANCH   1  13
BRANCH   3  23
ATOM     23  C   UNL     1      -1.656  11.069  19.122  0.00  0.00    +0.000 C 
BRANCH  23  24
ATOM     24  C   UNL     1      -2.475  10.959  17.804  0.00  0.00    +0.000 A 
ATOM     25  C   UNL     1      -1.986  10.256  16.690  0.00  0.00    +0.000 A 
ATOM     26  C   UNL     1      -2.791  10.034  15.586  0.00  0.00    +0.000 A 
ATOM     27  N   UNL     1      -4.033  10.531  15.464  0.00  0.00    +0.000 NA
ATOM     28  C   UNL     1      -4.481  11.276  16.494  0.00  0.00    +0.000 A 
ATOM     29  C   UNL     1      -3.766  11.503  17.674  0.00  0.00    +0.000 A 
ENDBRANCH  23  24
BRANCH  23  30
ATOM     30  C   UNL     1      -2.202  12.214  20.062  0.00  0.00    +0.000 C 
ATOM     31  O   UNL     1      -3.335  12.637  19.993  0.00  0.00    +0.000 OA
ATOM     32  N   UNL     1      -1.317  12.691  21.018  0.00  0.00    +0.000 N 
ATOM     33  H   UNL     1      -0.406  12.241  21.114  0.00  0.00    +0.000 HD
BRANCH  32  34
ATOM     34  C   UNL     1      -1.753  13.641  22.012  0.00  0.00    +0.000 C 
ATOM     35  C   UNL     1      -1.372  13.241  23.433  0.00  0.00    +0.000 C 
ATOM     36  C   UNL     1      -1.544  14.535  24.216  0.00  0.00    +0.000 C 
ATOM     37  C   UNL     1      -1.245  15.661  23.225  0.00  0.00    +0.000 C 
ATOM     38  C   UNL     1      -1.087  15.002  21.857  0.00  0.00    +0.000 C 
ENDBRANCH  32  34
ENDBRANCH  23  30
ENDBRANCH   3  23
TORSDOF 8
ENDMDL
