MODEL 1
REMARK VINA RESULT:      -7.1      0.000      0.000
REMARK  Name = 
REMARK  6 active torsions:
REMARK  status: ('A' for Active; 'I' for Inactive)
REMARK    1  A    between atoms: C_1  and  C_2
REMARK    2  A    between atoms: C_6  and  C_7
REMARK    3  A    between atoms: C_7  and  N_8
REMARK    4  A    between atoms: N_8  and  C_9
REMARK    5  A    between atoms: C_11  and  C_12
REMARK    6  A    between atoms: C_18  and  C_19
REMARK                            x       y       z     vdW  Elec       q    Type
REMARK                         _______ _______ _______ _____ _____    ______ ____
ROOT
ATOM      1  C   UNL     1       2.816   6.126  18.484  0.00  0.00    +0.000 A 
ATOM      2  N   UNL     1       2.730   5.077  19.322  0.00  0.00    +0.000 NA
ATOM      3  C   UNL     1       2.157   5.233  20.530  0.00  0.00    +0.000 A 
ATOM      4  N   UNL     1       1.662   6.397  20.949  0.00  0.00    +0.000 NA
ATOM      5  C   UNL     1       1.771   7.430  20.099  0.00  0.00    +0.000 A 
ATOM      6 CL   UNL     1       1.090   8.869  20.763  0.00  0.00    +0.000 Cl
ATOM      7  C   UNL     1       2.341   7.380  18.841  0.00  0.00    +0.000 A 
ATOM      8  C   UNL     1       2.468   8.574  17.948  0.00  0.00    +0.000 C 
ENDROOT
BRANCH   3   9
ATOM      9  C   UNL     1       2.071   4.038  21.445  0.00  0.00    +0.000 C 
ATOM     10  C   UNL     1       1.208   2.857  21.063  0.00  0.00    +0.000 C 
ATOM     11  C   UNL     1       2.700   2.724  21.043  0.00  0.00    +0.000 C 
ENDBRANCH   3   9
BRANCH   1  12
ATOM     12  N   UNL     1       3.491   5.937  17.261  0.00  0.00    +0.000 N 
ATOM     13  H   UNL     1       2.890   6.141  16.472  0.00  0.00    +0.000 HD
BRANCH  12  14
ATOM     14  C   UNL     1       4.053   4.589  17.113  0.00  0.00    +0.000 C 
BRANCH  14  20
ATOM     15  C   UNL     1       6.194   4.006  14.777  0.00  0.00    +0.000 C 
ATOM     16  C   UNL     1       6.482   4.322  16.199  0.00  0.00    +0.000 A 
ATOM     17  N   UNL     1       7.807   4.404  16.602  0.00  0.00    +0.000 NA
ATOM     18  C   UNL     1       7.863   4.696  17.883  0.00  0.00    +0.000 A 
ATOM     19  S   UNL     1       6.360   4.867  18.683  0.00  0.00    +0.000 S 
ATOM     20  C   UNL     1       5.550   4.560  17.199  0.00  0.00    +0.000 A 
ENDBRANCH  14  20
ENDBRANCH  12  14
ENDBRANCH   1  12
TORSDOF 4
ENDMDL
MODEL 2
REMARK VINA RESULT:      -7.1      2.638      6.147
REMARK  Name = 
REMARK  6 active torsions:
REMARK  status: ('A' for Active; 'I' for Inactive)
REMARK    1  A    between atoms: C_1  and  C_2
REMARK    2  A    between atoms: C_6  and  C_7
REMARK    3  A    between atoms: C_7  and  N_8
REMARK    4  A    between atoms: N_8  and  C_9
REMARK    5  A    between atoms: C_11  and  C_12
REMARK    6  A    between atoms: C_18  and  C_19
REMARK                            x       y       z     vdW  Elec       q    Type
REMARK                         _______ _______ _______ _____ _____    ______ ____
ROOT
ATOM      1  C   UNL     1       6.213   4.444  17.902  0.00  0.00    +0.000 A 
ATOM      2  N   UNL     1       5.922   4.321  16.595  0.00  0.00    +0.000 NA
ATOM      3  C   UNL     1       6.340   5.260  15.727  0.00  0.00    +0.000 A 
ATOM      4  N   UNL     1       7.040   6.330  16.103  0.00  0.00    +0.000 NA
ATOM      5  C   UNL     1       7.307   6.435  17.413  0.00  0.00    +0.000 A 
ATOM      6 CL   UNL     1       8.217   7.859  17.761  0.00  0.00    +0.000 Cl
ATOM      7  C   UNL     1       6.923   5.532  18.387  0.00  0.00    +0.000 A 
ATOM      8  C   UNL     1       7.218   5.718  19.843  0.00  0.00    +0.000 C 
ENDROOT
BRANCH   3   9
ATOM      9  C   UNL     1       6.003   5.092  14.266  0.00  0.00    +0.000 C 
ATOM     10  C   UNL     1       7.057   4.599  13.302  0.00  0.00    +0.000 C 
ATOM     11  C   UNL     1       5.906   3.710  13.661  0.00  0.00    +0.000 C 
ENDBRANCH   3   9
BRANCH   1  12
ATOM     12  N   UNL     1       5.691   3.478  18.786  0.00  0.00    +0.000 N 
ATOM     13  H   UNL     1       6.283   2.658  18.829  0.00  0.00    +0.000 HD
BRANCH  12  14
ATOM     14  C   UNL     1       4.318   3.075  18.457  0.00  0.00    +0.000 C 
BRANCH  14  20
ATOM     15  C   UNL     1       2.793   5.905  18.239  0.00  0.00    +0.000 C 
ATOM     16  C   UNL     1       2.619   4.871  19.290  0.00  0.00    +0.000 A 
ATOM     17  N   UNL     1       1.693   5.101  20.297  0.00  0.00    +0.000 NA
ATOM     18  C   UNL     1       1.676   4.081  21.125  0.00  0.00    +0.000 A 
ATOM     19  S   UNL     1       2.764   2.807  20.775  0.00  0.00    +0.000 S 
ATOM     20  C   UNL     1       3.291   3.660  19.379  0.00  0.00    +0.000 A 
ENDBRANCH  14  20
ENDBRANCH  12  14
ENDBRANCH   1  12
TORSDOF 4
ENDMDL
MODEL 3
REMARK VINA RESULT:      -7.0      2.714      6.330
REMARK  Name = 
REMARK  6 active torsions:
REMARK  status: ('A' for Active; 'I' for Inactive)
REMARK    1  A    between atoms: C_1  and  C_2
REMARK    2  A    between atoms: C_6  and  C_7
REMARK    3  A    between atoms: C_7  and  N_8
REMARK    4  A    between atoms: N_8  and  C_9
REMARK    5  A    between atoms: C_11  and  C_12
REMARK    6  A    between atoms: C_18  and  C_19
REMARK                            x       y       z     vdW  Elec       q    Type
REMARK                         _______ _______ _______ _____ _____    ______ ____
ROOT
ATOM      1  C   UNL     1       5.419   4.027  17.018  0.00  0.00    +0.000 A 
ATOM      2  N   UNL     1       5.404   3.951  15.676  0.00  0.00    +0.000 NA
ATOM      3  C   UNL     1       6.050   4.880  14.948  0.00  0.00    +0.000 A 
ATOM      4  N   UNL     1       6.716   5.895  15.499  0.00  0.00    +0.000 NA
ATOM      5  C   UNL     1       6.705   5.955  16.839  0.00  0.00    +0.000 A 
ATOM      6 CL   UNL     1       7.602   7.309  17.420  0.00  0.00    +0.000 Cl
ATOM      7  C   UNL     1       6.072   5.057  17.679  0.00  0.00    +0.000 A 
ATOM      8  C   UNL     1       6.063   5.192  19.170  0.00  0.00    +0.000 C 
ENDROOT
BRANCH   3   9
ATOM      9  C   UNL     1       6.021   4.766  13.444  0.00  0.00    +0.000 C 
ATOM     10  C   UNL     1       7.034   3.897  12.734  0.00  0.00    +0.000 C 
ATOM     11  C   UNL     1       5.598   3.472  12.787  0.00  0.00    +0.000 C 
ENDBRANCH   3   9
BRANCH   1  12
ATOM     12  N   UNL     1       4.666   3.078  17.739  0.00  0.00    +0.000 N 
ATOM     13  H   UNL     1       4.953   2.133  17.516  0.00  0.00    +0.000 HD
BRANCH  12  14
ATOM     14  C   UNL     1       3.219   3.211  17.534  0.00  0.00    +0.000 C 
BRANCH  14  20
ATOM     15  C   UNL     1       2.539   6.179  18.589  0.00  0.00    +0.000 C 
ATOM     16  C   UNL     1       2.171   4.892  19.232  0.00  0.00    +0.000 A 
ATOM     17  N   UNL     1       1.436   4.927  20.408  0.00  0.00    +0.000 NA
ATOM     18  C   UNL     1       1.204   3.702  20.822  0.00  0.00    +0.000 A 
ATOM     19  S   UNL     1       1.855   2.444  19.861  0.00  0.00    +0.000 S 
ATOM     20  C   UNL     1       2.481   3.619  18.774  0.00  0.00    +0.000 A 
ENDBRANCH  14  20
ENDBRANCH  12  14
ENDBRANCH   1  12
TORSDOF 4
ENDMDL
MODEL 4
REMARK VINA RESULT:      -7.0      1.261      1.663
REMARK  Name = 
REMARK  6 active torsions:
REMARK  status: ('A' for Active; 'I' for Inactive)
REMARK    1  A    between atoms: C_1  and  C_2
REMARK    2  A    between atoms: C_6  and  C_7
REMARK    3  A    between atoms: C_7  and  N_8
REMARK    4  A    between atoms: N_8  and  C_9
REMARK    5  A    between atoms: C_11  and  C_12
REMARK    6  A    between atoms: C_18  and  C_19
REMARK                            x       y       z     vdW  Elec       q    Type
REMARK                         _______ _______ _______ _____ _____    ______ ____
ROOT
ATOM      1  C   UNL     1       2.962   6.348  18.522  0.00  0.00    +0.000 A 
ATOM      2  N   UNL     1       2.920   5.272  19.327  0.00  0.00    +0.000 NA
ATOM      3  C   UNL     1       2.254   5.337  20.494  0.00  0.00    +0.000 A 
ATOM      4  N   UNL     1       1.622   6.437  20.904  0.00  0.00    +0.000 NA
ATOM      5  C   UNL     1       1.689   7.499  20.089  0.00  0.00    +0.000 A 
ATOM      6 CL   UNL     1       0.831   8.849  20.736  0.00  0.00    +0.000 Cl
ATOM      7  C   UNL     1       2.347   7.541  18.873  0.00  0.00    +0.000 A 
ATOM      8  C   UNL     1       2.419   8.768  18.018  0.00  0.00    +0.000 C 
ENDROOT
BRANCH   3   9
ATOM      9  C   UNL     1       2.221   4.112  21.374  0.00  0.00    +0.000 C 
ATOM     10  C   UNL     1       1.260   2.987  21.062  0.00  0.00    +0.000 C 
ATOM     11  C   UNL     1       2.731   2.788  20.854  0.00  0.00    +0.000 C 
ENDBRANCH   3   9
BRANCH   1  12
ATOM     12  N   UNL     1       3.734   6.260  17.346  0.00  0.00    +0.000 N 
ATOM     13  H   UNL     1       3.161   6.372  16.518  0.00  0.00    +0.000 HD
BRANCH  12  14
ATOM     14  C   UNL     1       4.497   5.010  17.247  0.00  0.00    +0.000 C 
BRANCH  14  20
ATOM     15  C   UNL     1       7.276   6.635  17.373  0.00  0.00    +0.000 C 
ATOM     16  C   UNL     1       6.803   5.752  16.278  0.00  0.00    +0.000 A 
ATOM     17  N   UNL     1       7.627   5.563  15.179  0.00  0.00    +0.000 NA
ATOM     18  C   UNL     1       7.046   4.753  14.323  0.00  0.00    +0.000 A 
ATOM     19  S   UNL     1       5.490   4.188  14.757  0.00  0.00    +0.000 S 
ATOM     20  C   UNL     1       5.597   5.067  16.230  0.00  0.00    +0.000 A 
ENDBRANCH  14  20
ENDBRANCH  12  14
ENDBRANCH   1  12
TORSDOF 4
ENDMDL
MODEL 5
REMARK VINA RESULT:      -6.9      2.823      6.217
REMARK  Name = 
REMARK  6 active torsions:
REMARK  status: ('A' for Active; 'I' for Inactive)
REMARK    1  A    between atoms: C_1  and  C_2
REMARK    2  A    between atoms: C_6  and  C_7
REMARK    3  A    between atoms: C_7  and  N_8
REMARK    4  A    between atoms: N_8  and  C_9
REMARK    5  A    between atoms: C_11  and  C_12
REMARK    6  A    between atoms: C_18  and  C_19
REMARK                            x       y       z     vdW  Elec       q    Type
REMARK                         _______ _______ _______ _____ _____    ______ ____
ROOT
ATOM      1  C   UNL     1       6.111   4.444  17.863  0.00  0.00    +0.000 A 
ATOM      2  N   UNL     1       5.846   4.327  16.549  0.00  0.00    +0.000 NA
ATOM      3  C   UNL     1       6.320   5.247  15.689  0.00  0.00    +0.000 A 
ATOM      4  N   UNL     1       7.051   6.291  16.079  0.00  0.00    +0.000 NA
ATOM      5  C   UNL     1       7.290   6.391  17.395  0.00  0.00    +0.000 A 
ATOM      6 CL   UNL     1       8.244   7.781  17.761  0.00  0.00    +0.000 Cl
ATOM      7  C   UNL     1       6.850   5.506  18.362  0.00  0.00    +0.000 A 
ATOM      8  C   UNL     1       7.117   5.686  19.824  0.00  0.00    +0.000 C 
ENDROOT
BRANCH   3   9
ATOM      9  C   UNL     1       6.011   5.087  14.221  0.00  0.00    +0.000 C 
ATOM     10  C   UNL     1       7.078   4.577  13.279  0.00  0.00    +0.000 C 
ATOM     11  C   UNL     1       5.904   3.708  13.612  0.00  0.00    +0.000 C 
ENDBRANCH   3   9
BRANCH   1  12
ATOM     12  N   UNL     1       5.532   3.501  18.737  0.00  0.00    +0.000 N 
ATOM     13  H   UNL     1       6.121   2.685  18.842  0.00  0.00    +0.000 HD
BRANCH  12  14
ATOM     14  C   UNL     1       4.185   3.084  18.327  0.00  0.00    +0.000 C 
BRANCH  14  20
ATOM     15  C   UNL     1       1.153   2.104  18.804  0.00  0.00    +0.000 C 
ATOM     16  C   UNL     1       1.790   3.337  19.330  0.00  0.00    +0.000 A 
ATOM     17  N   UNL     1       1.037   4.178  20.137  0.00  0.00    +0.000 NA
ATOM     18  C   UNL     1       1.766   5.206  20.508  0.00  0.00    +0.000 A 
ATOM     19  S   UNL     1       3.369   5.250  19.910  0.00  0.00    +0.000 S 
ATOM     20  C   UNL     1       3.095   3.755  19.107  0.00  0.00    +0.000 A 
ENDBRANCH  14  20
ENDBRANCH  12  14
ENDBRANCH   1  12
TORSDOF 4
ENDMDL
MODEL 6
REMARK VINA RESULT:      -6.8      3.003      6.036
REMARK  Name = 
REMARK  6 active torsions:
REMARK  status: ('A' for Active; 'I' for Inactive)
REMARK    1  A    between atoms: C_1  and  C_2
REMARK    2  A    between atoms: C_6  and  C_7
REMARK    3  A    between atoms: C_7  and  N_8
REMARK    4  A    between atoms: N_8  and  C_9
REMARK    5  A    between atoms: C_11  and  C_12
REMARK    6  A    between atoms: C_18  and  C_19
REMARK                            x       y       z     vdW  Elec       q    Type
REMARK                         _______ _______ _______ _____ _____    ______ ____
ROOT
ATOM      1  C   UNL     1       6.238   4.467  17.951  0.00  0.00    +0.000 A 
ATOM      2  N   UNL     1       5.874   4.331  16.664  0.00  0.00    +0.000 NA
ATOM      3  C   UNL     1       6.218   5.276  15.770  0.00  0.00    +0.000 A 
ATOM      4  N   UNL     1       6.914   6.364  16.101  0.00  0.00    +0.000 NA
ATOM      5  C   UNL     1       7.254   6.481  17.393  0.00  0.00    +0.000 A 
ATOM      6 CL   UNL     1       8.149   7.927  17.684  0.00  0.00    +0.000 Cl
ATOM      7  C   UNL     1       6.950   5.573  18.391  0.00  0.00    +0.000 A 
ATOM      8  C   UNL     1       7.325   5.772  19.826  0.00  0.00    +0.000 C 
ENDROOT
BRANCH   3   9
ATOM      9  C   UNL     1       5.800   5.095  14.332  0.00  0.00    +0.000 C 
ATOM     10  C   UNL     1       6.775   4.518  13.331  0.00  0.00    +0.000 C 
ATOM     11  C   UNL     1       5.593   3.707  13.769  0.00  0.00    +0.000 C 
ENDBRANCH   3   9
BRANCH   1  12
ATOM     12  N   UNL     1       5.791   3.493  18.867  0.00  0.00    +0.000 N 
ATOM     13  H   UNL     1       5.549   2.629  18.398  0.00  0.00    +0.000 HD
BRANCH  12  14
ATOM     14  C   UNL     1       4.657   3.943  19.682  0.00  0.00    +0.000 C 
BRANCH  14  20
ATOM     15  C   UNL     1       2.727   5.850  17.945  0.00  0.00    +0.000 C 
ATOM     16  C   UNL     1       2.491   4.431  18.312  0.00  0.00    +0.000 A 
ATOM     17  N   UNL     1       1.334   3.815  17.859  0.00  0.00    +0.000 NA
ATOM     18  C   UNL     1       1.303   2.569  18.276  0.00  0.00    +0.000 A 
ATOM     19  S   UNL     1       2.623   2.064  19.240  0.00  0.00    +0.000 S 
ATOM     20  C   UNL     1       3.325   3.623  19.071  0.00  0.00    +0.000 A 
ENDBRANCH  14  20
ENDBRANCH  12  14
ENDBRANCH   1  12
TORSDOF 4
ENDMDL
MODEL 7
REMARK VINA RESULT:      -6.8      2.993      6.093
REMARK  Name = 
REMARK  6 active torsions:
REMARK  status: ('A' for Active; 'I' for Inactive)
REMARK    1  A    between atoms: C_1  and  C_2
REMARK    2  A    between atoms: C_6  and  C_7
REMARK    3  A    between atoms: C_7  and  N_8
REMARK    4  A    between atoms: N_8  and  C_9
REMARK    5  A    between atoms: C_11  and  C_12
REMARK    6  A    between atoms: C_18  and  C_19
REMARK                            x       y       z     vdW  Elec       q    Type
REMARK                         _______ _______ _______ _____ _____    ______ ____
ROOT
ATOM      1  C   UNL     1       4.283   4.494  17.248  0.00  0.00    +0.000 A 
ATOM      2  N   UNL     1       4.700   4.025  16.059  0.00  0.00    +0.000 NA
ATOM      3  C   UNL     1       5.983   4.194  15.688  0.00  0.00    +0.000 A 
ATOM      4  N   UNL     1       6.879   4.817  16.453  0.00  0.00    +0.000 NA
ATOM      5  C   UNL     1       6.435   5.286  17.628  0.00  0.00    +0.000 A 
ATOM      6 CL   UNL     1       7.693   6.065  18.515  0.00  0.00    +0.000 Cl
ATOM      7  C   UNL     1       5.142   5.169  18.103  0.00  0.00    +0.000 A 
ATOM      8  C   UNL     1       4.691   5.744  19.410  0.00  0.00    +0.000 C 
ENDROOT
BRANCH   3   9
ATOM      9  C   UNL     1       6.423   3.653  14.351  0.00  0.00    +0.000 C 
ATOM     10  C   UNL     1       5.590   3.923  13.118  0.00  0.00    +0.000 C 
ATOM     11  C   UNL     1       6.922   4.592  13.277  0.00  0.00    +0.000 C 
ENDBRANCH   3   9
BRANCH   1  12
ATOM     12  N   UNL     1       2.915   4.363  17.564  0.00  0.00    +0.000 N 
ATOM     13  H   UNL     1       2.634   5.032  18.270  0.00  0.00    +0.000 HD
BRANCH  12  14
ATOM     14  C   UNL     1       2.549   3.009  17.997  0.00  0.00    +0.000 C 
BRANCH  14  20
ATOM     15  C   UNL     1       4.667   2.053  20.229  0.00  0.00    +0.000 C 
ATOM     16  C   UNL     1       3.267   2.495  20.451  0.00  0.00    +0.000 A 
ATOM     17  N   UNL     1       2.785   2.533  21.752  0.00  0.00    +0.000 NA
ATOM     18  C   UNL     1       1.539   2.951  21.750  0.00  0.00    +0.000 A 
ATOM     19  S   UNL     1       0.862   3.299  20.217  0.00  0.00    +0.000 S 
ATOM     20  C   UNL     1       2.360   2.893  19.480  0.00  0.00    +0.000 A 
ENDBRANCH  14  20
ENDBRANCH  12  14
ENDBRANCH   1  12
TORSDOF 4
ENDMDL
MODEL 8
REMARK VINA RESULT:      -6.7      2.041      3.494
REMARK  Name = 
REMARK  6 active torsions:
REMARK  status: ('A' for Active; 'I' for Inactive)
REMARK    1  A    between atoms: C_1  and  C_2
REMARK    2  A    between atoms: C_6  and  C_7
REMARK    3  A    between atoms: C_7  and  N_8
REMARK    4  A    between atoms: N_8  and  C_9
REMARK    5  A    between atoms: C_11  and  C_12
REMARK    6  A    between atoms: C_18  and  C_19
REMARK                            x       y       z     vdW  Elec       q    Type
REMARK                         _______ _______ _______ _____ _____    ______ ____
ROOT
ATOM      1  C   UNL     1       2.841   6.294  18.614  0.00  0.00    +0.000 A 
ATOM      2  N   UNL     1       2.445   7.371  19.316  0.00  0.00    +0.000 NA
ATOM      3  C   UNL     1       1.730   7.207  20.443  0.00  0.00    +0.000 A 
ATOM      4  N   UNL     1       1.382   6.007  20.909  0.00  0.00    +0.000 NA
ATOM      5  C   UNL     1       1.778   4.951  20.185  0.00  0.00    +0.000 A 
ATOM      6 CL   UNL     1       1.266   3.466  20.899  0.00  0.00    +0.000 Cl
ATOM      7  C   UNL     1       2.512   5.007  19.015  0.00  0.00    +0.000 A 
ATOM      8  C   UNL     1       2.898   3.794  18.226  0.00  0.00    +0.000 C 
ENDROOT
BRANCH   3   9
ATOM      9  C   UNL     1       1.304   8.433  21.211  0.00  0.00    +0.000 C 
ATOM     10  C   UNL     1       0.366   9.433  20.575  0.00  0.00    +0.000 C 
ATOM     11  C   UNL     1      -0.120   8.570  21.699  0.00  0.00    +0.000 C 
ENDBRANCH   3   9
BRANCH   1  12
ATOM     12  N   UNL     1       3.522   6.514  17.400  0.00  0.00    +0.000 N 
ATOM     13  H   UNL     1       3.479   5.700  16.799  0.00  0.00    +0.000 HD
BRANCH  12  14
ATOM     14  C   UNL     1       4.924   6.910  17.587  0.00  0.00    +0.000 C 
BRANCH  14  20
ATOM     15  C   UNL     1       7.720   5.826  18.764  0.00  0.00    +0.000 C 
ATOM     16  C   UNL     1       7.097   5.473  17.464  0.00  0.00    +0.000 A 
ATOM     17  N   UNL     1       7.749   4.563  16.644  0.00  0.00    +0.000 NA
ATOM     18  C   UNL     1       7.049   4.373  15.548  0.00  0.00    +0.000 A 
ATOM     19  S   UNL     1       5.598   5.270  15.415  0.00  0.00    +0.000 S 
ATOM     20  C   UNL     1       5.897   5.956  16.962  0.00  0.00    +0.000 A 
ENDBRANCH  14  20
ENDBRANCH  12  14
ENDBRANCH   1  12
TORSDOF 4
ENDMDL
MODEL 9
REMARK VINA RESULT:      -6.7      2.429      5.772
REMARK  Name = 
REMARK  6 active torsions:
REMARK  status: ('A' for Active; 'I' for Inactive)
REMARK    1  A    between atoms: C_1  and  C_2
REMARK    2  A    between atoms: C_6  and  C_7
REMARK    3  A    between atoms: C_7  and  N_8
REMARK    4  A    between atoms: N_8  and  C_9
REMARK    5  A    between atoms: C_11  and  C_12
REMARK    6  A    between atoms: C_18  and  C_19
REMARK                            x       y       z     vdW  Elec       q    Type
REMARK                         _______ _______ _______ _____ _____    ______ ____
ROOT
ATOM      1  C   UNL     1       5.114   4.444  18.836  0.00  0.00    +0.000 A 
ATOM      2  N   UNL     1       5.915   4.070  17.822  0.00  0.00    +0.000 NA
ATOM      3  C   UNL     1       5.916   4.777  16.677  0.00  0.00    +0.000 A 
ATOM      4  N   UNL     1       5.146   5.849  16.490  0.00  0.00    +0.000 NA
ATOM      5  C   UNL     1       4.348   6.193  17.512  0.00  0.00    +0.000 A 
ATOM      6 CL   UNL     1       3.411   7.593  17.139  0.00  0.00    +0.000 Cl
ATOM      7  C   UNL     1       4.267   5.537  18.726  0.00  0.00    +0.000 A 
ATOM      8  C   UNL     1       3.331   5.944  19.820  0.00  0.00    +0.000 C 
ENDROOT
BRANCH   3   9
ATOM      9  C   UNL     1       6.828   4.337  15.560  0.00  0.00    +0.000 C 
ATOM     10  C   UNL     1       6.240   3.848  14.256  0.00  0.00    +0.000 C 
ATOM     11  C   UNL     1       6.947   5.168  14.303  0.00  0.00    +0.000 C 
ENDBRANCH   3   9
BRANCH   1  12
ATOM     12  N   UNL     1       5.088   3.631  19.988  0.00  0.00    +0.000 N 
ATOM     13  H   UNL     1       6.017   3.506  20.372  0.00  0.00    +0.000 HD
BRANCH  12  14
ATOM     14  C   UNL     1       4.473   2.318  19.756  0.00  0.00    +0.000 C 
BRANCH  14  20
ATOM     15  C   UNL     1       2.111   2.897  21.870  0.00  0.00    +0.000 C 
ATOM     16  C   UNL     1       1.971   2.652  20.412  0.00  0.00    +0.000 A 
ATOM     17  N   UNL     1       0.700   2.687  19.856  0.00  0.00    +0.000 NA
ATOM     18  C   UNL     1       0.775   2.454  18.565  0.00  0.00    +0.000 A 
ATOM     19  S   UNL     1       2.342   2.161  17.941  0.00  0.00    +0.000 S 
ATOM     20  C   UNL     1       2.995   2.392  19.514  0.00  0.00    +0.000 A 
ENDBRANCH  14  20
ENDBRANCH  12  14
ENDBRANCH   1  12
TORSDOF 4
ENDMDL
