MODEL 1
REMARK VINA RESULT:      -7.2      0.000      0.000
REMARK  Name = 
REMARK  4 active torsions:
REMARK  status: ('A' for Active; 'I' for Inactive)
REMARK    1  A    between atoms: C_2  and  C_12
REMARK    2  A    between atoms: N_3  and  C_4
REMARK    3  A    between atoms: C_4  and  C_5
REMARK    4  A    between atoms: C_5  and  N_6
REMARK                            x       y       z     vdW  Elec       q    Type
REMARK                         _______ _______ _______ _____ _____    ______ ____
ROOT
ATOM      1  N   UNL     1       7.376   6.328  16.653  0.00  0.00    +0.000 NA
ATOM      2  C   UNL     1       6.965   5.135  16.344  0.00  0.00    +0.000 C 
ATOM      3  N   UNL     1       6.605   4.202  17.305  0.00  0.00    +0.000 N 
ATOM      4  H   UNL     1       7.430   6.422  17.665  0.00  0.00    +0.000 HD
ATOM      5  H   UNL     1       6.171   3.378  16.879  0.00  0.00    +0.000 HD
ENDROOT
BRANCH   2   6
ATOM      6  C   UNL     1       6.854   4.784  14.880  0.00  0.00    +0.000 A 
ATOM      7  C   UNL     1       5.873   3.885  14.462  0.00  0.00    +0.000 A 
ATOM      8  C   UNL     1       5.810   3.552  13.117  0.00  0.00    +0.000 A 
ATOM      9  C   UNL     1       6.717   4.123  12.237  0.00  0.00    +0.000 A 
ATOM     10  C   UNL     1       7.662   5.010  12.744  0.00  0.00    +0.000 A 
ATOM     11  N   UNL     1       7.767   5.356  14.049  0.00  0.00    +0.000 NA
ENDBRANCH   2   6
BRANCH   3  12
ATOM     12  C   UNL     1       5.970   4.651  18.542  0.00  0.00    +0.000 C 
BRANCH  12  13
ATOM     13  C   UNL     1       4.697   3.881  18.947  0.00  0.00    +0.000 C 
BRANCH  13  14
ATOM     14  N   UNL     1       4.098   3.166  17.795  0.00  0.00    +0.000 NA
ATOM     15  C   UNL     1       3.064   3.973  17.108  0.00  0.00    +0.000 C 
ATOM     16  C   UNL     1       1.737   4.053  17.880  0.00  0.00    +0.000 C 
ATOM     17  O   UNL     1       1.207   2.746  18.142  0.00  0.00    +0.000 OA
ATOM     18  C   UNL     1       2.150   1.944  18.862  0.00  0.00    +0.000 C 
ATOM     19  C   UNL     1       3.496   1.855  18.125  0.00  0.00    +0.000 C 
ENDBRANCH  13  14
ENDBRANCH  12  13
ENDBRANCH   3  12
TORSDOF 4
ENDMDL
MODEL 2
REMARK VINA RESULT:      -7.1      0.836      1.420
REMARK  Name = 
REMARK  4 active torsions:
REMARK  status: ('A' for Active; 'I' for Inactive)
REMARK    1  A    between atoms: C_2  and  C_12
REMARK    2  A    between atoms: N_3  and  C_4
REMARK    3  A    between atoms: C_4  and  C_5
REMARK    4  A    between atoms: C_5  and  N_6
REMARK                            x       y       z     vdW  Elec       q    Type
REMARK                         _______ _______ _______ _____ _____    ______ ____
ROOT
ATOM      1  N   UNL     1       7.484   6.318  16.604  0.00  0.00    +0.000 NA
ATOM      2  C   UNL     1       7.076   5.135  16.254  0.00  0.00    +0.000 C 
ATOM      3  N   UNL     1       6.685   4.181  17.181  0.00  0.00    +0.000 N 
ATOM      4  H   UNL     1       7.508   6.387  17.619  0.00  0.00    +0.000 HD
ATOM      5  H   UNL     1       6.261   3.369  16.723  0.00  0.00    +0.000 HD
ENDROOT
BRANCH   2   6
ATOM      6  C   UNL     1       7.007   4.820  14.779  0.00  0.00    +0.000 A 
ATOM      7  C   UNL     1       6.109   3.853  14.326  0.00  0.00    +0.000 A 
ATOM      8  C   UNL     1       6.084   3.557  12.971  0.00  0.00    +0.000 A 
ATOM      9  C   UNL     1       6.945   4.229  12.117  0.00  0.00    +0.000 A 
ATOM     10  C   UNL     1       7.807   5.178  12.659  0.00  0.00    +0.000 A 
ATOM     11  N   UNL     1       7.873   5.493  13.974  0.00  0.00    +0.000 NA
ENDBRANCH   2   6
BRANCH   3  12
ATOM     12  C   UNL     1       6.016   4.603  18.410  0.00  0.00    +0.000 C 
BRANCH  12  13
ATOM     13  C   UNL     1       4.571   5.110  18.234  0.00  0.00    +0.000 C 
BRANCH  13  14
ATOM     14  N   UNL     1       3.636   4.439  19.168  0.00  0.00    +0.000 NA
ATOM     15  C   UNL     1       3.716   2.965  19.082  0.00  0.00    +0.000 C 
ATOM     16  C   UNL     1       3.040   2.386  17.829  0.00  0.00    +0.000 C 
ATOM     17  O   UNL     1       1.663   2.781  17.750  0.00  0.00    +0.000 OA
ATOM     18  C   UNL     1       1.536   4.208  17.768  0.00  0.00    +0.000 C 
ATOM     19  C   UNL     1       2.216   4.821  19.002  0.00  0.00    +0.000 C 
ENDBRANCH  13  14
ENDBRANCH  12  13
ENDBRANCH   3  12
TORSDOF 4
ENDMDL
MODEL 3
REMARK VINA RESULT:      -6.7      1.164      1.285
REMARK  Name = 
REMARK  4 active torsions:
REMARK  status: ('A' for Active; 'I' for Inactive)
REMARK    1  A    between atoms: C_2  and  C_12
REMARK    2  A    between atoms: N_3  and  C_4
REMARK    3  A    between atoms: C_4  and  C_5
REMARK    4  A    between atoms: C_5  and  N_6
REMARK                            x       y       z     vdW  Elec       q    Type
REMARK                         _______ _______ _______ _____ _____    ______ ____
ROOT
ATOM      1  N   UNL     1       7.481   5.716  16.931  0.00  0.00    +0.000 NA
ATOM      2  C   UNL     1       6.773   4.781  16.371  0.00  0.00    +0.000 C 
ATOM      3  N   UNL     1       5.943   3.943  17.100  0.00  0.00    +0.000 N 
ATOM      4  H   UNL     1       7.357   5.683  17.941  0.00  0.00    +0.000 HD
ATOM      5  H   UNL     1       5.359   3.370  16.483  0.00  0.00    +0.000 HD
ENDROOT
BRANCH   2   6
ATOM      6  C   UNL     1       6.851   4.640  14.870  0.00  0.00    +0.000 A 
ATOM      7  C   UNL     1       5.996   3.750  14.220  0.00  0.00    +0.000 A 
ATOM      8  C   UNL     1       6.107   3.613  12.844  0.00  0.00    +0.000 A 
ATOM      9  C   UNL     1       7.055   4.362  12.165  0.00  0.00    +0.000 A 
ATOM     10  C   UNL     1       7.865   5.225  12.897  0.00  0.00    +0.000 A 
ATOM     11  N   UNL     1       7.799   5.385  14.240  0.00  0.00    +0.000 NA
ENDBRANCH   2   6
BRANCH   3  12
ATOM     12  C   UNL     1       5.255   4.460  18.281  0.00  0.00    +0.000 C 
BRANCH  12  13
ATOM     13  C   UNL     1       4.378   3.438  19.032  0.00  0.00    +0.000 C 
BRANCH  13  14
ATOM     14  N   UNL     1       2.991   3.415  18.510  0.00  0.00    +0.000 NA
ATOM     15  C   UNL     1       2.289   4.700  18.721  0.00  0.00    +0.000 C 
ATOM     16  C   UNL     1       1.845   4.924  20.176  0.00  0.00    +0.000 C 
ATOM     17  O   UNL     1       1.006   3.856  20.635  0.00  0.00    +0.000 OA
ATOM     18  C   UNL     1       1.667   2.592  20.508  0.00  0.00    +0.000 C 
ATOM     19  C   UNL     1       2.137   2.342  19.067  0.00  0.00    +0.000 C 
ENDBRANCH  13  14
ENDBRANCH  12  13
ENDBRANCH   3  12
TORSDOF 4
ENDMDL
MODEL 4
REMARK VINA RESULT:      -6.6      3.087      6.533
REMARK  Name = 
REMARK  4 active torsions:
REMARK  status: ('A' for Active; 'I' for Inactive)
REMARK    1  A    between atoms: C_2  and  C_12
REMARK    2  A    between atoms: N_3  and  C_4
REMARK    3  A    between atoms: C_4  and  C_5
REMARK    4  A    between atoms: C_5  and  N_6
REMARK                            x       y       z     vdW  Elec       q    Type
REMARK                         _______ _______ _______ _____ _____    ______ ____
ROOT
ATOM      1  N   UNL     1       2.461   7.229  20.175  0.00  0.00    +0.000 NA
ATOM      2  C   UNL     1       2.418   6.234  19.341  0.00  0.00    +0.000 C 
ATOM      3  N   UNL     1       2.706   6.383  17.993  0.00  0.00    +0.000 N 
ATOM      4  H   UNL     1       2.679   8.089  19.674  0.00  0.00    +0.000 HD
ATOM      5  H   UNL     1       2.765   5.475  17.522  0.00  0.00    +0.000 HD
ENDROOT
BRANCH   2   6
ATOM      6  C   UNL     1       2.070   4.870  19.887  0.00  0.00    +0.000 A 
ATOM      7  C   UNL     1       1.425   3.947  19.065  0.00  0.00    +0.000 A 
ATOM      8  C   UNL     1       1.085   2.711  19.597  0.00  0.00    +0.000 A 
ATOM      9  C   UNL     1       1.398   2.437  20.919  0.00  0.00    +0.000 A 
ATOM     10  C   UNL     1       2.043   3.419  21.664  0.00  0.00    +0.000 A 
ATOM     11  N   UNL     1       2.385   4.641  21.191  0.00  0.00    +0.000 NA
ENDBRANCH   2   6
BRANCH   3  12
ATOM     12  C   UNL     1       3.720   7.350  17.575  0.00  0.00    +0.000 C 
BRANCH  12  13
ATOM     13  C   UNL     1       5.010   6.741  16.990  0.00  0.00    +0.000 C 
BRANCH  13  14
ATOM     14  N   UNL     1       5.144   5.305  17.333  0.00  0.00    +0.000 NA
ATOM     15  C   UNL     1       6.074   5.081  18.462  0.00  0.00    +0.000 C 
ATOM     16  C   UNL     1       7.555   5.232  18.075  0.00  0.00    +0.000 C 
ATOM     17  O   UNL     1       7.906   4.348  17.002  0.00  0.00    +0.000 OA
ATOM     18  C   UNL     1       7.071   4.569  15.859  0.00  0.00    +0.000 C 
ATOM     19  C   UNL     1       5.581   4.440  16.215  0.00  0.00    +0.000 C 
ENDBRANCH  13  14
ENDBRANCH  12  13
ENDBRANCH   3  12
TORSDOF 4
ENDMDL
MODEL 5
REMARK VINA RESULT:      -6.6      1.495      1.867
REMARK  Name = 
REMARK  4 active torsions:
REMARK  status: ('A' for Active; 'I' for Inactive)
REMARK    1  A    between atoms: C_2  and  C_12
REMARK    2  A    between atoms: N_3  and  C_4
REMARK    3  A    between atoms: C_4  and  C_5
REMARK    4  A    between atoms: C_5  and  N_6
REMARK                            x       y       z     vdW  Elec       q    Type
REMARK                         _______ _______ _______ _____ _____    ______ ____
ROOT
ATOM      1  N   UNL     1       7.614   4.636  16.969  0.00  0.00    +0.000 NA
ATOM      2  C   UNL     1       6.566   4.555  16.205  0.00  0.00    +0.000 C 
ATOM      3  N   UNL     1       5.277   4.515  16.716  0.00  0.00    +0.000 N 
ATOM      4  H   UNL     1       7.330   4.613  17.946  0.00  0.00    +0.000 HD
ATOM      5  H   UNL     1       4.579   4.598  15.972  0.00  0.00    +0.000 HD
ENDROOT
BRANCH   2   6
ATOM      6  C   UNL     1       6.781   4.535  14.711  0.00  0.00    +0.000 A 
ATOM      7  C   UNL     1       6.018   3.677  13.920  0.00  0.00    +0.000 A 
ATOM      8  C   UNL     1       6.255   3.651  12.553  0.00  0.00    +0.000 A 
ATOM      9  C   UNL     1       7.234   4.476  12.022  0.00  0.00    +0.000 A 
ATOM     10  C   UNL     1       7.946   5.300  12.889  0.00  0.00    +0.000 A 
ATOM     11  N   UNL     1       7.756   5.352  14.229  0.00  0.00    +0.000 NA
ENDBRANCH   2   6
BRANCH   3  12
ATOM     12  C   UNL     1       4.961   5.262  17.932  0.00  0.00    +0.000 C 
BRANCH  12  13
ATOM     13  C   UNL     1       3.533   5.059  18.477  0.00  0.00    +0.000 C 
BRANCH  13  14
ATOM     14  N   UNL     1       3.542   4.412  19.811  0.00  0.00    +0.000 NA
ATOM     15  C   UNL     1       3.643   2.939  19.722  0.00  0.00    +0.000 C 
ATOM     16  C   UNL     1       2.333   2.260  19.288  0.00  0.00    +0.000 C 
ATOM     17  O   UNL     1       1.254   2.598  20.170  0.00  0.00    +0.000 OA
ATOM     18  C   UNL     1       1.075   4.018  20.243  0.00  0.00    +0.000 C 
ATOM     19  C   UNL     1       2.372   4.729  20.660  0.00  0.00    +0.000 C 
ENDBRANCH  13  14
ENDBRANCH  12  13
ENDBRANCH   3  12
TORSDOF 4
ENDMDL
MODEL 6
REMARK VINA RESULT:      -6.6      1.027      1.351
REMARK  Name = 
REMARK  4 active torsions:
REMARK  status: ('A' for Active; 'I' for Inactive)
REMARK    1  A    between atoms: C_2  and  C_12
REMARK    2  A    between atoms: N_3  and  C_4
REMARK    3  A    between atoms: C_4  and  C_5
REMARK    4  A    between atoms: C_5  and  N_6
REMARK                            x       y       z     vdW  Elec       q    Type
REMARK                         _______ _______ _______ _____ _____    ______ ____
ROOT
ATOM      1  N   UNL     1       7.398   6.215  16.626  0.00  0.00    +0.000 NA
ATOM      2  C   UNL     1       6.620   5.279  16.173  0.00  0.00    +0.000 C 
ATOM      3  N   UNL     1       5.673   4.653  16.968  0.00  0.00    +0.000 N 
ATOM      4  H   UNL     1       7.227   6.354  17.620  0.00  0.00    +0.000 HD
ATOM      5  H   UNL     1       5.058   4.051  16.411  0.00  0.00    +0.000 HD
ENDROOT
BRANCH   2   6
ATOM      6  C   UNL     1       6.750   4.897  14.718  0.00  0.00    +0.000 A 
ATOM      7  C   UNL     1       5.889   3.938  14.182  0.00  0.00    +0.000 A 
ATOM      8  C   UNL     1       6.047   3.579  12.851  0.00  0.00    +0.000 A 
ATOM      9  C   UNL     1       7.046   4.181  12.103  0.00  0.00    +0.000 A 
ATOM     10  C   UNL     1       7.857   5.127  12.722  0.00  0.00    +0.000 A 
ATOM     11  N   UNL     1       7.747   5.503  14.019  0.00  0.00    +0.000 NA
ENDBRANCH   2   6
BRANCH   3  12
ATOM     12  C   UNL     1       4.992   5.415  18.013  0.00  0.00    +0.000 C 
BRANCH  12  13
ATOM     13  C   UNL     1       4.123   4.582  18.976  0.00  0.00    +0.000 C 
BRANCH  13  14
ATOM     14  N   UNL     1       2.701   4.564  18.558  0.00  0.00    +0.000 NA
ATOM     15  C   UNL     1       1.786   4.288  19.688  0.00  0.00    +0.000 C 
ATOM     16  C   UNL     1       1.781   2.815  20.127  0.00  0.00    +0.000 C 
ATOM     17  O   UNL     1       1.446   1.947  19.036  0.00  0.00    +0.000 OA
ATOM     18  C   UNL     1       2.344   2.133  17.936  0.00  0.00    +0.000 C 
ATOM     19  C   UNL     1       2.385   3.600  17.481  0.00  0.00    +0.000 C 
ENDBRANCH  13  14
ENDBRANCH  12  13
ENDBRANCH   3  12
TORSDOF 4
ENDMDL
MODEL 7
REMARK VINA RESULT:      -6.5      1.247      1.794
REMARK  Name = 
REMARK  4 active torsions:
REMARK  status: ('A' for Active; 'I' for Inactive)
REMARK    1  A    between atoms: C_2  and  C_12
REMARK    2  A    between atoms: N_3  and  C_4
REMARK    3  A    between atoms: C_4  and  C_5
REMARK    4  A    between atoms: C_5  and  N_6
REMARK                            x       y       z     vdW  Elec       q    Type
REMARK                         _______ _______ _______ _____ _____    ______ ____
ROOT
ATOM      1  N   UNL     1       6.930   6.547  16.544  0.00  0.00    +0.000 NA
ATOM      2  C   UNL     1       6.933   5.282  16.249  0.00  0.00    +0.000 C 
ATOM      3  N   UNL     1       6.907   4.294  17.221  0.00  0.00    +0.000 N 
ATOM      4  H   UNL     1       6.956   6.665  17.555  0.00  0.00    +0.000 HD
ATOM      5  H   UNL     1       6.767   3.368  16.807  0.00  0.00    +0.000 HD
ENDROOT
BRANCH   2   6
ATOM      6  C   UNL     1       6.935   4.898  14.789  0.00  0.00    +0.000 A 
ATOM      7  C   UNL     1       6.038   3.932  14.333  0.00  0.00    +0.000 A 
ATOM      8  C   UNL     1       6.079   3.570  12.995  0.00  0.00    +0.000 A 
ATOM      9  C   UNL     1       7.001   4.180  12.159  0.00  0.00    +0.000 A 
ATOM     10  C   UNL     1       7.857   5.133  12.702  0.00  0.00    +0.000 A 
ATOM     11  N   UNL     1       7.860   5.510  14.002  0.00  0.00    +0.000 NA
ENDBRANCH   2   6
BRANCH   3  12
ATOM     12  C   UNL     1       6.168   4.523  18.461  0.00  0.00    +0.000 C 
BRANCH  12  13
ATOM     13  C   UNL     1       4.943   3.611  18.676  0.00  0.00    +0.000 C 
BRANCH  13  14
ATOM     14  N   UNL     1       3.914   4.264  19.520  0.00  0.00    +0.000 NA
ATOM     15  C   UNL     1       2.567   3.687  19.312  0.00  0.00    +0.000 C 
ATOM     16  C   UNL     1       1.910   4.124  17.993  0.00  0.00    +0.000 C 
ATOM     17  O   UNL     1       1.820   5.552  17.904  0.00  0.00    +0.000 OA
ATOM     18  C   UNL     1       3.112   6.157  18.037  0.00  0.00    +0.000 C 
ATOM     19  C   UNL     1       3.804   5.729  19.341  0.00  0.00    +0.000 C 
ENDBRANCH  13  14
ENDBRANCH  12  13
ENDBRANCH   3  12
TORSDOF 4
ENDMDL
MODEL 8
REMARK VINA RESULT:      -6.5      2.671      4.005
REMARK  Name = 
REMARK  4 active torsions:
REMARK  status: ('A' for Active; 'I' for Inactive)
REMARK    1  A    between atoms: C_2  and  C_12
REMARK    2  A    between atoms: N_3  and  C_4
REMARK    3  A    between atoms: C_4  and  C_5
REMARK    4  A    between atoms: C_5  and  N_6
REMARK                            x       y       z     vdW  Elec       q    Type
REMARK                         _______ _______ _______ _____ _____    ______ ____
ROOT
ATOM      1  N   UNL     1       5.814   3.387  16.279  0.00  0.00    +0.000 NA
ATOM      2  C   UNL     1       5.357   4.456  16.860  0.00  0.00    +0.000 C 
ATOM      3  N   UNL     1       4.005   4.758  16.899  0.00  0.00    +0.000 N 
ATOM      4  H   UNL     1       5.048   2.878  15.844  0.00  0.00    +0.000 HD
ATOM      5  H   UNL     1       3.819   5.553  17.517  0.00  0.00    +0.000 HD
ENDROOT
BRANCH   2   6
ATOM      6  C   UNL     1       6.350   5.371  17.535  0.00  0.00    +0.000 A 
ATOM      7  C   UNL     1       6.636   6.612  16.966  0.00  0.00    +0.000 A 
ATOM      8  C   UNL     1       7.575   7.423  17.585  0.00  0.00    +0.000 A 
ATOM      9  C   UNL     1       8.193   6.978  18.743  0.00  0.00    +0.000 A 
ATOM     10  C   UNL     1       7.845   5.726  19.239  0.00  0.00    +0.000 A 
ATOM     11  N   UNL     1       6.942   4.896  18.664  0.00  0.00    +0.000 NA
ENDBRANCH   2   6
BRANCH   3  12
ATOM     12  C   UNL     1       3.027   3.675  16.991  0.00  0.00    +0.000 C 
BRANCH  12  13
ATOM     13  C   UNL     1       1.876   3.910  17.988  0.00  0.00    +0.000 C 
BRANCH  13  14
ATOM     14  N   UNL     1       1.575   2.692  18.777  0.00  0.00    +0.000 NA
ATOM     15  C   UNL     1       0.797   2.990  19.999  0.00  0.00    +0.000 C 
ATOM     16  C   UNL     1       1.635   3.632  21.118  0.00  0.00    +0.000 C 
ATOM     17  O   UNL     1       2.753   2.806  21.470  0.00  0.00    +0.000 OA
ATOM     18  C   UNL     1       3.575   2.538  20.328  0.00  0.00    +0.000 C 
ATOM     19  C   UNL     1       2.764   1.909  19.184  0.00  0.00    +0.000 C 
ENDBRANCH  13  14
ENDBRANCH  12  13
ENDBRANCH   3  12
TORSDOF 4
ENDMDL
MODEL 9
REMARK VINA RESULT:      -6.4      1.140      1.261
REMARK  Name = 
REMARK  4 active torsions:
REMARK  status: ('A' for Active; 'I' for Inactive)
REMARK    1  A    between atoms: C_2  and  C_12
REMARK    2  A    between atoms: N_3  and  C_4
REMARK    3  A    between atoms: C_4  and  C_5
REMARK    4  A    between atoms: C_5  and  N_6
REMARK                            x       y       z     vdW  Elec       q    Type
REMARK                         _______ _______ _______ _____ _____    ______ ____
ROOT
ATOM      1  N   UNL     1       6.955   6.674  16.437  0.00  0.00    +0.000 NA
ATOM      2  C   UNL     1       6.419   5.534  16.118  0.00  0.00    +0.000 C 
ATOM      3  N   UNL     1       5.653   4.800  17.010  0.00  0.00    +0.000 N 
ATOM      4  H   UNL     1       6.763   6.884  17.414  0.00  0.00    +0.000 HD
ATOM      5  H   UNL     1       5.196   4.010  16.546  0.00  0.00    +0.000 HD
ENDROOT
BRANCH   2   6
ATOM      6  C   UNL     1       6.626   5.027  14.711  0.00  0.00    +0.000 A 
ATOM      7  C   UNL     1       5.744   4.081  14.187  0.00  0.00    +0.000 A 
ATOM      8  C   UNL     1       5.971   3.604  12.905  0.00  0.00    +0.000 A 
ATOM      9  C   UNL     1       7.058   4.082  12.190  0.00  0.00    +0.000 A 
ATOM     10  C   UNL     1       7.885   5.025  12.793  0.00  0.00    +0.000 A 
ATOM     11  N   UNL     1       7.708   5.512  14.045  0.00  0.00    +0.000 NA
ENDBRANCH   2   6
BRANCH   3  12
ATOM     12  C   UNL     1       4.817   5.497  17.986  0.00  0.00    +0.000 C 
BRANCH  12  13
ATOM     13  C   UNL     1       3.494   4.791  18.344  0.00  0.00    +0.000 C 
BRANCH  13  14
ATOM     14  N   UNL     1       3.667   3.323  18.456  0.00  0.00    +0.000 NA
ATOM     15  C   UNL     1       2.526   2.576  17.883  0.00  0.00    +0.000 C 
ATOM     16  C   UNL     1       1.271   2.599  18.770  0.00  0.00    +0.000 C 
ATOM     17  O   UNL     1       1.549   2.086  20.080  0.00  0.00    +0.000 OA
ATOM     18  C   UNL     1       2.610   2.819  20.704  0.00  0.00    +0.000 C 
ATOM     19  C   UNL     1       3.878   2.829  19.835  0.00  0.00    +0.000 C 
ENDBRANCH  13  14
ENDBRANCH  12  13
ENDBRANCH   3  12
TORSDOF 4
ENDMDL
