MODEL 1
REMARK VINA RESULT:      -8.0      0.000      0.000
REMARK  Name = 
REMARK  10 active torsions:
REMARK  status: ('A' for Active; 'I' for Inactive)
REMARK    1  A    between atoms: C_1  and  C_2
REMARK    2  A    between atoms: C_2  and  C_3
REMARK    3  A    between atoms: C_3  and  C_4
REMARK    4  A    between atoms: C_4  and  N_5
REMARK    5  A    between atoms: C_4  and  C_18
REMARK    6  A    between atoms: C_6  and  C_8
REMARK    7  A    between atoms: C_8  and  C_9
REMARK    8  A    between atoms: C_12  and  C_13
REMARK    9  A    between atoms: C_13  and  O_15
REMARK   10  A    between atoms: C_23  and  N_24
REMARK                            x       y       z     vdW  Elec       q    Type
REMARK                         _______ _______ _______ _____ _____    ______ ____
ROOT
ATOM      1  C   UNL     1       5.425   6.515  17.576  0.00  0.00    +0.000 C 
ENDROOT
BRANCH   1   2
ATOM      2  C   UNL     1       5.594   5.459  16.473  0.00  0.00    +0.000 A 
ATOM      3  C   UNL     1       6.400   5.778  15.346  0.00  0.00    +0.000 A 
ATOM      4  C   UNL     1       6.579   4.892  14.287  0.00  0.00    +0.000 A 
ATOM      5  C   UNL     1       6.009   3.635  14.349  0.00  0.00    +0.000 A 
ATOM      6  C   UNL     1       5.238   3.282  15.455  0.00  0.00    +0.000 A 
ATOM      7  C   UNL     1       4.977   4.175  16.525  0.00  0.00    +0.000 A 
BRANCH   7   8
ATOM      8  N   UNL     1       4.066   3.804  17.534  0.00  0.00    +0.000 N 
ATOM      9  C   UNL     1       2.745   3.317  17.095  0.00  0.00    +0.000 C 
ATOM     10  C   UNL     1       1.741   3.457  18.240  0.00  0.00    +0.000 C 
ATOM     11  C   UNL     1       2.235   2.770  19.513  0.00  0.00    +0.000 C 
ATOM     12  C   UNL     1       3.654   3.207  19.858  0.00  0.00    +0.000 C 
ATOM     13  C   UNL     1       4.580   3.008  18.654  0.00  0.00    +0.000 C 
ENDBRANCH   7   8
ENDBRANCH   1   2
BRANCH   1  14
ATOM     14  N   UNL     1       4.203   7.326  17.393  0.00  0.00    +0.000 N 
ATOM     15  C   UNL     1       3.131   7.271  18.255  0.00  0.00    +0.000 C 
ATOM     16  O   UNL     1       3.066   6.462  19.179  0.00  0.00    +0.000 OA
ATOM     17  H   UNL     1       4.129   7.921  16.582  0.00  0.00    +0.000 HD
BRANCH  15  18
ATOM     18  C   UNL     1       2.025   8.292  17.994  0.00  0.00    +0.000 C 
BRANCH  18  19
ATOM     19  C   UNL     1       1.373   8.831  19.255  0.00  0.00    +0.000 A 
ATOM     20  C   UNL     1       1.674   8.264  20.498  0.00  0.00    +0.000 A 
ATOM     21  C   UNL     1       1.091   8.762  21.668  0.00  0.00    +0.000 A 
ATOM     22  C   UNL     1       0.189   9.830  21.620  0.00  0.00    +0.000 A 
ATOM     23  C   UNL     1      -0.093  10.428  20.388  0.00  0.00    +0.000 A 
ATOM     24  C   UNL     1       0.499   9.933  19.219  0.00  0.00    +0.000 A 
BRANCH  22  25
ATOM     25  C   UNL     1      -0.389  10.300  22.907  0.00  0.00    +0.000 C 
ATOM     26  O   UNL     1      -0.921  11.396  23.021  0.00  0.00    +0.000 OA
BRANCH  25  27
ATOM     27  O   UNL     1      -0.239   9.454  23.945  0.00  0.00    +0.000 OA
ATOM     28  H   UNL     1      -0.580   8.553  23.807  0.00  0.00    +0.000 HD
ENDBRANCH  25  27
ENDBRANCH  22  25
ENDBRANCH  18  19
ENDBRANCH  15  18
ENDBRANCH   1  14
BRANCH   1  29
ATOM     29  C   UNL     1       6.677   7.441  17.626  0.00  0.00    +0.000 C 
BRANCH  29  31
ATOM     30  C   UNL     1       7.459   5.751  19.353  0.00  0.00    +0.000 C 
ATOM     31  C   UNL     1       7.874   6.807  18.342  0.00  0.00    +0.000 C 
ENDBRANCH  29  31
ENDBRANCH   1  29
TORSDOF 9
ENDMDL
MODEL 2
REMARK VINA RESULT:      -7.8      3.735      8.712
REMARK  Name = 
REMARK  10 active torsions:
REMARK  status: ('A' for Active; 'I' for Inactive)
REMARK    1  A    between atoms: C_1  and  C_2
REMARK    2  A    between atoms: C_2  and  C_3
REMARK    3  A    between atoms: C_3  and  C_4
REMARK    4  A    between atoms: C_4  and  N_5
REMARK    5  A    between atoms: C_4  and  C_18
REMARK    6  A    between atoms: C_6  and  C_8
REMARK    7  A    between atoms: C_8  and  C_9
REMARK    8  A    between atoms: C_12  and  C_13
REMARK    9  A    between atoms: C_13  and  O_15
REMARK   10  A    between atoms: C_23  and  N_24
REMARK                            x       y       z     vdW  Elec       q    Type
REMARK                         _______ _______ _______ _____ _____    ______ ____
ROOT
ATOM      1  C   UNL     1      -0.378  10.284  19.004  0.00  0.00    +0.000 C 
ENDROOT
BRANCH   1   2
ATOM      2  C   UNL     1      -1.655  10.563  18.196  0.00  0.00    +0.000 A 
ATOM      3  C   UNL     1      -1.846   9.873  16.968  0.00  0.00    +0.000 A 
ATOM      4  C   UNL     1      -2.958  10.091  16.159  0.00  0.00    +0.000 A 
ATOM      5  C   UNL     1      -3.946  10.959  16.581  0.00  0.00    +0.000 A 
ATOM      6  C   UNL     1      -3.801  11.629  17.795  0.00  0.00    +0.000 A 
ATOM      7  C   UNL     1      -2.657  11.486  18.620  0.00  0.00    +0.000 A 
BRANCH   7   8
ATOM      8  N   UNL     1      -2.510  12.306  19.755  0.00  0.00    +0.000 N 
ATOM      9  C   UNL     1      -1.543  13.416  19.656  0.00  0.00    +0.000 C 
ATOM     10  C   UNL     1      -1.126  13.858  21.060  0.00  0.00    +0.000 C 
ATOM     11  C   UNL     1      -2.336  14.199  21.929  0.00  0.00    +0.000 C 
ATOM     12  C   UNL     1      -3.368  13.077  21.899  0.00  0.00    +0.000 C 
ATOM     13  C   UNL     1      -3.731  12.726  20.453  0.00  0.00    +0.000 C 
ENDBRANCH   7   8
ENDBRANCH   1   2
BRANCH   1  14
ATOM     14  N   UNL     1       0.475   9.259  18.367  0.00  0.00    +0.000 N 
ATOM     15  C   UNL     1       1.815   9.451  18.112  0.00  0.00    +0.000 C 
ATOM     16  O   UNL     1       2.374  10.531  18.296  0.00  0.00    +0.000 OA
ATOM     17  H   UNL     1       0.056   8.391  18.069  0.00  0.00    +0.000 HD
BRANCH  15  18
ATOM     18  C   UNL     1       2.568   8.228  17.594  0.00  0.00    +0.000 C 
BRANCH  18  19
ATOM     19  C   UNL     1       2.354   6.974  18.423  0.00  0.00    +0.000 A 
ATOM     20  C   UNL     1       2.221   7.066  19.813  0.00  0.00    +0.000 A 
ATOM     21  C   UNL     1       2.008   5.920  20.587  0.00  0.00    +0.000 A 
ATOM     22  C   UNL     1       1.933   4.658  19.989  0.00  0.00    +0.000 A 
ATOM     23  C   UNL     1       2.028   4.556  18.598  0.00  0.00    +0.000 A 
ATOM     24  C   UNL     1       2.232   5.707  17.825  0.00  0.00    +0.000 A 
BRANCH  22  25
ATOM     25  C   UNL     1       1.707   3.488  20.879  0.00  0.00    +0.000 C 
ATOM     26  O   UNL     1       1.047   2.519  20.528  0.00  0.00    +0.000 OA
BRANCH  25  27
ATOM     27  O   UNL     1       2.239   3.596  22.112  0.00  0.00    +0.000 OA
ATOM     28  H   UNL     1       1.913   2.956  22.769  0.00  0.00    +0.000 HD
ENDBRANCH  25  27
ENDBRANCH  22  25
ENDBRANCH  18  19
ENDBRANCH  15  18
ENDBRANCH   1  14
BRANCH   1  29
ATOM     29  C   UNL     1      -0.748   9.846  20.453  0.00  0.00    +0.000 C 
BRANCH  29  31
ATOM     30  C   UNL     1      -0.147   9.929  22.919  0.00  0.00    +0.000 C 
ATOM     31  C   UNL     1       0.248  10.336  21.509  0.00  0.00    +0.000 C 
ENDBRANCH  29  31
ENDBRANCH   1  29
TORSDOF 9
ENDMDL
MODEL 3
REMARK VINA RESULT:      -7.7      2.904      8.387
REMARK  Name = 
REMARK  10 active torsions:
REMARK  status: ('A' for Active; 'I' for Inactive)
REMARK    1  A    between atoms: C_1  and  C_2
REMARK    2  A    between atoms: C_2  and  C_3
REMARK    3  A    between atoms: C_3  and  C_4
REMARK    4  A    between atoms: C_4  and  N_5
REMARK    5  A    between atoms: C_4  and  C_18
REMARK    6  A    between atoms: C_6  and  C_8
REMARK    7  A    between atoms: C_8  and  C_9
REMARK    8  A    between atoms: C_12  and  C_13
REMARK    9  A    between atoms: C_13  and  O_15
REMARK   10  A    between atoms: C_23  and  N_24
REMARK                            x       y       z     vdW  Elec       q    Type
REMARK                         _______ _______ _______ _____ _____    ______ ____
ROOT
ATOM      1  C   UNL     1       0.944  10.057  18.615  0.00  0.00    +0.000 C 
ENDROOT
BRANCH   1   2
ATOM      2  C   UNL     1       1.507  11.437  18.988  0.00  0.00    +0.000 A 
ATOM      3  C   UNL     1       2.307  12.124  18.036  0.00  0.00    +0.000 A 
ATOM      4  C   UNL     1       2.883  13.363  18.305  0.00  0.00    +0.000 A 
ATOM      5  C   UNL     1       2.625  13.984  19.512  0.00  0.00    +0.000 A 
ATOM      6  C   UNL     1       1.820  13.348  20.455  0.00  0.00    +0.000 A 
ATOM      7  C   UNL     1       1.266  12.059  20.249  0.00  0.00    +0.000 A 
BRANCH   7   8
ATOM      8  N   UNL     1       0.589  11.415  21.303  0.00  0.00    +0.000 N 
ATOM      9  C   UNL     1      -0.838  11.743  21.479  0.00  0.00    +0.000 C 
ATOM     10  C   UNL     1      -1.270  11.400  22.906  0.00  0.00    +0.000 C 
ATOM     11  C   UNL     1      -0.944   9.950  23.262  0.00  0.00    +0.000 C 
ATOM     12  C   UNL     1       0.509   9.619  22.944  0.00  0.00    +0.000 C 
ATOM     13  C   UNL     1       0.832   9.981  21.491  0.00  0.00    +0.000 C 
ENDBRANCH   7   8
ENDBRANCH   1   2
BRANCH   1  14
ATOM     14  N   UNL     1       1.943   9.212  17.927  0.00  0.00    +0.000 N 
ATOM     15  C   UNL     1       2.380   8.007  18.431  0.00  0.00    +0.000 C 
ATOM     16  O   UNL     1       2.052   7.597  19.543  0.00  0.00    +0.000 OA
ATOM     17  H   UNL     1       2.356   9.544  17.069  0.00  0.00    +0.000 HD
BRANCH  15  18
ATOM     18  C   UNL     1       3.293   7.201  17.509  0.00  0.00    +0.000 C 
BRANCH  18  19
ATOM     19  C   UNL     1       3.639   5.820  18.035  0.00  0.00    +0.000 A 
ATOM     20  C   UNL     1       2.830   4.724  17.711  0.00  0.00    +0.000 A 
ATOM     21  C   UNL     1       3.146   3.443  18.177  0.00  0.00    +0.000 A 
ATOM     22  C   UNL     1       4.270   3.232  18.982  0.00  0.00    +0.000 A 
ATOM     23  C   UNL     1       5.105   4.312  19.284  0.00  0.00    +0.000 A 
ATOM     24  C   UNL     1       4.791   5.592  18.809  0.00  0.00    +0.000 A 
BRANCH  22  25
ATOM     25  C   UNL     1       4.537   1.841  19.439  0.00  0.00    +0.000 C 
ATOM     26  O   UNL     1       5.099   1.600  20.499  0.00  0.00    +0.000 OA
BRANCH  25  27
ATOM     27  O   UNL     1       4.161   0.875  18.579  0.00  0.00    +0.000 OA
ATOM     28  H   UNL     1       4.560  -0.001  18.729  0.00  0.00    +0.000 HD
ENDBRANCH  25  27
ENDBRANCH  22  25
ENDBRANCH  18  19
ENDBRANCH  15  18
ENDBRANCH   1  14
BRANCH   1  29
ATOM     29  C   UNL     1      -0.322  10.219  17.722  0.00  0.00    +0.000 C 
BRANCH  29  31
ATOM     30  C   UNL     1      -2.832   9.840  17.680  0.00  0.00    +0.000 C 
ATOM     31  C   UNL     1      -1.631  10.239  18.519  0.00  0.00    +0.000 C 
ENDBRANCH  29  31
ENDBRANCH   1  29
TORSDOF 9
ENDMDL
MODEL 4
REMARK VINA RESULT:      -7.6      2.098      4.783
REMARK  Name = 
REMARK  10 active torsions:
REMARK  status: ('A' for Active; 'I' for Inactive)
REMARK    1  A    between atoms: C_1  and  C_2
REMARK    2  A    between atoms: C_2  and  C_3
REMARK    3  A    between atoms: C_3  and  C_4
REMARK    4  A    between atoms: C_4  and  N_5
REMARK    5  A    between atoms: C_4  and  C_18
REMARK    6  A    between atoms: C_6  and  C_8
REMARK    7  A    between atoms: C_8  and  C_9
REMARK    8  A    between atoms: C_12  and  C_13
REMARK    9  A    between atoms: C_13  and  O_15
REMARK   10  A    between atoms: C_23  and  N_24
REMARK                            x       y       z     vdW  Elec       q    Type
REMARK                         _______ _______ _______ _____ _____    ______ ____
ROOT
ATOM      1  C   UNL     1       2.546   6.572  19.845  0.00  0.00    +0.000 C 
ENDROOT
BRANCH   1   2
ATOM      2  C   UNL     1       2.931   5.097  20.047  0.00  0.00    +0.000 A 
ATOM      3  C   UNL     1       2.137   4.303  20.918  0.00  0.00    +0.000 A 
ATOM      4  C   UNL     1       2.435   2.968  21.182  0.00  0.00    +0.000 A 
ATOM      5  C   UNL     1       3.499   2.369  20.537  0.00  0.00    +0.000 A 
ATOM      6  C   UNL     1       4.278   3.115  19.655  0.00  0.00    +0.000 A 
ATOM      7  C   UNL     1       4.050   4.492  19.405  0.00  0.00    +0.000 A 
BRANCH   7   8
ATOM      8  N   UNL     1       4.968   5.218  18.621  0.00  0.00    +0.000 N 
ATOM      9  C   UNL     1       6.368   5.242  19.083  0.00  0.00    +0.000 C 
ATOM     10  C   UNL     1       7.091   6.440  18.465  0.00  0.00    +0.000 C 
ATOM     11  C   UNL     1       6.967   6.451  16.941  0.00  0.00    +0.000 C 
ATOM     12  C   UNL     1       5.515   6.294  16.507  0.00  0.00    +0.000 C 
ATOM     13  C   UNL     1       4.892   5.058  17.164  0.00  0.00    +0.000 C 
ENDBRANCH   7   8
ENDBRANCH   1   2
BRANCH   1  14
ATOM     14  N   UNL     1       1.411   6.977  20.700  0.00  0.00    +0.000 N 
ATOM     15  C   UNL     1       1.306   8.229  21.263  0.00  0.00    +0.000 C 
ATOM     16  O   UNL     1       2.204   9.067  21.185  0.00  0.00    +0.000 OA
ATOM     17  H   UNL     1       0.696   6.299  20.916  0.00  0.00    +0.000 HD
BRANCH  15  18
ATOM     18  C   UNL     1      -0.009   8.518  21.985  0.00  0.00    +0.000 C 
BRANCH  18  19
ATOM     19  C   UNL     1      -0.525   9.932  21.787  0.00  0.00    +0.000 A 
ATOM     20  C   UNL     1      -0.851  10.721  22.896  0.00  0.00    +0.000 A 
ATOM     21  C   UNL     1      -1.313  12.031  22.727  0.00  0.00    +0.000 A 
ATOM     22  C   UNL     1      -1.469  12.575  21.448  0.00  0.00    +0.000 A 
ATOM     23  C   UNL     1      -1.115  11.809  20.334  0.00  0.00    +0.000 A 
ATOM     24  C   UNL     1      -0.643  10.501  20.506  0.00  0.00    +0.000 A 
BRANCH  22  25
ATOM     25  C   UNL     1      -1.969  13.973  21.351  0.00  0.00    +0.000 C 
ATOM     26  O   UNL     1      -2.305  14.614  22.338  0.00  0.00    +0.000 OA
BRANCH  25  27
ATOM     27  O   UNL     1      -2.071  14.459  20.099  0.00  0.00    +0.000 OA
ATOM     28  H   UNL     1      -2.344  13.818  19.419  0.00  0.00    +0.000 HD
ENDBRANCH  25  27
ENDBRANCH  22  25
ENDBRANCH  18  19
ENDBRANCH  15  18
ENDBRANCH   1  14
BRANCH   1  29
ATOM     29  C   UNL     1       2.206   6.834  18.347  0.00  0.00    +0.000 C 
BRANCH  29  31
ATOM     30  C   UNL     1       1.603   9.228  17.751  0.00  0.00    +0.000 C 
ATOM     31  C   UNL     1       2.709   8.189  17.838  0.00  0.00    +0.000 C 
ENDBRANCH  29  31
ENDBRANCH   1  29
TORSDOF 9
ENDMDL
MODEL 5
REMARK VINA RESULT:      -7.6      3.723      8.671
REMARK  Name = 
REMARK  10 active torsions:
REMARK  status: ('A' for Active; 'I' for Inactive)
REMARK    1  A    between atoms: C_1  and  C_2
REMARK    2  A    between atoms: C_2  and  C_3
REMARK    3  A    between atoms: C_3  and  C_4
REMARK    4  A    between atoms: C_4  and  N_5
REMARK    5  A    between atoms: C_4  and  C_18
REMARK    6  A    between atoms: C_6  and  C_8
REMARK    7  A    between atoms: C_8  and  C_9
REMARK    8  A    between atoms: C_12  and  C_13
REMARK    9  A    between atoms: C_13  and  O_15
REMARK   10  A    between atoms: C_23  and  N_24
REMARK                            x       y       z     vdW  Elec       q    Type
REMARK                         _______ _______ _______ _____ _____    ______ ____
ROOT
ATOM      1  C   UNL     1       0.115  10.078  19.442  0.00  0.00    +0.000 C 
ENDROOT
BRANCH   1   2
ATOM      2  C   UNL     1      -1.054  10.421  18.506  0.00  0.00    +0.000 A 
ATOM      3  C   UNL     1      -1.348   9.535  17.434  0.00  0.00    +0.000 A 
ATOM      4  C   UNL     1      -2.368   9.788  16.521  0.00  0.00    +0.000 A 
ATOM      5  C   UNL     1      -3.167  10.903  16.685  0.00  0.00    +0.000 A 
ATOM      6  C   UNL     1      -2.921  11.776  17.744  0.00  0.00    +0.000 A 
ATOM      7  C   UNL     1      -1.854  11.591  18.660  0.00  0.00    +0.000 A 
BRANCH   7   8
ATOM      8  N   UNL     1      -1.573  12.592  19.611  0.00  0.00    +0.000 N 
ATOM      9  C   UNL     1      -0.657  13.670  19.194  0.00  0.00    +0.000 C 
ATOM     10  C   UNL     1      -0.061  14.343  20.432  0.00  0.00    +0.000 C 
ATOM     11  C   UNL     1      -1.149  14.824  21.393  0.00  0.00    +0.000 C 
ATOM     12  C   UNL     1      -2.146  13.711  21.695  0.00  0.00    +0.000 C 
ATOM     13  C   UNL     1      -2.696  13.121  20.393  0.00  0.00    +0.000 C 
ENDBRANCH   7   8
ENDBRANCH   1   2
BRANCH   1  14
ATOM     14  N   UNL     1       0.964   8.993  18.905  0.00  0.00    +0.000 N 
ATOM     15  C   UNL     1       2.073   9.227  18.124  0.00  0.00    +0.000 C 
ATOM     16  O   UNL     1       2.377  10.351  17.725  0.00  0.00    +0.000 OA
ATOM     17  H   UNL     1       0.703   8.035  19.083  0.00  0.00    +0.000 HD
BRANCH  15  18
ATOM     18  C   UNL     1       2.914   7.996  17.791  0.00  0.00    +0.000 C 
BRANCH  18  19
ATOM     19  C   UNL     1       2.446   6.724  18.475  0.00  0.00    +0.000 A 
ATOM     20  C   UNL     1       2.103   5.603  17.710  0.00  0.00    +0.000 A 
ATOM     21  C   UNL     1       1.684   4.420  18.329  0.00  0.00    +0.000 A 
ATOM     22  C   UNL     1       1.590   4.336  19.722  0.00  0.00    +0.000 A 
ATOM     23  C   UNL     1       1.963   5.437  20.498  0.00  0.00    +0.000 A 
ATOM     24  C   UNL     1       2.391   6.618  19.876  0.00  0.00    +0.000 A 
BRANCH  22  25
ATOM     25  C   UNL     1       1.135   3.045  20.304  0.00  0.00    +0.000 C 
ATOM     26  O   UNL     1       1.671   2.546  21.283  0.00  0.00    +0.000 OA
BRANCH  25  27
ATOM     27  O   UNL     1       0.125   2.444  19.643  0.00  0.00    +0.000 OA
ATOM     28  H   UNL     1      -0.624   2.153  20.193  0.00  0.00    +0.000 HD
ENDBRANCH  25  27
ENDBRANCH  22  25
ENDBRANCH  18  19
ENDBRANCH  15  18
ENDBRANCH   1  14
BRANCH   1  29
ATOM     29  C   UNL     1      -0.426   9.684  20.850  0.00  0.00    +0.000 C 
BRANCH  29  31
ATOM     30  C   UNL     1      -0.972  10.629  23.142  0.00  0.00    +0.000 C 
ATOM     31  C   UNL     1      -0.029  10.672  21.952  0.00  0.00    +0.000 C 
ENDBRANCH  29  31
ENDBRANCH   1  29
TORSDOF 9
ENDMDL
MODEL 6
REMARK VINA RESULT:      -7.6      3.611      9.023
REMARK  Name = 
REMARK  10 active torsions:
REMARK  status: ('A' for Active; 'I' for Inactive)
REMARK    1  A    between atoms: C_1  and  C_2
REMARK    2  A    between atoms: C_2  and  C_3
REMARK    3  A    between atoms: C_3  and  C_4
REMARK    4  A    between atoms: C_4  and  N_5
REMARK    5  A    between atoms: C_4  and  C_18
REMARK    6  A    between atoms: C_6  and  C_8
REMARK    7  A    between atoms: C_8  and  C_9
REMARK    8  A    between atoms: C_12  and  C_13
REMARK    9  A    between atoms: C_13  and  O_15
REMARK   10  A    between atoms: C_23  and  N_24
REMARK                            x       y       z     vdW  Elec       q    Type
REMARK                         _______ _______ _______ _____ _____    ______ ____
ROOT
ATOM      1  C   UNL     1      -0.061  10.376  19.296  0.00  0.00    +0.000 C 
ENDROOT
BRANCH   1   2
ATOM      2  C   UNL     1       0.380  11.848  19.255  0.00  0.00    +0.000 A 
ATOM      3  C   UNL     1       1.442  12.214  18.386  0.00  0.00    +0.000 A 
ATOM      4  C   UNL     1       1.925  13.518  18.311  0.00  0.00    +0.000 A 
ATOM      5  C   UNL     1       1.320  14.510  19.059  0.00  0.00    +0.000 A 
ATOM      6  C   UNL     1       0.257  14.186  19.899  0.00  0.00    +0.000 A 
ATOM      7  C   UNL     1      -0.226  12.862  20.053  0.00  0.00    +0.000 A 
BRANCH   7   8
ATOM      8  N   UNL     1      -1.201  12.586  21.031  0.00  0.00    +0.000 N 
ATOM      9  C   UNL     1      -0.715  12.253  22.384  0.00  0.00    +0.000 C 
ATOM     10  C   UNL     1      -1.803  11.498  23.148  0.00  0.00    +0.000 C 
ATOM     11  C   UNL     1      -3.123  12.270  23.164  0.00  0.00    +0.000 C 
ATOM     12  C   UNL     1      -3.522  12.705  21.758  0.00  0.00    +0.000 C 
ATOM     13  C   UNL     1      -2.373  13.468  21.090  0.00  0.00    +0.000 C 
ENDBRANCH   7   8
ENDBRANCH   1   2
BRANCH   1  14
ATOM     14  N   UNL     1       1.036   9.473  19.703  0.00  0.00    +0.000 N 
ATOM     15  C   UNL     1       0.928   8.587  20.751  0.00  0.00    +0.000 C 
ATOM     16  O   UNL     1      -0.052   8.558  21.494  0.00  0.00    +0.000 OA
ATOM     17  H   UNL     1       1.920   9.530  19.220  0.00  0.00    +0.000 HD
BRANCH  15  18
ATOM     18  C   UNL     1       2.103   7.628  20.925  0.00  0.00    +0.000 C 
BRANCH  18  19
ATOM     19  C   UNL     1       1.918   6.290  20.230  0.00  0.00    +0.000 A 
ATOM     20  C   UNL     1       2.301   6.136  18.893  0.00  0.00    +0.000 A 
ATOM     21  C   UNL     1       2.150   4.905  18.246  0.00  0.00    +0.000 A 
ATOM     22  C   UNL     1       1.606   3.806  18.919  0.00  0.00    +0.000 A 
ATOM     23  C   UNL     1       1.252   3.937  20.265  0.00  0.00    +0.000 A 
ATOM     24  C   UNL     1       1.413   5.169  20.912  0.00  0.00    +0.000 A 
BRANCH  22  25
ATOM     25  C   UNL     1       1.475   2.532  18.161  0.00  0.00    +0.000 C 
ATOM     26  O   UNL     1       2.321   2.162  17.358  0.00  0.00    +0.000 OA
BRANCH  25  27
ATOM     27  O   UNL     1       0.339   1.845  18.388  0.00  0.00    +0.000 OA
ATOM     28  H   UNL     1      -0.462   2.385  18.514  0.00  0.00    +0.000 HD
ENDBRANCH  25  27
ENDBRANCH  22  25
ENDBRANCH  18  19
ENDBRANCH  15  18
ENDBRANCH   1  14
BRANCH   1  29
ATOM     29  C   UNL     1      -0.617   9.946  17.905  0.00  0.00    +0.000 C 
BRANCH  29  31
ATOM     30  C   UNL     1      -2.470  11.135  16.639  0.00  0.00    +0.000 C 
ATOM     31  C   UNL     1      -2.127  10.167  17.758  0.00  0.00    +0.000 C 
ENDBRANCH  29  31
ENDBRANCH   1  29
TORSDOF 9
ENDMDL
MODEL 7
REMARK VINA RESULT:      -7.5      3.187      9.000
REMARK  Name = 
REMARK  10 active torsions:
REMARK  status: ('A' for Active; 'I' for Inactive)
REMARK    1  A    between atoms: C_1  and  C_2
REMARK    2  A    between atoms: C_2  and  C_3
REMARK    3  A    between atoms: C_3  and  C_4
REMARK    4  A    between atoms: C_4  and  N_5
REMARK    5  A    between atoms: C_4  and  C_18
REMARK    6  A    between atoms: C_6  and  C_8
REMARK    7  A    between atoms: C_8  and  C_9
REMARK    8  A    between atoms: C_12  and  C_13
REMARK    9  A    between atoms: C_13  and  O_15
REMARK   10  A    between atoms: C_23  and  N_24
REMARK                            x       y       z     vdW  Elec       q    Type
REMARK                         _______ _______ _______ _____ _____    ______ ____
ROOT
ATOM      1  C   UNL     1       0.204  10.278  19.319  0.00  0.00    +0.000 C 
ENDROOT
BRANCH   1   2
ATOM      2  C   UNL     1      -1.146  10.544  18.635  0.00  0.00    +0.000 A 
ATOM      3  C   UNL     1      -1.474   9.801  17.468  0.00  0.00    +0.000 A 
ATOM      4  C   UNL     1      -2.661  10.002  16.769  0.00  0.00    +0.000 A 
ATOM      5  C   UNL     1      -3.587  10.908  17.249  0.00  0.00    +0.000 A 
ATOM      6  C   UNL     1      -3.306  11.631  18.407  0.00  0.00    +0.000 A 
ATOM      7  C   UNL     1      -2.085  11.504  19.115  0.00  0.00    +0.000 A 
BRANCH   7   8
ATOM      8  N   UNL     1      -1.808  12.374  20.188  0.00  0.00    +0.000 N 
ATOM      9  C   UNL     1      -1.113  13.634  19.864  0.00  0.00    +0.000 C 
ATOM     10  C   UNL     1      -0.444  14.188  21.123  0.00  0.00    +0.000 C 
ATOM     11  C   UNL     1      -1.440  14.337  22.273  0.00  0.00    +0.000 C 
ATOM     12  C   UNL     1      -2.227  13.049  22.489  0.00  0.00    +0.000 C 
ATOM     13  C   UNL     1      -2.871  12.592  21.176  0.00  0.00    +0.000 C 
ENDBRANCH   7   8
ENDBRANCH   1   2
BRANCH   1  14
ATOM     14  N   UNL     1       1.153   9.573  18.431  0.00  0.00    +0.000 N 
ATOM     15  C   UNL     1       1.912   8.502  18.845  0.00  0.00    +0.000 C 
ATOM     16  O   UNL     1       1.937   8.122  20.015  0.00  0.00    +0.000 OA
ATOM     17  H   UNL     1       1.283   9.910  17.489  0.00  0.00    +0.000 HD
BRANCH  15  18
ATOM     18  C   UNL     1       2.717   7.804  17.751  0.00  0.00    +0.000 C 
BRANCH  18  19
ATOM     19  C   UNL     1       3.033   6.349  18.048  0.00  0.00    +0.000 A 
ATOM     20  C   UNL     1       4.350   5.959  18.318  0.00  0.00    +0.000 A 
ATOM     21  C   UNL     1       4.652   4.624  18.609  0.00  0.00    +0.000 A 
ATOM     22  C   UNL     1       3.647   3.651  18.626  0.00  0.00    +0.000 A 
ATOM     23  C   UNL     1       2.323   4.034  18.392  0.00  0.00    +0.000 A 
ATOM     24  C   UNL     1       2.023   5.373  18.111  0.00  0.00    +0.000 A 
BRANCH  22  25
ATOM     25  C   UNL     1       4.049   2.254  18.941  0.00  0.00    +0.000 C 
ATOM     26  O   UNL     1       3.572   1.291  18.356  0.00  0.00    +0.000 OA
BRANCH  25  27
ATOM     27  O   UNL     1       4.935   2.126  19.948  0.00  0.00    +0.000 OA
ATOM     28  H   UNL     1       5.842   2.420  19.752  0.00  0.00    +0.000 HD
ENDBRANCH  25  27
ENDBRANCH  22  25
ENDBRANCH  18  19
ENDBRANCH  15  18
ENDBRANCH   1  14
BRANCH   1  29
ATOM     29  C   UNL     1      -0.011   9.459  20.627  0.00  0.00    +0.000 C 
BRANCH  29  31
ATOM     30  C   UNL     1      -0.149   9.511  23.161  0.00  0.00    +0.000 C 
ATOM     31  C   UNL     1       0.207  10.281  21.902  0.00  0.00    +0.000 C 
ENDBRANCH  29  31
ENDBRANCH   1  29
TORSDOF 9
ENDMDL
MODEL 8
REMARK VINA RESULT:      -7.4      3.774      8.682
REMARK  Name = 
REMARK  10 active torsions:
REMARK  status: ('A' for Active; 'I' for Inactive)
REMARK    1  A    between atoms: C_1  and  C_2
REMARK    2  A    between atoms: C_2  and  C_3
REMARK    3  A    between atoms: C_3  and  C_4
REMARK    4  A    between atoms: C_4  and  N_5
REMARK    5  A    between atoms: C_4  and  C_18
REMARK    6  A    between atoms: C_6  and  C_8
REMARK    7  A    between atoms: C_8  and  C_9
REMARK    8  A    between atoms: C_12  and  C_13
REMARK    9  A    between atoms: C_13  and  O_15
REMARK   10  A    between atoms: C_23  and  N_24
REMARK                            x       y       z     vdW  Elec       q    Type
REMARK                         _______ _______ _______ _____ _____    ______ ____
ROOT
ATOM      1  C   UNL     1      -0.242  10.327  19.043  0.00  0.00    +0.000 C 
ENDROOT
BRANCH   1   2
ATOM      2  C   UNL     1      -1.549  10.576  18.273  0.00  0.00    +0.000 A 
ATOM      3  C   UNL     1      -1.799   9.817  17.098  0.00  0.00    +0.000 A 
ATOM      4  C   UNL     1      -2.942  10.002  16.324  0.00  0.00    +0.000 A 
ATOM      5  C   UNL     1      -3.900  10.909  16.734  0.00  0.00    +0.000 A 
ATOM      6  C   UNL     1      -3.696  11.648  17.898  0.00  0.00    +0.000 A 
ATOM      7  C   UNL     1      -2.519  11.537  18.682  0.00  0.00    +0.000 A 
BRANCH   7   8
ATOM      8  N   UNL     1      -2.315  12.422  19.758  0.00  0.00    +0.000 N 
ATOM      9  C   UNL     1      -1.619  13.688  19.459  0.00  0.00    +0.000 C 
ATOM     10  C   UNL     1      -1.028  14.264  20.746  0.00  0.00    +0.000 C 
ATOM     11  C   UNL     1      -2.088  14.412  21.838  0.00  0.00    +0.000 C 
ATOM     12  C   UNL     1      -2.869  13.116  22.025  0.00  0.00    +0.000 C 
ATOM     13  C   UNL     1      -3.433  12.637  20.684  0.00  0.00    +0.000 C 
ENDBRANCH   7   8
ENDBRANCH   1   2
BRANCH   1  14
ATOM     14  N   UNL     1       0.573   9.255  18.432  0.00  0.00    +0.000 N 
ATOM     15  C   UNL     1       1.862   9.452  17.991  0.00  0.00    +0.000 C 
ATOM     16  O   UNL     1       2.392  10.562  17.972  0.00  0.00    +0.000 OA
ATOM     17  H   UNL     1       0.159   8.345  18.296  0.00  0.00    +0.000 HD
BRANCH  15  18
ATOM     18  C   UNL     1       2.600   8.196  17.534  0.00  0.00    +0.000 C 
BRANCH  18  19
ATOM     19  C   UNL     1       2.362   6.984  18.417  0.00  0.00    +0.000 A 
ATOM     20  C   UNL     1       2.259   5.710  17.847  0.00  0.00    +0.000 A 
ATOM     21  C   UNL     1       2.055   4.584  18.651  0.00  0.00    +0.000 A 
ATOM     22  C   UNL     1       1.941   4.707  20.040  0.00  0.00    +0.000 A 
ATOM     23  C   UNL     1       2.077   5.970  20.625  0.00  0.00    +0.000 A 
ATOM     24  C   UNL     1       2.290   7.095  19.818  0.00  0.00    +0.000 A 
BRANCH  22  25
ATOM     25  C   UNL     1       1.723   3.463  20.825  0.00  0.00    +0.000 C 
ATOM     26  O   UNL     1       1.179   2.477  20.347  0.00  0.00    +0.000 OA
BRANCH  25  27
ATOM     27  O   UNL     1       2.122   3.521  22.111  0.00  0.00    +0.000 OA
ATOM     28  H   UNL     1       1.410   3.608  22.769  0.00  0.00    +0.000 HD
ENDBRANCH  25  27
ENDBRANCH  22  25
ENDBRANCH  18  19
ENDBRANCH  15  18
ENDBRANCH   1  14
BRANCH   1  29
ATOM     29  C   UNL     1      -0.555   9.978  20.529  0.00  0.00    +0.000 C 
BRANCH  29  31
ATOM     30  C   UNL     1       1.223  11.742  20.949  0.00  0.00    +0.000 C 
ATOM     31  C   UNL     1       0.466  10.553  21.517  0.00  0.00    +0.000 C 
ENDBRANCH  29  31
ENDBRANCH   1  29
TORSDOF 9
ENDMDL
MODEL 9
REMARK VINA RESULT:      -7.4      1.955      4.517
REMARK  Name = 
REMARK  10 active torsions:
REMARK  status: ('A' for Active; 'I' for Inactive)
REMARK    1  A    between atoms: C_1  and  C_2
REMARK    2  A    between atoms: C_2  and  C_3
REMARK    3  A    between atoms: C_3  and  C_4
REMARK    4  A    between atoms: C_4  and  N_5
REMARK    5  A    between atoms: C_4  and  C_18
REMARK    6  A    between atoms: C_6  and  C_8
REMARK    7  A    between atoms: C_8  and  C_9
REMARK    8  A    between atoms: C_12  and  C_13
REMARK    9  A    between atoms: C_13  and  O_15
REMARK   10  A    between atoms: C_23  and  N_24
REMARK                            x       y       z     vdW  Elec       q    Type
REMARK                         _______ _______ _______ _____ _____    ______ ____
ROOT
ATOM      1  C   UNL     1       2.629   6.981  19.135  0.00  0.00    +0.000 C 
ENDROOT
BRANCH   1   2
ATOM      2  C   UNL     1       2.681   5.563  18.545  0.00  0.00    +0.000 A 
ATOM      3  C   UNL     1       1.482   4.801  18.504  0.00  0.00    +0.000 A 
ATOM      4  C   UNL     1       1.448   3.498  18.015  0.00  0.00    +0.000 A 
ATOM      5  C   UNL     1       2.597   2.937  17.495  0.00  0.00    +0.000 A 
ATOM      6  C   UNL     1       3.782   3.670  17.495  0.00  0.00    +0.000 A 
ATOM      7  C   UNL     1       3.878   4.976  18.039  0.00  0.00    +0.000 A 
BRANCH   7   8
ATOM      8  N   UNL     1       5.138   5.597  18.142  0.00  0.00    +0.000 N 
ATOM      9  C   UNL     1       6.188   4.859  18.869  0.00  0.00    +0.000 C 
ATOM     10  C   UNL     1       7.270   5.835  19.334  0.00  0.00    +0.000 C 
ATOM     11  C   UNL     1       7.821   6.663  18.174  0.00  0.00    +0.000 C 
ATOM     12  C   UNL     1       6.694   7.304  17.372  0.00  0.00    +0.000 C 
ATOM     13  C   UNL     1       5.678   6.242  16.940  0.00  0.00    +0.000 C 
ENDBRANCH   7   8
ENDBRANCH   1   2
BRANCH   1  14
ATOM     14  N   UNL     1       1.373   7.236  19.872  0.00  0.00    +0.000 N 
ATOM     15  C   UNL     1       1.305   8.055  20.977  0.00  0.00    +0.000 C 
ATOM     16  O   UNL     1       2.305   8.548  21.497  0.00  0.00    +0.000 OA
ATOM     17  H   UNL     1       0.532   6.763  19.580  0.00  0.00    +0.000 HD
BRANCH  15  18
ATOM     18  C   UNL     1      -0.100   8.323  21.511  0.00  0.00    +0.000 C 
BRANCH  18  19
ATOM     19  C   UNL     1      -0.490   9.791  21.515  0.00  0.00    +0.000 A 
ATOM     20  C   UNL     1      -0.709  10.461  20.306  0.00  0.00    +0.000 A 
ATOM     21  C   UNL     1      -1.084  11.809  20.297  0.00  0.00    +0.000 A 
ATOM     22  C   UNL     1      -1.238  12.517  21.494  0.00  0.00    +0.000 A 
ATOM     23  C   UNL     1      -1.057  11.849  22.708  0.00  0.00    +0.000 A 
ATOM     24  C   UNL     1      -0.691  10.497  22.715  0.00  0.00    +0.000 A 
BRANCH  22  25
ATOM     25  C   UNL     1      -1.636  13.947  21.400  0.00  0.00    +0.000 C 
ATOM     26  O   UNL     1      -1.302  14.773  22.239  0.00  0.00    +0.000 OA
BRANCH  25  27
ATOM     27  O   UNL     1      -2.429  14.253  20.355  0.00  0.00    +0.000 OA
ATOM     28  H   UNL     1      -2.499  15.201  20.142  0.00  0.00    +0.000 HD
ENDBRANCH  25  27
ENDBRANCH  22  25
ENDBRANCH  18  19
ENDBRANCH  15  18
ENDBRANCH   1  14
BRANCH   1  29
ATOM     29  C   UNL     1       2.808   8.038  18.004  0.00  0.00    +0.000 C 
BRANCH  29  31
ATOM     30  C   UNL     1       1.950  10.428  18.032  0.00  0.00    +0.000 C 
ATOM     31  C   UNL     1       1.597   8.963  17.840  0.00  0.00    +0.000 C 
ENDBRANCH  29  31
ENDBRANCH   1  29
TORSDOF 9
ENDMDL
