MODEL 1
REMARK VINA RESULT:      -7.1      0.000      0.000
REMARK  Name = 
REMARK  4 active torsions:
REMARK  status: ('A' for Active; 'I' for Inactive)
REMARK    1  A    between atoms: C_1  and  C_2
REMARK    2  A    between atoms: C_6  and  C_7
REMARK    3  A    between atoms: C_7  and  N_8
REMARK    4  A    between atoms: N_14  and  C_15
REMARK                            x       y       z     vdW  Elec       q    Type
REMARK                         _______ _______ _______ _____ _____    ______ ____
ROOT
ATOM      1  N   UNL     1       4.982   4.464  17.568  0.00  0.00    +0.000 NA
ATOM      2  C   UNL     1       6.419   4.710  17.819  0.00  0.00    +0.000 C 
ATOM      3  C   UNL     1       7.156   5.357  16.639  0.00  0.00    +0.000 C 
ATOM      4  N   UNL     1       6.699   4.821  15.385  0.00  0.00    +0.000 N 
ATOM      5  C   UNL     1       5.672   3.962  15.215  0.00  0.00    +0.000 A 
ATOM      6  N   UNL     1       5.552   3.496  14.003  0.00  0.00    +0.000 NA
ATOM      7  N   UNL     1       6.548   4.154  13.304  0.00  0.00    +0.000 N 
ATOM      8  C   UNL     1       6.967   3.790  11.982  0.00  0.00    +0.000 C 
ATOM      9  C   UNL     1       7.269   4.990  14.157  0.00  0.00    +0.000 A 
ATOM     10  O   UNL     1       8.222   5.701  13.882  0.00  0.00    +0.000 OA
ATOM     11  C   UNL     1       4.808   3.574  16.394  0.00  0.00    +0.000 C 
ENDROOT
BRANCH   1  12
ATOM     12  C   UNL     1       4.204   5.714  17.454  0.00  0.00    +0.000 C 
BRANCH  12  18
ATOM     13  C   UNL     1       1.410   3.524  21.029  0.00  0.00    +0.000 C 
ATOM     14  C   UNL     1       1.810   4.766  20.290  0.00  0.00    +0.000 A 
ATOM     15  C   UNL     1       1.414   6.028  20.743  0.00  0.00    +0.000 A 
ATOM     16  C   UNL     1       1.898   7.182  20.125  0.00  0.00    +0.000 A 
ATOM     17  C   UNL     1       2.783   7.087  19.050  0.00  0.00    +0.000 A 
ATOM     18  C   UNL     1       3.167   5.832  18.559  0.00  0.00    +0.000 A 
ATOM     19  C   UNL     1       2.642   4.676  19.167  0.00  0.00    +0.000 A 
ENDBRANCH  12  18
ENDBRANCH   1  12
TORSDOF 2
ENDMDL
MODEL 2
REMARK VINA RESULT:      -7.0      3.053      6.569
REMARK  Name = 
REMARK  4 active torsions:
REMARK  status: ('A' for Active; 'I' for Inactive)
REMARK    1  A    between atoms: C_1  and  C_2
REMARK    2  A    between atoms: C_6  and  C_7
REMARK    3  A    between atoms: C_7  and  N_8
REMARK    4  A    between atoms: N_14  and  C_15
REMARK                            x       y       z     vdW  Elec       q    Type
REMARK                         _______ _______ _______ _____ _____    ______ ____
ROOT
ATOM      1  N   UNL     1       5.832   5.499  16.695  0.00  0.00    +0.000 NA
ATOM      2  C   UNL     1       5.988   5.847  18.125  0.00  0.00    +0.000 C 
ATOM      3  C   UNL     1       5.566   4.730  19.087  0.00  0.00    +0.000 C 
ATOM      4  N   UNL     1       4.392   4.050  18.610  0.00  0.00    +0.000 N 
ATOM      5  C   UNL     1       3.790   4.246  17.419  0.00  0.00    +0.000 A 
ATOM      6  N   UNL     1       2.649   3.628  17.280  0.00  0.00    +0.000 NA
ATOM      7  N   UNL     1       2.525   2.915  18.459  0.00  0.00    +0.000 N 
ATOM      8  C   UNL     1       1.314   2.270  18.875  0.00  0.00    +0.000 C 
ATOM      9  C   UNL     1       3.611   3.167  19.296  0.00  0.00    +0.000 A 
ATOM     10  O   UNL     1       3.817   2.722  20.415  0.00  0.00    +0.000 OA
ATOM     11  C   UNL     1       4.417   5.168  16.396  0.00  0.00    +0.000 C 
ENDROOT
BRANCH   1  12
ATOM     12  C   UNL     1       6.766   4.442  16.262  0.00  0.00    +0.000 C 
BRANCH  12  18
ATOM     13  C   UNL     1       5.207   2.842  11.746  0.00  0.00    +0.000 C 
ATOM     14  C   UNL     1       6.177   3.644  12.563  0.00  0.00    +0.000 A 
ATOM     15  C   UNL     1       7.071   4.526  11.950  0.00  0.00    +0.000 A 
ATOM     16  C   UNL     1       7.879   5.361  12.723  0.00  0.00    +0.000 A 
ATOM     17  C   UNL     1       7.799   5.324  14.116  0.00  0.00    +0.000 A 
ATOM     18  C   UNL     1       6.934   4.424  14.752  0.00  0.00    +0.000 A 
ATOM     19  C   UNL     1       6.153   3.561  13.961  0.00  0.00    +0.000 A 
ENDBRANCH  12  18
ENDBRANCH   1  12
TORSDOF 2
ENDMDL
MODEL 3
REMARK VINA RESULT:      -6.8      2.644      6.928
REMARK  Name = 
REMARK  4 active torsions:
REMARK  status: ('A' for Active; 'I' for Inactive)
REMARK    1  A    between atoms: C_1  and  C_2
REMARK    2  A    between atoms: C_6  and  C_7
REMARK    3  A    between atoms: C_7  and  N_8
REMARK    4  A    between atoms: N_14  and  C_15
REMARK                            x       y       z     vdW  Elec       q    Type
REMARK                         _______ _______ _______ _____ _____    ______ ____
ROOT
ATOM      1  N   UNL     1       5.768   5.437  16.844  0.00  0.00    +0.000 NA
ATOM      2  C   UNL     1       6.275   4.778  18.068  0.00  0.00    +0.000 C 
ATOM      3  C   UNL     1       5.172   4.312  19.027  0.00  0.00    +0.000 C 
ATOM      4  N   UNL     1       4.097   5.266  19.084  0.00  0.00    +0.000 N 
ATOM      5  C   UNL     1       3.972   6.369  18.317  0.00  0.00    +0.000 A 
ATOM      6  N   UNL     1       2.997   7.162  18.665  0.00  0.00    +0.000 NA
ATOM      7  N   UNL     1       2.392   6.490  19.711  0.00  0.00    +0.000 N 
ATOM      8  C   UNL     1       1.418   7.082  20.580  0.00  0.00    +0.000 C 
ATOM      9  C   UNL     1       3.068   5.300  19.979  0.00  0.00    +0.000 A 
ATOM     10  O   UNL     1       2.821   4.474  20.843  0.00  0.00    +0.000 OA
ATOM     11  C   UNL     1       4.956   6.626  17.197  0.00  0.00    +0.000 C 
ENDROOT
BRANCH   1  12
ATOM     12  C   UNL     1       5.052   4.504  15.952  0.00  0.00    +0.000 C 
BRANCH  12  18
ATOM     13  C   UNL     1       5.161   2.611  11.284  0.00  0.00    +0.000 C 
ATOM     14  C   UNL     1       5.841   3.382  12.376  0.00  0.00    +0.000 A 
ATOM     15  C   UNL     1       7.021   4.087  12.125  0.00  0.00    +0.000 A 
ATOM     16  C   UNL     1       7.576   4.905  13.110  0.00  0.00    +0.000 A 
ATOM     17  C   UNL     1       6.956   5.028  14.354  0.00  0.00    +0.000 A 
ATOM     18  C   UNL     1       5.790   4.305  14.639  0.00  0.00    +0.000 A 
ATOM     19  C   UNL     1       5.262   3.454  13.649  0.00  0.00    +0.000 A 
ENDBRANCH  12  18
ENDBRANCH   1  12
TORSDOF 2
ENDMDL
MODEL 4
REMARK VINA RESULT:      -6.7      0.492      1.651
REMARK  Name = 
REMARK  4 active torsions:
REMARK  status: ('A' for Active; 'I' for Inactive)
REMARK    1  A    between atoms: C_1  and  C_2
REMARK    2  A    between atoms: C_6  and  C_7
REMARK    3  A    between atoms: C_7  and  N_8
REMARK    4  A    between atoms: N_14  and  C_15
REMARK                            x       y       z     vdW  Elec       q    Type
REMARK                         _______ _______ _______ _____ _____    ______ ____
ROOT
ATOM      1  N   UNL     1       5.027   4.484  17.796  0.00  0.00    +0.000 NA
ATOM      2  C   UNL     1       6.471   4.725  18.012  0.00  0.00    +0.000 C 
ATOM      3  C   UNL     1       7.183   5.360  16.811  0.00  0.00    +0.000 C 
ATOM      4  N   UNL     1       6.696   4.817  15.572  0.00  0.00    +0.000 N 
ATOM      5  C   UNL     1       5.662   3.962  15.432  0.00  0.00    +0.000 A 
ATOM      6  N   UNL     1       5.512   3.487  14.226  0.00  0.00    +0.000 NA
ATOM      7  N   UNL     1       6.494   4.136  13.500  0.00  0.00    +0.000 N 
ATOM      8  C   UNL     1       6.881   3.761  12.172  0.00  0.00    +0.000 C 
ATOM      9  C   UNL     1       7.238   4.974  14.330  0.00  0.00    +0.000 A 
ATOM     10  O   UNL     1       8.188   5.679  14.029  0.00  0.00    +0.000 OA
ATOM     11  C   UNL     1       4.822   3.586  16.633  0.00  0.00    +0.000 C 
ENDROOT
BRANCH   1  12
ATOM     12  C   UNL     1       4.253   5.736  17.691  0.00  0.00    +0.000 C 
BRANCH  12  18
ATOM     13  C   UNL     1       1.128   8.690  20.317  0.00  0.00    +0.000 C 
ATOM     14  C   UNL     1       1.837   7.377  20.170  0.00  0.00    +0.000 A 
ATOM     15  C   UNL     1       1.512   6.292  20.989  0.00  0.00    +0.000 A 
ATOM     16  C   UNL     1       2.083   5.040  20.760  0.00  0.00    +0.000 A 
ATOM     17  C   UNL     1       2.984   4.859  19.709  0.00  0.00    +0.000 A 
ATOM     18  C   UNL     1       3.350   5.940  18.896  0.00  0.00    +0.000 A 
ATOM     19  C   UNL     1       2.795   7.206  19.162  0.00  0.00    +0.000 A 
ENDBRANCH  12  18
ENDBRANCH   1  12
TORSDOF 2
ENDMDL
MODEL 5
REMARK VINA RESULT:      -6.5      1.442      2.448
REMARK  Name = 
REMARK  4 active torsions:
REMARK  status: ('A' for Active; 'I' for Inactive)
REMARK    1  A    between atoms: C_1  and  C_2
REMARK    2  A    between atoms: C_6  and  C_7
REMARK    3  A    between atoms: C_7  and  N_8
REMARK    4  A    between atoms: N_14  and  C_15
REMARK                            x       y       z     vdW  Elec       q    Type
REMARK                         _______ _______ _______ _____ _____    ______ ____
ROOT
ATOM      1  N   UNL     1       4.486   5.656  17.725  0.00  0.00    +0.000 NA
ATOM      2  C   UNL     1       5.930   5.785  18.024  0.00  0.00    +0.000 C 
ATOM      3  C   UNL     1       6.800   6.046  16.788  0.00  0.00    +0.000 C 
ATOM      4  N   UNL     1       6.338   5.287  15.658  0.00  0.00    +0.000 N 
ATOM      5  C   UNL     1       5.217   4.538  15.609  0.00  0.00    +0.000 A 
ATOM      6  N   UNL     1       5.095   3.816  14.529  0.00  0.00    +0.000 NA
ATOM      7  N   UNL     1       6.200   4.171  13.778  0.00  0.00    +0.000 N 
ATOM      8  C   UNL     1       6.631   3.461  12.609  0.00  0.00    +0.000 C 
ATOM      9  C   UNL     1       6.983   5.095  14.471  0.00  0.00    +0.000 A 
ATOM     10  O   UNL     1       8.033   5.606  14.116  0.00  0.00    +0.000 OA
ATOM     11  C   UNL     1       4.253   4.542  16.775  0.00  0.00    +0.000 C 
ENDROOT
BRANCH   1  12
ATOM     12  C   UNL     1       3.885   6.925  17.271  0.00  0.00    +0.000 C 
BRANCH  12  18
ATOM     13  C   UNL     1       0.536  10.440  18.621  0.00  0.00    +0.000 C 
ATOM     14  C   UNL     1       1.350   9.232  18.981  0.00  0.00    +0.000 A 
ATOM     15  C   UNL     1       1.115   8.540  20.172  0.00  0.00    +0.000 A 
ATOM     16  C   UNL     1       1.786   7.346  20.438  0.00  0.00    +0.000 A 
ATOM     17  C   UNL     1       2.696   6.830  19.514  0.00  0.00    +0.000 A 
ATOM     18  C   UNL     1       2.971   7.524  18.328  0.00  0.00    +0.000 A 
ATOM     19  C   UNL     1       2.316   8.746  18.091  0.00  0.00    +0.000 A 
ENDBRANCH  12  18
ENDBRANCH   1  12
TORSDOF 2
ENDMDL
MODEL 6
REMARK VINA RESULT:      -6.5      2.624      6.652
REMARK  Name = 
REMARK  4 active torsions:
REMARK  status: ('A' for Active; 'I' for Inactive)
REMARK    1  A    between atoms: C_1  and  C_2
REMARK    2  A    between atoms: C_6  and  C_7
REMARK    3  A    between atoms: C_7  and  N_8
REMARK    4  A    between atoms: N_14  and  C_15
REMARK                            x       y       z     vdW  Elec       q    Type
REMARK                         _______ _______ _______ _____ _____    ______ ____
ROOT
ATOM      1  N   UNL     1       6.525   6.054  16.338  0.00  0.00    +0.000 NA
ATOM      2  C   UNL     1       6.972   6.444  17.694  0.00  0.00    +0.000 C 
ATOM      3  C   UNL     1       6.381   5.583  18.817  0.00  0.00    +0.000 C 
ATOM      4  N   UNL     1       5.006   5.256  18.550  0.00  0.00    +0.000 N 
ATOM      5  C   UNL     1       4.328   5.534  17.418  0.00  0.00    +0.000 A 
ATOM      6  N   UNL     1       3.050   5.280  17.476  0.00  0.00    +0.000 NA
ATOM      7  N   UNL     1       2.888   4.729  18.734  0.00  0.00    +0.000 N 
ATOM      8  C   UNL     1       1.611   4.513  19.350  0.00  0.00    +0.000 C 
ATOM      9  C   UNL     1       4.106   4.704  19.414  0.00  0.00    +0.000 A 
ATOM     10  O   UNL     1       4.325   4.303  20.546  0.00  0.00    +0.000 OA
ATOM     11  C   UNL     1       5.049   6.144  16.235  0.00  0.00    +0.000 C 
ENDROOT
BRANCH   1  12
ATOM     12  C   UNL     1       7.044   4.734  15.928  0.00  0.00    +0.000 C 
BRANCH  12  18
ATOM     13  C   UNL     1       5.131   2.779  11.697  0.00  0.00    +0.000 C 
ATOM     14  C   UNL     1       6.161   3.641  12.365  0.00  0.00    +0.000 A 
ATOM     15  C   UNL     1       6.999   4.467  11.613  0.00  0.00    +0.000 A 
ATOM     16  C   UNL     1       7.864   5.360  12.247  0.00  0.00    +0.000 A 
ATOM     17  C   UNL     1       7.897   5.436  13.641  0.00  0.00    +0.000 A 
ATOM     18  C   UNL     1       7.089   4.594  14.415  0.00  0.00    +0.000 A 
ATOM     19  C   UNL     1       6.250   3.672  13.763  0.00  0.00    +0.000 A 
ENDBRANCH  12  18
ENDBRANCH   1  12
TORSDOF 2
ENDMDL
MODEL 7
REMARK VINA RESULT:      -6.5      2.593      6.902
REMARK  Name = 
REMARK  4 active torsions:
REMARK  status: ('A' for Active; 'I' for Inactive)
REMARK    1  A    between atoms: C_1  and  C_2
REMARK    2  A    between atoms: C_6  and  C_7
REMARK    3  A    between atoms: C_7  and  N_8
REMARK    4  A    between atoms: N_14  and  C_15
REMARK                            x       y       z     vdW  Elec       q    Type
REMARK                         _______ _______ _______ _____ _____    ______ ____
ROOT
ATOM      1  N   UNL     1       5.905   4.712  16.882  0.00  0.00    +0.000 NA
ATOM      2  C   UNL     1       5.343   3.345  16.966  0.00  0.00    +0.000 C 
ATOM      3  C   UNL     1       3.830   3.308  17.216  0.00  0.00    +0.000 C 
ATOM      4  N   UNL     1       3.431   4.336  18.139  0.00  0.00    +0.000 N 
ATOM      5  C   UNL     1       4.224   5.306  18.639  0.00  0.00    +0.000 A 
ATOM      6  N   UNL     1       3.675   6.023  19.580  0.00  0.00    +0.000 NA
ATOM      7  N   UNL     1       2.390   5.519  19.660  0.00  0.00    +0.000 N 
ATOM      8  C   UNL     1       1.479   5.826  20.723  0.00  0.00    +0.000 C 
ATOM      9  C   UNL     1       2.224   4.467  18.760  0.00  0.00    +0.000 A 
ATOM     10  O   UNL     1       1.228   3.784  18.578  0.00  0.00    +0.000 OA
ATOM     11  C   UNL     1       5.645   5.455  18.138  0.00  0.00    +0.000 C 
ENDROOT
BRANCH   1  12
ATOM     12  C   UNL     1       5.445   5.442  15.684  0.00  0.00    +0.000 C 
BRANCH  12  18
ATOM     13  C   UNL     1       4.793   2.779  11.456  0.00  0.00    +0.000 C 
ATOM     14  C   UNL     1       5.704   3.554  12.361  0.00  0.00    +0.000 A 
ATOM     15  C   UNL     1       6.989   3.914  11.945  0.00  0.00    +0.000 A 
ATOM     16  C   UNL     1       7.781   4.744  12.740  0.00  0.00    +0.000 A 
ATOM     17  C   UNL     1       7.295   5.224  13.957  0.00  0.00    +0.000 A 
ATOM     18  C   UNL     1       6.023   4.849  14.409  0.00  0.00    +0.000 A 
ATOM     19  C   UNL     1       5.250   3.981  13.615  0.00  0.00    +0.000 A 
ENDBRANCH  12  18
ENDBRANCH   1  12
TORSDOF 2
ENDMDL
MODEL 8
REMARK VINA RESULT:      -6.5      2.807      6.983
REMARK  Name = 
REMARK  4 active torsions:
REMARK  status: ('A' for Active; 'I' for Inactive)
REMARK    1  A    between atoms: C_1  and  C_2
REMARK    2  A    between atoms: C_6  and  C_7
REMARK    3  A    between atoms: C_7  and  N_8
REMARK    4  A    between atoms: N_14  and  C_15
REMARK                            x       y       z     vdW  Elec       q    Type
REMARK                         _______ _______ _______ _____ _____    ______ ____
ROOT
ATOM      1  N   UNL     1       5.399   5.082  16.787  0.00  0.00    +0.000 NA
ATOM      2  C   UNL     1       6.048   5.110  18.116  0.00  0.00    +0.000 C 
ATOM      3  C   UNL     1       5.452   4.118  19.123  0.00  0.00    +0.000 C 
ATOM      4  N   UNL     1       4.021   4.045  18.994  0.00  0.00    +0.000 N 
ATOM      5  C   UNL     1       3.278   4.648  18.043  0.00  0.00    +0.000 A 
ATOM      6  N   UNL     1       1.989   4.564  18.230  0.00  0.00    +0.000 NA
ATOM      7  N   UNL     1       1.879   3.785  19.367  0.00  0.00    +0.000 N 
ATOM      8  C   UNL     1       0.660   3.619  20.103  0.00  0.00    +0.000 C 
ATOM      9  C   UNL     1       3.143   3.449  19.851  0.00  0.00    +0.000 A 
ATOM     10  O   UNL     1       3.418   2.791  20.842  0.00  0.00    +0.000 OA
ATOM     11  C   UNL     1       3.954   5.392  16.912  0.00  0.00    +0.000 C 
ENDROOT
BRANCH   1  12
ATOM     12  C   UNL     1       5.649   3.821  16.060  0.00  0.00    +0.000 C 
BRANCH  12  18
ATOM     13  C   UNL     1       8.832   5.980  12.806  0.00  0.00    +0.000 C 
ATOM     14  C   UNL     1       7.622   5.129  13.049  0.00  0.00    +0.000 A 
ATOM     15  C   UNL     1       7.033   4.408  12.006  0.00  0.00    +0.000 A 
ATOM     16  C   UNL     1       5.988   3.519  12.265  0.00  0.00    +0.000 A 
ATOM     17  C   UNL     1       5.524   3.341  13.569  0.00  0.00    +0.000 A 
ATOM     18  C   UNL     1       6.078   4.077  14.625  0.00  0.00    +0.000 A 
ATOM     19  C   UNL     1       7.104   4.998  14.344  0.00  0.00    +0.000 A 
ENDBRANCH  12  18
ENDBRANCH   1  12
TORSDOF 2
ENDMDL
MODEL 9
REMARK VINA RESULT:      -6.4      1.538      1.742
REMARK  Name = 
REMARK  4 active torsions:
REMARK  status: ('A' for Active; 'I' for Inactive)
REMARK    1  A    between atoms: C_1  and  C_2
REMARK    2  A    between atoms: C_6  and  C_7
REMARK    3  A    between atoms: C_7  and  N_8
REMARK    4  A    between atoms: N_14  and  C_15
REMARK                            x       y       z     vdW  Elec       q    Type
REMARK                         _______ _______ _______ _____ _____    ______ ____
ROOT
ATOM      1  N   UNL     1       5.940   4.786  18.966  0.00  0.00    +0.000 NA
ATOM      2  C   UNL     1       7.180   5.525  18.640  0.00  0.00    +0.000 C 
ATOM      3  C   UNL     1       7.223   6.069  17.207  0.00  0.00    +0.000 C 
ATOM      4  N   UNL     1       6.648   5.132  16.279  0.00  0.00    +0.000 N 
ATOM      5  C   UNL     1       6.024   3.980  16.598  0.00  0.00    +0.000 A 
ATOM      6  N   UNL     1       5.730   3.223  15.577  0.00  0.00    +0.000 NA
ATOM      7  N   UNL     1       6.140   3.974  14.491  0.00  0.00    +0.000 N 
ATOM      8  C   UNL     1       6.245   3.455  13.159  0.00  0.00    +0.000 C 
ATOM      9  C   UNL     1       6.711   5.173  14.917  0.00  0.00    +0.000 A 
ATOM     10  O   UNL     1       7.192   6.061  14.231  0.00  0.00    +0.000 OA
ATOM     11  C   UNL     1       5.771   3.633  18.049  0.00  0.00    +0.000 C 
ENDROOT
BRANCH   1  12
ATOM     12  C   UNL     1       4.752   5.661  19.005  0.00  0.00    +0.000 C 
BRANCH  12  18
ATOM     13  C   UNL     1       1.330   2.882  21.445  0.00  0.00    +0.000 C 
ATOM     14  C   UNL     1       1.806   3.506  20.167  0.00  0.00    +0.000 A 
ATOM     15  C   UNL     1       0.984   3.540  19.037  0.00  0.00    +0.000 A 
ATOM     16  C   UNL     1       1.384   4.235  17.895  0.00  0.00    +0.000 A 
ATOM     17  C   UNL     1       2.608   4.904  17.871  0.00  0.00    +0.000 A 
ATOM     18  C   UNL     1       3.463   4.857  18.981  0.00  0.00    +0.000 A 
ATOM     19  C   UNL     1       3.064   4.121  20.112  0.00  0.00    +0.000 A 
ENDBRANCH  12  18
ENDBRANCH   1  12
TORSDOF 2
ENDMDL
