MODEL 1
REMARK VINA RESULT:      -6.5      0.000      0.000
REMARK  Name = 
REMARK  11 active torsions:
REMARK  status: ('A' for Active; 'I' for Inactive)
REMARK    1  A    between atoms: C_1  and  O_2
REMARK    2  A    between atoms: O_2  and  C_3
REMARK    3  A    between atoms: C_5  and  C_6
REMARK    4  A    between atoms: C_6  and  C_7
REMARK    5  A    between atoms: C_7  and  N_8
REMARK    6  A    between atoms: N_8  and  C_9
REMARK    7  A    between atoms: C_9  and  C_10
REMARK    8  A    between atoms: C_15  and  O_16
REMARK    9  A    between atoms: O_16  and  C_17
REMARK   10  A    between atoms: C_18  and  O_19
REMARK   11  A    between atoms: O_19  and  C_20
REMARK                            x       y       z     vdW  Elec       q    Type
REMARK                         _______ _______ _______ _____ _____    ______ ____
ROOT
ATOM      1  C   UNL     1       4.182   2.707  16.775  0.00  0.00    +0.000 C 
ENDROOT
BRANCH   1   4
ATOM      2  C   UNL     1       6.285   5.412  18.532  0.00  0.00    +0.000 A 
ATOM      3  C   UNL     1       5.443   4.331  18.284  0.00  0.00    +0.000 A 
ATOM      4  C   UNL     1       5.016   3.976  16.990  0.00  0.00    +0.000 A 
ATOM      5  C   UNL     1       5.391   4.808  15.920  0.00  0.00    +0.000 A 
ATOM      6  C   UNL     1       6.182   5.941  16.169  0.00  0.00    +0.000 A 
ATOM      7  C   UNL     1       6.630   6.235  17.464  0.00  0.00    +0.000 A 
ATOM      8 BR   UNL     1       7.734   7.760  17.714  0.00  0.00    +0.000 Br
BRANCH   2  10
ATOM      9  C   UNL     1       8.114   5.289  20.024  0.00  0.00    +0.000 C 
ATOM     10  O   UNL     1       6.764   5.694  19.787  0.00  0.00    +0.000 OA
ENDBRANCH   2  10
BRANCH   5  11
ATOM     11  O   UNL     1       4.948   4.434  14.678  0.00  0.00    +0.000 OA
ATOM     12  C   UNL     1       5.905   3.859  13.793  0.00  0.00    +0.000 C 
ENDBRANCH   5  11
ENDBRANCH   1   4
BRANCH   1  13
ATOM     13  C   UNL     1       3.663   2.114  18.100  0.00  0.00    +0.000 C 
BRANCH  13  14
ATOM     14  N   UNL     1       2.218   1.993  18.282  0.00  0.00    +0.000 NA
ATOM     15  H   UNL     1       1.993   1.909  19.270  0.00  0.00    +0.000 HD
BRANCH  14  16
ATOM     16  C   UNL     1       1.596   3.209  17.728  0.00  0.00    +0.000 C 
BRANCH  16  17
ATOM     17  C   UNL     1       1.689   4.383  18.659  0.00  0.00    +0.000 A 
ATOM     18  C   UNL     1       2.185   5.583  18.102  0.00  0.00    +0.000 A 
ATOM     19  C   UNL     1       2.415   6.711  18.884  0.00  0.00    +0.000 A 
ATOM     20  C   UNL     1       2.131   6.673  20.240  0.00  0.00    +0.000 A 
ATOM     21  C   UNL     1       1.630   5.496  20.805  0.00  0.00    +0.000 A 
ATOM     22  C   UNL     1       1.401   4.348  20.032  0.00  0.00    +0.000 A 
BRANCH  22  23
ATOM     23  O   UNL     1       1.050   3.252  20.775  0.00  0.00    +0.000 OA
ATOM     24  C   UNL     1       1.988   2.769  21.725  0.00  0.00    +0.000 C 
ENDBRANCH  22  23
ENDBRANCH  16  17
ENDBRANCH  14  16
ENDBRANCH  13  14
ENDBRANCH   1  13
TORSDOF 8
ENDMDL
MODEL 2
REMARK VINA RESULT:      -6.4      2.087      5.651
REMARK  Name = 
REMARK  11 active torsions:
REMARK  status: ('A' for Active; 'I' for Inactive)
REMARK    1  A    between atoms: C_1  and  O_2
REMARK    2  A    between atoms: O_2  and  C_3
REMARK    3  A    between atoms: C_5  and  C_6
REMARK    4  A    between atoms: C_6  and  C_7
REMARK    5  A    between atoms: C_7  and  N_8
REMARK    6  A    between atoms: N_8  and  C_9
REMARK    7  A    between atoms: C_9  and  C_10
REMARK    8  A    between atoms: C_15  and  O_16
REMARK    9  A    between atoms: O_16  and  C_17
REMARK   10  A    between atoms: C_18  and  O_19
REMARK   11  A    between atoms: O_19  and  C_20
REMARK                            x       y       z     vdW  Elec       q    Type
REMARK                         _______ _______ _______ _____ _____    ______ ____
ROOT
ATOM      1  C   UNL     1       1.996   3.470  17.593  0.00  0.00    +0.000 C 
ENDROOT
BRANCH   1   4
ATOM      2  C   UNL     1       2.260   7.049  18.989  0.00  0.00    +0.000 A 
ATOM      3  C   UNL     1       2.383   5.920  18.181  0.00  0.00    +0.000 A 
ATOM      4  C   UNL     1       1.935   4.645  18.575  0.00  0.00    +0.000 A 
ATOM      5  C   UNL     1       1.423   4.499  19.877  0.00  0.00    +0.000 A 
ATOM      6  C   UNL     1       1.361   5.616  20.725  0.00  0.00    +0.000 A 
ATOM      7  C   UNL     1       1.770   6.881  20.281  0.00  0.00    +0.000 A 
ATOM      8 BR   UNL     1       1.612   8.352  21.471  0.00  0.00    +0.000 Br
BRANCH   2  10
ATOM      9  C   UNL     1       1.665   8.948  17.716  0.00  0.00    +0.000 C 
ATOM     10  O   UNL     1       2.620   8.300  18.558  0.00  0.00    +0.000 OA
ENDBRANCH   2  10
BRANCH   5  11
ATOM     11  O   UNL     1       1.006   3.241  20.226  0.00  0.00    +0.000 OA
ATOM     12  C   UNL     1       1.468   2.726  21.471  0.00  0.00    +0.000 C 
ENDBRANCH   5  11
ENDBRANCH   1   4
BRANCH   1  13
ATOM     13  C   UNL     1       2.939   2.350  18.075  0.00  0.00    +0.000 C 
BRANCH  13  14
ATOM     14  N   UNL     1       4.359   2.455  17.749  0.00  0.00    +0.000 NA
ATOM     15  H   UNL     1       4.480   2.848  16.818  0.00  0.00    +0.000 HD
BRANCH  14  16
ATOM     16  C   UNL     1       4.981   3.341  18.749  0.00  0.00    +0.000 C 
BRANCH  16  17
ATOM     17  C   UNL     1       5.861   4.388  18.130  0.00  0.00    +0.000 A 
ATOM     18  C   UNL     1       6.382   5.364  19.009  0.00  0.00    +0.000 A 
ATOM     19  C   UNL     1       7.126   6.443  18.541  0.00  0.00    +0.000 A 
ATOM     20  C   UNL     1       7.388   6.559  17.186  0.00  0.00    +0.000 A 
ATOM     21  C   UNL     1       6.888   5.596  16.304  0.00  0.00    +0.000 A 
ATOM     22  C   UNL     1       6.129   4.506  16.757  0.00  0.00    +0.000 A 
BRANCH  22  23
ATOM     23  O   UNL     1       5.603   3.749  15.745  0.00  0.00    +0.000 OA
ATOM     24  C   UNL     1       5.973   4.077  14.413  0.00  0.00    +0.000 C 
ENDBRANCH  22  23
ENDBRANCH  16  17
ENDBRANCH  14  16
ENDBRANCH  13  14
ENDBRANCH   1  13
TORSDOF 8
ENDMDL
MODEL 3
REMARK VINA RESULT:      -6.3      5.085      7.815
REMARK  Name = 
REMARK  11 active torsions:
REMARK  status: ('A' for Active; 'I' for Inactive)
REMARK    1  A    between atoms: C_1  and  O_2
REMARK    2  A    between atoms: O_2  and  C_3
REMARK    3  A    between atoms: C_5  and  C_6
REMARK    4  A    between atoms: C_6  and  C_7
REMARK    5  A    between atoms: C_7  and  N_8
REMARK    6  A    between atoms: N_8  and  C_9
REMARK    7  A    between atoms: C_9  and  C_10
REMARK    8  A    between atoms: C_15  and  O_16
REMARK    9  A    between atoms: O_16  and  C_17
REMARK   10  A    between atoms: C_18  and  O_19
REMARK   11  A    between atoms: O_19  and  C_20
REMARK                            x       y       z     vdW  Elec       q    Type
REMARK                         _______ _______ _______ _____ _____    ______ ____
ROOT
ATOM      1  C   UNL     1       7.748   6.705  18.156  0.00  0.00    +0.000 C 
ENDROOT
BRANCH   1   4
ATOM      2  C   UNL     1       4.545   4.714  18.938  0.00  0.00    +0.000 A 
ATOM      3  C   UNL     1       5.648   5.559  19.040  0.00  0.00    +0.000 A 
ATOM      4  C   UNL     1       6.621   5.673  18.029  0.00  0.00    +0.000 A 
ATOM      5  C   UNL     1       6.511   4.828  16.910  0.00  0.00    +0.000 A 
ATOM      6  C   UNL     1       5.442   3.922  16.830  0.00  0.00    +0.000 A 
ATOM      7  C   UNL     1       4.464   3.872  17.833  0.00  0.00    +0.000 A 
ATOM      8 BR   UNL     1       3.023   2.653  17.631  0.00  0.00    +0.000 Br
BRANCH   2  10
ATOM      9  C   UNL     1       2.629   5.762  19.840  0.00  0.00    +0.000 C 
ATOM     10  O   UNL     1       3.560   4.679  19.892  0.00  0.00    +0.000 OA
ENDBRANCH   2  10
BRANCH   5  11
ATOM     11  O   UNL     1       7.483   4.962  15.952  0.00  0.00    +0.000 OA
ATOM     12  C   UNL     1       7.070   4.870  14.592  0.00  0.00    +0.000 C 
ENDBRANCH   5  11
ENDBRANCH   1   4
BRANCH   1  13
ATOM     13  C   UNL     1       7.314   8.107  17.685  0.00  0.00    +0.000 C 
BRANCH  13  14
ATOM     14  N   UNL     1       8.352   9.112  17.463  0.00  0.00    +0.000 NA
ATOM     15  H   UNL     1       8.009   9.844  16.846  0.00  0.00    +0.000 HD
BRANCH  14  16
ATOM     16  C   UNL     1       8.703   9.687  18.774  0.00  0.00    +0.000 C 
BRANCH  16  17
ATOM     17  C   UNL     1       9.518  10.942  18.657  0.00  0.00    +0.000 A 
ATOM     18  C   UNL     1      10.704  10.989  19.424  0.00  0.00    +0.000 A 
ATOM     19  C   UNL     1      11.490  12.135  19.481  0.00  0.00    +0.000 A 
ATOM     20  C   UNL     1      11.123  13.255  18.753  0.00  0.00    +0.000 A 
ATOM     21  C   UNL     1       9.958  13.222  17.981  0.00  0.00    +0.000 A 
ATOM     22  C   UNL     1       9.148  12.077  17.919  0.00  0.00    +0.000 A 
BRANCH  22  23
ATOM     23  O   UNL     1       7.978  12.273  17.236  0.00  0.00    +0.000 OA
ATOM     24  C   UNL     1       7.282  13.491  17.452  0.00  0.00    +0.000 C 
ENDBRANCH  22  23
ENDBRANCH  16  17
ENDBRANCH  14  16
ENDBRANCH  13  14
ENDBRANCH   1  13
TORSDOF 8
ENDMDL
MODEL 4
REMARK VINA RESULT:      -6.2      2.621      4.196
REMARK  Name = 
REMARK  11 active torsions:
REMARK  status: ('A' for Active; 'I' for Inactive)
REMARK    1  A    between atoms: C_1  and  O_2
REMARK    2  A    between atoms: O_2  and  C_3
REMARK    3  A    between atoms: C_5  and  C_6
REMARK    4  A    between atoms: C_6  and  C_7
REMARK    5  A    between atoms: C_7  and  N_8
REMARK    6  A    between atoms: N_8  and  C_9
REMARK    7  A    between atoms: C_9  and  C_10
REMARK    8  A    between atoms: C_15  and  O_16
REMARK    9  A    between atoms: O_16  and  C_17
REMARK   10  A    between atoms: C_18  and  O_19
REMARK   11  A    between atoms: O_19  and  C_20
REMARK                            x       y       z     vdW  Elec       q    Type
REMARK                         _______ _______ _______ _____ _____    ______ ____
ROOT
ATOM      1  C   UNL     1       5.370   5.608  16.489  0.00  0.00    +0.000 C 
ENDROOT
BRANCH   1   4
ATOM      2  C   UNL     1       2.493   7.536  18.172  0.00  0.00    +0.000 A 
ATOM      3  C   UNL     1       3.431   7.079  17.250  0.00  0.00    +0.000 A 
ATOM      4  C   UNL     1       4.441   6.156  17.579  0.00  0.00    +0.000 A 
ATOM      5  C   UNL     1       4.552   5.750  18.921  0.00  0.00    +0.000 A 
ATOM      6  C   UNL     1       3.655   6.259  19.873  0.00  0.00    +0.000 A 
ATOM      7  C   UNL     1       2.631   7.140  19.499  0.00  0.00    +0.000 A 
ATOM      8 BR   UNL     1       1.429   7.749  20.836  0.00  0.00    +0.000 Br
BRANCH   2  10
ATOM      9  C   UNL     1       1.767   9.763  17.859  0.00  0.00    +0.000 C 
ATOM     10  O   UNL     1       1.462   8.368  17.816  0.00  0.00    +0.000 OA
ENDBRANCH   2  10
BRANCH   5  11
ATOM     11  O   UNL     1       5.553   4.857  19.204  0.00  0.00    +0.000 OA
ATOM     12  C   UNL     1       6.826   5.396  19.547  0.00  0.00    +0.000 C 
ENDBRANCH   5  11
ENDBRANCH   1   4
BRANCH   1  13
ATOM     13  C   UNL     1       4.933   4.216  15.991  0.00  0.00    +0.000 C 
BRANCH  13  14
ATOM     14  N   UNL     1       4.580   3.206  16.987  0.00  0.00    +0.000 NA
ATOM     15  H   UNL     1       4.896   3.495  17.909  0.00  0.00    +0.000 HD
BRANCH  14  16
ATOM     16  C   UNL     1       3.113   3.068  16.980  0.00  0.00    +0.000 C 
BRANCH  16  17
ATOM     17  C   UNL     1       2.527   3.034  18.362  0.00  0.00    +0.000 A 
ATOM     18  C   UNL     1       1.334   3.767  18.552  0.00  0.00    +0.000 A 
ATOM     19  C   UNL     1       0.751   3.897  19.809  0.00  0.00    +0.000 A 
ATOM     20  C   UNL     1       1.334   3.277  20.902  0.00  0.00    +0.000 A 
ATOM     21  C   UNL     1       2.509   2.539  20.729  0.00  0.00    +0.000 A 
ATOM     22  C   UNL     1       3.115   2.405  19.471  0.00  0.00    +0.000 A 
BRANCH  22  23
ATOM     23  O   UNL     1       4.330   1.775  19.515  0.00  0.00    +0.000 OA
ATOM     24  C   UNL     1       4.958   1.637  20.781  0.00  0.00    +0.000 C 
ENDBRANCH  22  23
ENDBRANCH  16  17
ENDBRANCH  14  16
ENDBRANCH  13  14
ENDBRANCH   1  13
TORSDOF 8
ENDMDL
MODEL 5
REMARK VINA RESULT:      -6.2      3.517      4.650
REMARK  Name = 
REMARK  11 active torsions:
REMARK  status: ('A' for Active; 'I' for Inactive)
REMARK    1  A    between atoms: C_1  and  O_2
REMARK    2  A    between atoms: O_2  and  C_3
REMARK    3  A    between atoms: C_5  and  C_6
REMARK    4  A    between atoms: C_6  and  C_7
REMARK    5  A    between atoms: C_7  and  N_8
REMARK    6  A    between atoms: N_8  and  C_9
REMARK    7  A    between atoms: C_9  and  C_10
REMARK    8  A    between atoms: C_15  and  O_16
REMARK    9  A    between atoms: O_16  and  C_17
REMARK   10  A    between atoms: C_18  and  O_19
REMARK   11  A    between atoms: O_19  and  C_20
REMARK                            x       y       z     vdW  Elec       q    Type
REMARK                         _______ _______ _______ _____ _____    ______ ____
ROOT
ATOM      1  C   UNL     1       3.292   5.208  19.976  0.00  0.00    +0.000 C 
ENDROOT
BRANCH   1   4
ATOM      2  C   UNL     1       5.612   6.072  17.026  0.00  0.00    +0.000 A 
ATOM      3  C   UNL     1       4.794   6.163  18.150  0.00  0.00    +0.000 A 
ATOM      4  C   UNL     1       4.082   5.066  18.669  0.00  0.00    +0.000 A 
ATOM      5  C   UNL     1       4.136   3.851  17.963  0.00  0.00    +0.000 A 
ATOM      6  C   UNL     1       4.901   3.767  16.789  0.00  0.00    +0.000 A 
ATOM      7  C   UNL     1       5.637   4.868  16.329  0.00  0.00    +0.000 A 
ATOM      8 BR   UNL     1       6.684   4.663  14.759  0.00  0.00    +0.000 Br
BRANCH   2  10
ATOM      9  C   UNL     1       7.484   7.461  17.412  0.00  0.00    +0.000 C 
ATOM     10  O   UNL     1       6.368   7.128  16.584  0.00  0.00    +0.000 OA
ENDBRANCH   2  10
BRANCH   5  11
ATOM     11  O   UNL     1       3.422   2.808  18.495  0.00  0.00    +0.000 OA
ATOM     12  C   UNL     1       2.256   2.394  17.789  0.00  0.00    +0.000 C 
ENDBRANCH   5  11
ENDBRANCH   1   4
BRANCH   1  13
ATOM     13  C   UNL     1       2.042   6.095  19.812  0.00  0.00    +0.000 C 
BRANCH  13  14
ATOM     14  N   UNL     1       2.055   7.424  20.418  0.00  0.00    +0.000 NA
ATOM     15  H   UNL     1       2.919   7.569  20.935  0.00  0.00    +0.000 HD
BRANCH  14  16
ATOM     16  C   UNL     1       1.954   8.411  19.328  0.00  0.00    +0.000 C 
BRANCH  16  17
ATOM     17  C   UNL     1       0.841   9.396  19.539  0.00  0.00    +0.000 A 
ATOM     18  C   UNL     1       0.174   9.842  18.376  0.00  0.00    +0.000 A 
ATOM     19  C   UNL     1      -0.804  10.830  18.429  0.00  0.00    +0.000 A 
ATOM     20  C   UNL     1      -1.157  11.379  19.652  0.00  0.00    +0.000 A 
ATOM     21  C   UNL     1      -0.514  10.941  20.813  0.00  0.00    +0.000 A 
ATOM     22  C   UNL     1       0.481   9.952  20.776  0.00  0.00    +0.000 A 
BRANCH  22  23
ATOM     23  O   UNL     1       1.099   9.755  21.982  0.00  0.00    +0.000 OA
ATOM     24  C   UNL     1       0.278   9.489  23.110  0.00  0.00    +0.000 C 
ENDBRANCH  22  23
ENDBRANCH  16  17
ENDBRANCH  14  16
ENDBRANCH  13  14
ENDBRANCH   1  13
TORSDOF 8
ENDMDL
MODEL 6
REMARK VINA RESULT:      -6.1      4.945      7.641
REMARK  Name = 
REMARK  11 active torsions:
REMARK  status: ('A' for Active; 'I' for Inactive)
REMARK    1  A    between atoms: C_1  and  O_2
REMARK    2  A    between atoms: O_2  and  C_3
REMARK    3  A    between atoms: C_5  and  C_6
REMARK    4  A    between atoms: C_6  and  C_7
REMARK    5  A    between atoms: C_7  and  N_8
REMARK    6  A    between atoms: N_8  and  C_9
REMARK    7  A    between atoms: C_9  and  C_10
REMARK    8  A    between atoms: C_15  and  O_16
REMARK    9  A    between atoms: O_16  and  C_17
REMARK   10  A    between atoms: C_18  and  O_19
REMARK   11  A    between atoms: O_19  and  C_20
REMARK                            x       y       z     vdW  Elec       q    Type
REMARK                         _______ _______ _______ _____ _____    ______ ____
ROOT
ATOM      1  C   UNL     1       7.764   6.589  18.135  0.00  0.00    +0.000 C 
ENDROOT
BRANCH   1   4
ATOM      2  C   UNL     1       4.397   4.876  18.884  0.00  0.00    +0.000 A 
ATOM      3  C   UNL     1       5.560   5.635  18.993  0.00  0.00    +0.000 A 
ATOM      4  C   UNL     1       6.563   5.644  18.005  0.00  0.00    +0.000 A 
ATOM      5  C   UNL     1       6.414   4.780  16.906  0.00  0.00    +0.000 A 
ATOM      6  C   UNL     1       5.279   3.958  16.821  0.00  0.00    +0.000 A 
ATOM      7  C   UNL     1       4.277   4.012  17.799  0.00  0.00    +0.000 A 
ATOM      8 BR   UNL     1       2.750   2.904  17.591  0.00  0.00    +0.000 Br
BRANCH   2  10
ATOM      9  C   UNL     1       2.548   6.095  19.709  0.00  0.00    +0.000 C 
ATOM     10  O   UNL     1       3.389   4.944  19.812  0.00  0.00    +0.000 OA
ENDBRANCH   2  10
BRANCH   5  11
ATOM     11  O   UNL     1       7.416   4.811  15.970  0.00  0.00    +0.000 OA
ATOM     12  C   UNL     1       7.025   4.802  14.600  0.00  0.00    +0.000 C 
ENDBRANCH   5  11
ENDBRANCH   1   4
BRANCH   1  13
ATOM     13  C   UNL     1       7.491   7.973  17.513  0.00  0.00    +0.000 C 
BRANCH  13  14
ATOM     14  N   UNL     1       8.557   8.971  17.558  0.00  0.00    +0.000 NA
ATOM     15  H   UNL     1       8.469   9.617  16.778  0.00  0.00    +0.000 HD
BRANCH  14  16
ATOM     16  C   UNL     1       8.429   9.703  18.831  0.00  0.00    +0.000 C 
BRANCH  16  17
ATOM     17  C   UNL     1       9.524  10.711  19.033  0.00  0.00    +0.000 A 
ATOM     18  C   UNL     1      10.364  10.949  17.922  0.00  0.00    +0.000 A 
ATOM     19  C   UNL     1      11.475  11.781  18.014  0.00  0.00    +0.000 A 
ATOM     20  C   UNL     1      11.758  12.416  19.213  0.00  0.00    +0.000 A 
ATOM     21  C   UNL     1      10.930  12.200  20.318  0.00  0.00    +0.000 A 
ATOM     22  C   UNL     1       9.811  11.356  20.246  0.00  0.00    +0.000 A 
BRANCH  22  23
ATOM     23  O   UNL     1       9.205  11.148  21.456  0.00  0.00    +0.000 OA
ATOM     24  C   UNL     1       8.856  12.290  22.225  0.00  0.00    +0.000 C 
ENDBRANCH  22  23
ENDBRANCH  16  17
ENDBRANCH  14  16
ENDBRANCH  13  14
ENDBRANCH   1  13
TORSDOF 8
ENDMDL
MODEL 7
REMARK VINA RESULT:      -6.1      4.023      5.678
REMARK  Name = 
REMARK  11 active torsions:
REMARK  status: ('A' for Active; 'I' for Inactive)
REMARK    1  A    between atoms: C_1  and  O_2
REMARK    2  A    between atoms: O_2  and  C_3
REMARK    3  A    between atoms: C_5  and  C_6
REMARK    4  A    between atoms: C_6  and  C_7
REMARK    5  A    between atoms: C_7  and  N_8
REMARK    6  A    between atoms: N_8  and  C_9
REMARK    7  A    between atoms: C_9  and  C_10
REMARK    8  A    between atoms: C_15  and  O_16
REMARK    9  A    between atoms: O_16  and  C_17
REMARK   10  A    between atoms: C_18  and  O_19
REMARK   11  A    between atoms: O_19  and  C_20
REMARK                            x       y       z     vdW  Elec       q    Type
REMARK                         _______ _______ _______ _____ _____    ______ ____
ROOT
ATOM      1  C   UNL     1       2.248   5.889  19.922  0.00  0.00    +0.000 C 
ENDROOT
BRANCH   1   4
ATOM      2  C   UNL     1       4.800   5.952  17.039  0.00  0.00    +0.000 A 
ATOM      3  C   UNL     1       3.907   6.334  18.037  0.00  0.00    +0.000 A 
ATOM      4  C   UNL     1       3.126   5.412  18.759  0.00  0.00    +0.000 A 
ATOM      5  C   UNL     1       3.194   4.057  18.388  0.00  0.00    +0.000 A 
ATOM      6  C   UNL     1       4.039   3.670  17.335  0.00  0.00    +0.000 A 
ATOM      7  C   UNL     1       4.840   4.610  16.672  0.00  0.00    +0.000 A 
ATOM      8 BR   UNL     1       5.990   4.003  15.289  0.00  0.00    +0.000 Br
BRANCH   2  10
ATOM      9  C   UNL     1       6.710   7.335  17.191  0.00  0.00    +0.000 C 
ATOM     10  O   UNL     1       5.619   6.853  16.406  0.00  0.00    +0.000 OA
ENDBRANCH   2  10
BRANCH   5  11
ATOM     11  O   UNL     1       2.412   3.191  19.108  0.00  0.00    +0.000 OA
ATOM     12  C   UNL     1       1.431   2.451  18.388  0.00  0.00    +0.000 C 
ENDBRANCH   5  11
ENDBRANCH   1   4
BRANCH   1  13
ATOM     13  C   UNL     1       2.087   7.421  19.946  0.00  0.00    +0.000 C 
BRANCH  13  14
ATOM     14  N   UNL     1       1.888   8.074  21.238  0.00  0.00    +0.000 NA
ATOM     15  H   UNL     1       2.379   8.964  21.264  0.00  0.00    +0.000 HD
BRANCH  14  16
ATOM     16  C   UNL     1       0.440   8.297  21.405  0.00  0.00    +0.000 C 
BRANCH  16  17
ATOM     17  C   UNL     1       0.103   9.735  21.674  0.00  0.00    +0.000 A 
ATOM     18  C   UNL     1      -0.688   9.986  22.818  0.00  0.00    +0.000 A 
ATOM     19  C   UNL     1      -1.153  11.263  23.117  0.00  0.00    +0.000 A 
ATOM     20  C   UNL     1      -0.817  12.324  22.293  0.00  0.00    +0.000 A 
ATOM     21  C   UNL     1      -0.028  12.095  21.162  0.00  0.00    +0.000 A 
ATOM     22  C   UNL     1       0.442  10.812  20.841  0.00  0.00    +0.000 A 
BRANCH  22  23
ATOM     23  O   UNL     1       1.074  10.751  19.628  0.00  0.00    +0.000 OA
ATOM     24  C   UNL     1       1.440  11.976  19.010  0.00  0.00    +0.000 C 
ENDBRANCH  22  23
ENDBRANCH  16  17
ENDBRANCH  14  16
ENDBRANCH  13  14
ENDBRANCH   1  13
TORSDOF 8
ENDMDL
MODEL 8
REMARK VINA RESULT:      -6.1      3.733      5.134
REMARK  Name = 
REMARK  11 active torsions:
REMARK  status: ('A' for Active; 'I' for Inactive)
REMARK    1  A    between atoms: C_1  and  O_2
REMARK    2  A    between atoms: O_2  and  C_3
REMARK    3  A    between atoms: C_5  and  C_6
REMARK    4  A    between atoms: C_6  and  C_7
REMARK    5  A    between atoms: C_7  and  N_8
REMARK    6  A    between atoms: N_8  and  C_9
REMARK    7  A    between atoms: C_9  and  C_10
REMARK    8  A    between atoms: C_15  and  O_16
REMARK    9  A    between atoms: O_16  and  C_17
REMARK   10  A    between atoms: C_18  and  O_19
REMARK   11  A    between atoms: O_19  and  C_20
REMARK                            x       y       z     vdW  Elec       q    Type
REMARK                         _______ _______ _______ _____ _____    ______ ____
ROOT
ATOM      1  C   UNL     1       2.564   5.528  19.341  0.00  0.00    +0.000 C 
ENDROOT
BRANCH   1   4
ATOM      2  C   UNL     1       5.478   6.221  16.922  0.00  0.00    +0.000 A 
ATOM      3  C   UNL     1       4.471   6.369  17.872  0.00  0.00    +0.000 A 
ATOM      4  C   UNL     1       3.575   5.335  18.205  0.00  0.00    +0.000 A 
ATOM      5  C   UNL     1       3.655   4.133  17.478  0.00  0.00    +0.000 A 
ATOM      6  C   UNL     1       4.622   3.999  16.469  0.00  0.00    +0.000 A 
ATOM      7  C   UNL     1       5.529   5.032  16.199  0.00  0.00    +0.000 A 
ATOM      8 BR   UNL     1       6.837   4.758  14.850  0.00  0.00    +0.000 Br
BRANCH   2  10
ATOM      9  C   UNL     1       7.445   7.318  17.638  0.00  0.00    +0.000 C 
ATOM     10  O   UNL     1       6.399   7.207  16.671  0.00  0.00    +0.000 OA
ENDBRANCH   2  10
BRANCH   5  11
ATOM     11  O   UNL     1       2.760   3.155  17.825  0.00  0.00    +0.000 OA
ATOM     12  C   UNL     1       3.296   1.927  18.310  0.00  0.00    +0.000 C 
ENDBRANCH   5  11
ENDBRANCH   1   4
BRANCH   1  13
ATOM     13  C   UNL     1       2.412   7.006  19.748  0.00  0.00    +0.000 C 
BRANCH  13  14
ATOM     14  N   UNL     1       1.209   7.402  20.477  0.00  0.00    +0.000 NA
ATOM     15  H   UNL     1       0.763   6.587  20.890  0.00  0.00    +0.000 HD
BRANCH  14  16
ATOM     16  C   UNL     1       1.619   8.340  21.537  0.00  0.00    +0.000 C 
BRANCH  16  17
ATOM     17  C   UNL     1       0.671   9.494  21.689  0.00  0.00    +0.000 A 
ATOM     18  C   UNL     1       0.045   9.624  22.949  0.00  0.00    +0.000 A 
ATOM     19  C   UNL     1      -0.930  10.590  23.181  0.00  0.00    +0.000 A 
ATOM     20  C   UNL     1      -1.283  11.465  22.167  0.00  0.00    +0.000 A 
ATOM     21  C   UNL     1      -0.665  11.356  20.918  0.00  0.00    +0.000 A 
ATOM     22  C   UNL     1       0.313  10.382  20.663  0.00  0.00    +0.000 A 
BRANCH  22  23
ATOM     23  O   UNL     1       0.700  10.329  19.351  0.00  0.00    +0.000 OA
ATOM     24  C   UNL     1      -0.317  10.251  18.364  0.00  0.00    +0.000 C 
ENDBRANCH  22  23
ENDBRANCH  16  17
ENDBRANCH  14  16
ENDBRANCH  13  14
ENDBRANCH   1  13
TORSDOF 8
ENDMDL
MODEL 9
REMARK VINA RESULT:      -6.1      4.957      7.932
REMARK  Name = 
REMARK  11 active torsions:
REMARK  status: ('A' for Active; 'I' for Inactive)
REMARK    1  A    between atoms: C_1  and  O_2
REMARK    2  A    between atoms: O_2  and  C_3
REMARK    3  A    between atoms: C_5  and  C_6
REMARK    4  A    between atoms: C_6  and  C_7
REMARK    5  A    between atoms: C_7  and  N_8
REMARK    6  A    between atoms: N_8  and  C_9
REMARK    7  A    between atoms: C_9  and  C_10
REMARK    8  A    between atoms: C_15  and  O_16
REMARK    9  A    between atoms: O_16  and  C_17
REMARK   10  A    between atoms: C_18  and  O_19
REMARK   11  A    between atoms: O_19  and  C_20
REMARK                            x       y       z     vdW  Elec       q    Type
REMARK                         _______ _______ _______ _____ _____    ______ ____
ROOT
ATOM      1  C   UNL     1       1.567   8.900  19.786  0.00  0.00    +0.000 C 
ENDROOT
BRANCH   1   4
ATOM      2  C   UNL     1      -1.451  11.111  18.873  0.00  0.00    +0.000 A 
ATOM      3  C   UNL     1      -0.342  10.271  18.797  0.00  0.00    +0.000 A 
ATOM      4  C   UNL     1       0.430   9.919  19.921  0.00  0.00    +0.000 A 
ATOM      5  C   UNL     1       0.110  10.516  21.154  0.00  0.00    +0.000 A 
ATOM      6  C   UNL     1      -0.963  11.419  21.227  0.00  0.00    +0.000 A 
ATOM      7  C   UNL     1      -1.739  11.708  20.097  0.00  0.00    +0.000 A 
ATOM      8 BR   UNL     1      -3.202  12.903  20.285  0.00  0.00    +0.000 Br
BRANCH   2  10
ATOM      9  C   UNL     1      -2.285  10.340  16.801  0.00  0.00    +0.000 C 
ATOM     10  O   UNL     1      -2.244  11.374  17.785  0.00  0.00    +0.000 OA
ENDBRANCH   2  10
BRANCH   5  11
ATOM     11  O   UNL     1       0.889  10.155  22.222  0.00  0.00    +0.000 OA
ATOM     12  C   UNL     1       0.254   9.437  23.276  0.00  0.00    +0.000 C 
ENDBRANCH   5  11
ENDBRANCH   1   4
BRANCH   1  13
ATOM     13  C   UNL     1       1.904   8.587  18.315  0.00  0.00    +0.000 C 
BRANCH  13  14
ATOM     14  N   UNL     1       2.548   7.311  18.011  0.00  0.00    +0.000 NA
ATOM     15  H   UNL     1       3.435   7.467  17.538  0.00  0.00    +0.000 HD
BRANCH  14  16
ATOM     16  C   UNL     1       2.779   6.614  19.289  0.00  0.00    +0.000 C 
BRANCH  16  17
ATOM     17  C   UNL     1       2.198   5.230  19.308  0.00  0.00    +0.000 A 
ATOM     18  C   UNL     1       1.509   4.859  20.484  0.00  0.00    +0.000 A 
ATOM     19  C   UNL     1       1.015   3.570  20.664  0.00  0.00    +0.000 A 
ATOM     20  C   UNL     1       1.177   2.629  19.661  0.00  0.00    +0.000 A 
ATOM     21  C   UNL     1       1.847   2.982  18.487  0.00  0.00    +0.000 A 
ATOM     22  C   UNL     1       2.360   4.274  18.293  0.00  0.00    +0.000 A 
BRANCH  22  23
ATOM     23  O   UNL     1       3.109   4.398  17.153  0.00  0.00    +0.000 OA
ATOM     24  C   UNL     1       4.445   3.917  17.185  0.00  0.00    +0.000 C 
ENDBRANCH  22  23
ENDBRANCH  16  17
ENDBRANCH  14  16
ENDBRANCH  13  14
ENDBRANCH   1  13
TORSDOF 8
ENDMDL
