MODEL 1
REMARK VINA RESULT:      -8.8      0.000      0.000
REMARK  Name = 
REMARK  9 active torsions:
REMARK  status: ('A' for Active; 'I' for Inactive)
REMARK    1  A    between atoms: C_1  and  C_2
REMARK    2  A    between atoms: C_2  and  C_3
REMARK    3  A    between atoms: C_2  and  C_4
REMARK    4  A    between atoms: C_2  and  C_5
REMARK    5  A    between atoms: C_6  and  C_7
REMARK    6  A    between atoms: C_13  and  C_14
REMARK    7  A    between atoms: C_14  and  N_15
REMARK    8  A    between atoms: C_16  and  C_18
REMARK    9  A    between atoms: C_18  and  C_19
REMARK                            x       y       z     vdW  Elec       q    Type
REMARK                         _______ _______ _______ _____ _____    ______ ____
ROOT
ATOM      1  C   UNL     1       3.493   4.461  19.487  0.00  0.00    +0.000 C 
ATOM      2  C   UNL     1       3.975   3.511  18.660  0.00  0.00    +0.000 C 
ATOM      3  N   UNL     1       5.237   3.882  18.198  0.00  0.00    +0.000 N 
ATOM      4  C   UNL     1       5.335   4.447  16.957  0.00  0.00    +0.000 C 
ATOM      5  O   UNL     1       5.125   4.066  15.832  0.00  0.00    +0.000 OA
ATOM      6  C   UNL     1       5.781   5.792  17.521  0.00  0.00    +0.000 C 
ATOM      7  C   UNL     1       5.547   5.126  18.898  0.00  0.00    +0.000 C 
ATOM      8  O   UNL     1       4.403   5.545  19.690  0.00  0.00    +0.000 OA
ENDROOT
BRANCH   1  10
ATOM      9  C   UNL     1       2.362   3.893  21.615  0.00  0.00    +0.000 C 
ATOM     10  C   UNL     1       2.181   4.612  20.264  0.00  0.00    +0.000 C 
ATOM     11  C   UNL     1       0.881   4.092  19.625  0.00  0.00    +0.000 C 
ATOM     12  C   UNL     1       1.920   6.121  20.505  0.00  0.00    +0.000 C 
ENDBRANCH   1  10
BRANCH   2  13
ATOM     13  C   UNL     1       3.387   2.132  18.176  0.00  0.00    +0.000 C 
ATOM     14  O   UNL     1       2.510   2.228  17.269  0.00  0.00    +0.000 OA
ATOM     15  O   UNL     1       3.881   1.102  18.701  0.00  0.00    +0.000 OA
ENDBRANCH   2  13
BRANCH   6  16
ATOM     16  C   UNL     1       7.182   6.182  17.102  0.00  0.00    +0.000 C 
BRANCH  16  17
ATOM     17  N   UNL     1       7.255   7.638  17.100  0.00  0.00    +0.000 N 
ATOM     18  C   UNL     1       8.014   8.337  18.016  0.00  0.00    +0.000 C 
ATOM     19  O   UNL     1       8.690   7.781  18.879  0.00  0.00    +0.000 OA
ATOM     20  H   UNL     1       6.525   8.142  16.602  0.00  0.00    +0.000 HD
BRANCH  18  21
ATOM     21  C   UNL     1       7.973   9.853  17.862  0.00  0.00    +0.000 C 
BRANCH  21  22
ATOM     22  C   UNL     1       9.140  10.554  18.519  0.00  0.00    +0.000 A 
ATOM     23  C   UNL     1       9.156  10.777  19.903  0.00  0.00    +0.000 A 
ATOM     24  C   UNL     1      10.251  11.395  20.514  0.00  0.00    +0.000 A 
ATOM     25  C   UNL     1      11.344  11.794  19.748  0.00  0.00    +0.000 A 
ATOM     26  C   UNL     1      11.343  11.579  18.371  0.00  0.00    +0.000 A 
ATOM     27  C   UNL     1      10.250  10.960  17.761  0.00  0.00    +0.000 A 
ENDBRANCH  21  22
ENDBRANCH  18  21
ENDBRANCH  16  17
ENDBRANCH   6  16
TORSDOF 6
ENDMDL
MODEL 2
REMARK VINA RESULT:      -8.8      0.191      1.283
REMARK  Name = 
REMARK  9 active torsions:
REMARK  status: ('A' for Active; 'I' for Inactive)
REMARK    1  A    between atoms: C_1  and  C_2
REMARK    2  A    between atoms: C_2  and  C_3
REMARK    3  A    between atoms: C_2  and  C_4
REMARK    4  A    between atoms: C_2  and  C_5
REMARK    5  A    between atoms: C_6  and  C_7
REMARK    6  A    between atoms: C_13  and  C_14
REMARK    7  A    between atoms: C_14  and  N_15
REMARK    8  A    between atoms: C_16  and  C_18
REMARK    9  A    between atoms: C_18  and  C_19
REMARK                            x       y       z     vdW  Elec       q    Type
REMARK                         _______ _______ _______ _____ _____    ______ ____
ROOT
ATOM      1  C   UNL     1       3.542   4.459  19.443  0.00  0.00    +0.000 C 
ATOM      2  C   UNL     1       3.949   3.580  18.505  0.00  0.00    +0.000 C 
ATOM      3  N   UNL     1       5.207   3.945  18.030  0.00  0.00    +0.000 N 
ATOM      4  C   UNL     1       5.283   4.630  16.848  0.00  0.00    +0.000 C 
ATOM      5  O   UNL     1       5.013   4.376  15.701  0.00  0.00    +0.000 OA
ATOM      6  C   UNL     1       5.810   5.891  17.526  0.00  0.00    +0.000 C 
ATOM      7  C   UNL     1       5.600   5.097  18.838  0.00  0.00    +0.000 C 
ATOM      8  O   UNL     1       4.507   5.478  19.716  0.00  0.00    +0.000 OA
ENDROOT
BRANCH   1  10
ATOM      9  C   UNL     1       1.995   6.086  20.489  0.00  0.00    +0.000 C 
ATOM     10  C   UNL     1       2.269   4.583  20.287  0.00  0.00    +0.000 C 
ATOM     11  C   UNL     1       2.233   3.909  21.671  0.00  0.00    +0.000 C 
ATOM     12  C   UNL     1       1.095   3.935  19.509  0.00  0.00    +0.000 C 
ENDBRANCH   1  10
BRANCH   2  13
ATOM     13  C   UNL     1       3.281   2.284  17.909  0.00  0.00    +0.000 C 
ATOM     14  O   UNL     1       2.475   2.501  16.959  0.00  0.00    +0.000 OA
ATOM     15  O   UNL     1       3.653   1.190  18.404  0.00  0.00    +0.000 OA
ENDBRANCH   2  13
BRANCH   6  16
ATOM     16  C   UNL     1       7.211   6.265  17.089  0.00  0.00    +0.000 C 
BRANCH  16  17
ATOM     17  N   UNL     1       7.307   7.719  17.107  0.00  0.00    +0.000 N 
ATOM     18  C   UNL     1       8.069   8.394  18.039  0.00  0.00    +0.000 C 
ATOM     19  O   UNL     1       8.728   7.816  18.900  0.00  0.00    +0.000 OA
ATOM     20  H   UNL     1       6.590   8.241  16.609  0.00  0.00    +0.000 HD
BRANCH  18  21
ATOM     21  C   UNL     1       8.053   9.912  17.904  0.00  0.00    +0.000 C 
BRANCH  21  22
ATOM     22  C   UNL     1       9.242  10.583  18.555  0.00  0.00    +0.000 A 
ATOM     23  C   UNL     1      10.318  11.042  17.782  0.00  0.00    +0.000 A 
ATOM     24  C   UNL     1      11.400  11.693  18.383  0.00  0.00    +0.000 A 
ATOM     25  C   UNL     1      11.417  11.894  19.761  0.00  0.00    +0.000 A 
ATOM     26  C   UNL     1      10.354  11.445  20.541  0.00  0.00    +0.000 A 
ATOM     27  C   UNL     1       9.272  10.796  19.942  0.00  0.00    +0.000 A 
ENDBRANCH  21  22
ENDBRANCH  18  21
ENDBRANCH  16  17
ENDBRANCH   6  16
TORSDOF 6
ENDMDL
MODEL 3
REMARK VINA RESULT:      -7.8      4.747      7.716
REMARK  Name = 
REMARK  9 active torsions:
REMARK  status: ('A' for Active; 'I' for Inactive)
REMARK    1  A    between atoms: C_1  and  C_2
REMARK    2  A    between atoms: C_2  and  C_3
REMARK    3  A    between atoms: C_2  and  C_4
REMARK    4  A    between atoms: C_2  and  C_5
REMARK    5  A    between atoms: C_6  and  C_7
REMARK    6  A    between atoms: C_13  and  C_14
REMARK    7  A    between atoms: C_14  and  N_15
REMARK    8  A    between atoms: C_16  and  C_18
REMARK    9  A    between atoms: C_18  and  C_19
REMARK                            x       y       z     vdW  Elec       q    Type
REMARK                         _______ _______ _______ _____ _____    ______ ____
ROOT
ATOM      1  C   UNL     1       2.857   4.461  19.440  0.00  0.00    +0.000 C 
ATOM      2  C   UNL     1       3.999   4.995  18.959  0.00  0.00    +0.000 C 
ATOM      3  N   UNL     1       3.893   6.385  18.923  0.00  0.00    +0.000 N 
ATOM      4  C   UNL     1       3.583   6.983  17.734  0.00  0.00    +0.000 C 
ATOM      5  O   UNL     1       4.130   7.078  16.663  0.00  0.00    +0.000 OA
ATOM      6  C   UNL     1       2.230   7.469  18.244  0.00  0.00    +0.000 C 
ATOM      7  C   UNL     1       2.596   6.682  19.525  0.00  0.00    +0.000 C 
ATOM      8  O   UNL     1       1.889   5.446  19.810  0.00  0.00    +0.000 OA
ENDROOT
BRANCH   1  10
ATOM      9  C   UNL     1       2.748   2.666  21.142  0.00  0.00    +0.000 C 
ATOM     10  C   UNL     1       2.391   3.023  19.686  0.00  0.00    +0.000 C 
ATOM     11  C   UNL     1       2.939   1.905  18.781  0.00  0.00    +0.000 C 
ATOM     12  C   UNL     1       0.854   2.961  19.492  0.00  0.00    +0.000 C 
ENDBRANCH   1  10
BRANCH   2  13
ATOM     13  C   UNL     1       5.350   4.345  18.477  0.00  0.00    +0.000 C 
ATOM     14  O   UNL     1       5.336   3.936  17.280  0.00  0.00    +0.000 OA
ATOM     15  O   UNL     1       6.295   4.347  19.307  0.00  0.00    +0.000 OA
ENDBRANCH   2  13
BRANCH   6  16
ATOM     16  C   UNL     1       2.117   8.978  18.294  0.00  0.00    +0.000 C 
BRANCH  16  17
ATOM     17  N   UNL     1       0.759   9.306  18.712  0.00  0.00    +0.000 N 
ATOM     18  C   UNL     1       0.308  10.608  18.789  0.00  0.00    +0.000 C 
ATOM     19  O   UNL     1       1.012  11.572  18.495  0.00  0.00    +0.000 OA
ATOM     20  H   UNL     1       0.238   8.591  19.213  0.00  0.00    +0.000 HD
BRANCH  18  21
ATOM     21  C   UNL     1      -1.140  10.761  19.240  0.00  0.00    +0.000 C 
BRANCH  21  22
ATOM     22  C   UNL     1      -2.129  10.744  18.097  0.00  0.00    +0.000 A 
ATOM     23  C   UNL     1      -3.298  11.516  18.149  0.00  0.00    +0.000 A 
ATOM     24  C   UNL     1      -4.195  11.526  17.076  0.00  0.00    +0.000 A 
ATOM     25  C   UNL     1      -3.932  10.766  15.939  0.00  0.00    +0.000 A 
ATOM     26  C   UNL     1      -2.773   9.994  15.872  0.00  0.00    +0.000 A 
ATOM     27  C   UNL     1      -1.876   9.986  16.943  0.00  0.00    +0.000 A 
ENDBRANCH  21  22
ENDBRANCH  18  21
ENDBRANCH  16  17
ENDBRANCH   6  16
TORSDOF 6
ENDMDL
MODEL 4
REMARK VINA RESULT:      -7.8      4.700      7.709
REMARK  Name = 
REMARK  9 active torsions:
REMARK  status: ('A' for Active; 'I' for Inactive)
REMARK    1  A    between atoms: C_1  and  C_2
REMARK    2  A    between atoms: C_2  and  C_3
REMARK    3  A    between atoms: C_2  and  C_4
REMARK    4  A    between atoms: C_2  and  C_5
REMARK    5  A    between atoms: C_6  and  C_7
REMARK    6  A    between atoms: C_13  and  C_14
REMARK    7  A    between atoms: C_14  and  N_15
REMARK    8  A    between atoms: C_16  and  C_18
REMARK    9  A    between atoms: C_18  and  C_19
REMARK                            x       y       z     vdW  Elec       q    Type
REMARK                         _______ _______ _______ _____ _____    ______ ____
ROOT
ATOM      1  C   UNL     1       3.004   4.470  19.114  0.00  0.00    +0.000 C 
ATOM      2  C   UNL     1       4.171   5.054  18.774  0.00  0.00    +0.000 C 
ATOM      3  N   UNL     1       4.018   6.440  18.753  0.00  0.00    +0.000 N 
ATOM      4  C   UNL     1       3.819   7.055  17.548  0.00  0.00    +0.000 C 
ATOM      5  O   UNL     1       4.478   7.193  16.548  0.00  0.00    +0.000 OA
ATOM      6  C   UNL     1       2.402   7.482  17.914  0.00  0.00    +0.000 C 
ATOM      7  C   UNL     1       2.653   6.678  19.213  0.00  0.00    +0.000 C 
ATOM      8  O   UNL     1       1.965   5.412  19.393  0.00  0.00    +0.000 OA
ENDROOT
BRANCH   1  10
ATOM      9  C   UNL     1       3.297   2.449  20.514  0.00  0.00    +0.000 C 
ATOM     10  C   UNL     1       2.566   3.012  19.279  0.00  0.00    +0.000 C 
ATOM     11  C   UNL     1       2.798   2.035  18.112  0.00  0.00    +0.000 C 
ATOM     12  C   UNL     1       1.035   2.978  19.516  0.00  0.00    +0.000 C 
ENDBRANCH   1  10
BRANCH   2  13
ATOM     13  C   UNL     1       5.590   4.462  18.433  0.00  0.00    +0.000 C 
ATOM     14  O   UNL     1       5.698   4.007  17.257  0.00  0.00    +0.000 OA
ATOM     15  O   UNL     1       6.460   4.550  19.336  0.00  0.00    +0.000 OA
ENDBRANCH   2  13
BRANCH   6  16
ATOM     16  C   UNL     1       2.228   8.984  17.981  0.00  0.00    +0.000 C 
BRANCH  16  17
ATOM     17  N   UNL     1       0.879   9.253  18.466  0.00  0.00    +0.000 N 
ATOM     18  C   UNL     1       0.445  10.529  18.761  0.00  0.00    +0.000 C 
ATOM     19  O   UNL     1       1.157  11.521  18.619  0.00  0.00    +0.000 OA
ATOM     20  H   UNL     1       0.356   8.470  18.851  0.00  0.00    +0.000 HD
BRANCH  18  21
ATOM     21  C   UNL     1      -0.995  10.620  19.253  0.00  0.00    +0.000 C 
BRANCH  21  22
ATOM     22  C   UNL     1      -2.007  10.687  18.131  0.00  0.00    +0.000 A 
ATOM     23  C   UNL     1      -1.858   9.897  16.983  0.00  0.00    +0.000 A 
ATOM     24  C   UNL     1      -2.814   9.935  15.962  0.00  0.00    +0.000 A 
ATOM     25  C   UNL     1      -3.929  10.761  16.080  0.00  0.00    +0.000 A 
ATOM     26  C   UNL     1      -4.091  11.552  17.216  0.00  0.00    +0.000 A 
ATOM     27  C   UNL     1      -3.138  11.513  18.237  0.00  0.00    +0.000 A 
ENDBRANCH  21  22
ENDBRANCH  18  21
ENDBRANCH  16  17
ENDBRANCH   6  16
TORSDOF 6
ENDMDL
MODEL 5
REMARK VINA RESULT:      -7.6      4.252      7.372
REMARK  Name = 
REMARK  9 active torsions:
REMARK  status: ('A' for Active; 'I' for Inactive)
REMARK    1  A    between atoms: C_1  and  C_2
REMARK    2  A    between atoms: C_2  and  C_3
REMARK    3  A    between atoms: C_2  and  C_4
REMARK    4  A    between atoms: C_2  and  C_5
REMARK    5  A    between atoms: C_6  and  C_7
REMARK    6  A    between atoms: C_13  and  C_14
REMARK    7  A    between atoms: C_14  and  N_15
REMARK    8  A    between atoms: C_16  and  C_18
REMARK    9  A    between atoms: C_18  and  C_19
REMARK                            x       y       z     vdW  Elec       q    Type
REMARK                         _______ _______ _______ _____ _____    ______ ____
ROOT
ATOM      1  C   UNL     1       5.557   5.920  17.876  0.00  0.00    +0.000 C 
ATOM      2  C   UNL     1       4.513   5.091  18.080  0.00  0.00    +0.000 C 
ATOM      3  N   UNL     1       3.321   5.750  17.780  0.00  0.00    +0.000 N 
ATOM      4  C   UNL     1       2.591   6.276  18.810  0.00  0.00    +0.000 C 
ATOM      5  O   UNL     1       2.003   5.814  19.756  0.00  0.00    +0.000 OA
ATOM      6  C   UNL     1       2.828   7.709  18.346  0.00  0.00    +0.000 C 
ATOM      7  C   UNL     1       3.728   7.056  17.269  0.00  0.00    +0.000 C 
ATOM      8  O   UNL     1       5.168   7.203  17.381  0.00  0.00    +0.000 OA
ENDROOT
BRANCH   1  10
ATOM      9  C   UNL     1       7.733   7.030  17.467  0.00  0.00    +0.000 C 
ATOM     10  C   UNL     1       7.071   5.765  18.048  0.00  0.00    +0.000 C 
ATOM     11  C   UNL     1       7.765   4.543  17.420  0.00  0.00    +0.000 C 
ATOM     12  C   UNL     1       7.388   5.656  19.562  0.00  0.00    +0.000 C 
ENDBRANCH   1  10
BRANCH   2  13
ATOM     13  C   UNL     1       4.428   3.593  18.558  0.00  0.00    +0.000 C 
ATOM     14  O   UNL     1       3.788   2.831  17.777  0.00  0.00    +0.000 OA
ATOM     15  O   UNL     1       5.039   3.314  19.621  0.00  0.00    +0.000 OA
ENDBRANCH   2  13
BRANCH   6  16
ATOM     16  C   UNL     1       1.558   8.423  17.934  0.00  0.00    +0.000 C 
BRANCH  16  17
ATOM     17  N   UNL     1       1.479   9.663  18.698  0.00  0.00    +0.000 N 
ATOM     18  C   UNL     1       0.353  10.460  18.690  0.00  0.00    +0.000 C 
ATOM     19  O   UNL     1      -0.660  10.171  18.056  0.00  0.00    +0.000 OA
ATOM     20  H   UNL     1       2.354  10.077  19.009  0.00  0.00    +0.000 HD
BRANCH  18  21
ATOM     21  C   UNL     1       0.449  11.715  19.549  0.00  0.00    +0.000 C 
BRANCH  21  22
ATOM     22  C   UNL     1      -0.305  11.606  20.855  0.00  0.00    +0.000 A 
ATOM     23  C   UNL     1      -1.279  12.553  21.202  0.00  0.00    +0.000 A 
ATOM     24  C   UNL     1      -1.998  12.431  22.395  0.00  0.00    +0.000 A 
ATOM     25  C   UNL     1      -1.753  11.361  23.253  0.00  0.00    +0.000 A 
ATOM     26  C   UNL     1      -0.788  10.412  22.921  0.00  0.00    +0.000 A 
ATOM     27  C   UNL     1      -0.070  10.532  21.729  0.00  0.00    +0.000 A 
ENDBRANCH  21  22
ENDBRANCH  18  21
ENDBRANCH  16  17
ENDBRANCH   6  16
TORSDOF 6
ENDMDL
MODEL 6
REMARK VINA RESULT:      -7.6      4.360      7.577
REMARK  Name = 
REMARK  9 active torsions:
REMARK  status: ('A' for Active; 'I' for Inactive)
REMARK    1  A    between atoms: C_1  and  C_2
REMARK    2  A    between atoms: C_2  and  C_3
REMARK    3  A    between atoms: C_2  and  C_4
REMARK    4  A    between atoms: C_2  and  C_5
REMARK    5  A    between atoms: C_6  and  C_7
REMARK    6  A    between atoms: C_13  and  C_14
REMARK    7  A    between atoms: C_14  and  N_15
REMARK    8  A    between atoms: C_16  and  C_18
REMARK    9  A    between atoms: C_18  and  C_19
REMARK                            x       y       z     vdW  Elec       q    Type
REMARK                         _______ _______ _______ _____ _____    ______ ____
ROOT
ATOM      1  C   UNL     1       5.526   6.020  17.873  0.00  0.00    +0.000 C 
ATOM      2  C   UNL     1       4.494   5.197  18.148  0.00  0.00    +0.000 C 
ATOM      3  N   UNL     1       3.289   5.842  17.875  0.00  0.00    +0.000 N 
ATOM      4  C   UNL     1       2.600   6.401  18.915  0.00  0.00    +0.000 C 
ATOM      5  O   UNL     1       2.053   5.970  19.899  0.00  0.00    +0.000 OA
ATOM      6  C   UNL     1       2.812   7.818  18.394  0.00  0.00    +0.000 C 
ATOM      7  C   UNL     1       3.669   7.131  17.303  0.00  0.00    +0.000 C 
ATOM      8  O   UNL     1       5.112   7.285  17.351  0.00  0.00    +0.000 OA
ENDROOT
BRANCH   1  10
ATOM      9  C   UNL     1       7.460   4.665  17.128  0.00  0.00    +0.000 C 
ATOM     10  C   UNL     1       7.047   5.875  17.989  0.00  0.00    +0.000 C 
ATOM     11  C   UNL     1       7.667   5.692  19.386  0.00  0.00    +0.000 C 
ATOM     12  C   UNL     1       7.710   7.163  17.436  0.00  0.00    +0.000 C 
ENDBRANCH   1  10
BRANCH   2  13
ATOM     13  C   UNL     1       4.435   3.715  18.679  0.00  0.00    +0.000 C 
ATOM     14  O   UNL     1       3.682   2.950  18.011  0.00  0.00    +0.000 OA
ATOM     15  O   UNL     1       5.170   3.449  19.665  0.00  0.00    +0.000 OA
ENDBRANCH   2  13
BRANCH   6  16
ATOM     16  C   UNL     1       1.523   8.514  18.010  0.00  0.00    +0.000 C 
BRANCH  16  17
ATOM     17  N   UNL     1       1.462   9.771  18.747  0.00  0.00    +0.000 N 
ATOM     18  C   UNL     1       0.813   9.880  19.960  0.00  0.00    +0.000 C 
ATOM     19  O   UNL     1       0.262   8.926  20.505  0.00  0.00    +0.000 OA
ATOM     20  H   UNL     1       1.656  10.626  18.232  0.00  0.00    +0.000 HD
BRANCH  18  21
ATOM     21  C   UNL     1       0.854  11.268  20.588  0.00  0.00    +0.000 C 
BRANCH  21  22
ATOM     22  C   UNL     1      -0.456  11.677  21.223  0.00  0.00    +0.000 A 
ATOM     23  C   UNL     1      -1.443  12.331  20.472  0.00  0.00    +0.000 A 
ATOM     24  C   UNL     1      -2.667  12.678  21.053  0.00  0.00    +0.000 A 
ATOM     25  C   UNL     1      -2.919  12.373  22.388  0.00  0.00    +0.000 A 
ATOM     26  C   UNL     1      -1.947  11.722  23.147  0.00  0.00    +0.000 A 
ATOM     27  C   UNL     1      -0.725  11.374  22.567  0.00  0.00    +0.000 A 
ENDBRANCH  21  22
ENDBRANCH  18  21
ENDBRANCH  16  17
ENDBRANCH   6  16
TORSDOF 6
ENDMDL
MODEL 7
REMARK VINA RESULT:      -7.6      4.353      7.509
REMARK  Name = 
REMARK  9 active torsions:
REMARK  status: ('A' for Active; 'I' for Inactive)
REMARK    1  A    between atoms: C_1  and  C_2
REMARK    2  A    between atoms: C_2  and  C_3
REMARK    3  A    between atoms: C_2  and  C_4
REMARK    4  A    between atoms: C_2  and  C_5
REMARK    5  A    between atoms: C_6  and  C_7
REMARK    6  A    between atoms: C_13  and  C_14
REMARK    7  A    between atoms: C_14  and  N_15
REMARK    8  A    between atoms: C_16  and  C_18
REMARK    9  A    between atoms: C_18  and  C_19
REMARK                            x       y       z     vdW  Elec       q    Type
REMARK                         _______ _______ _______ _____ _____    ______ ____
ROOT
ATOM      1  C   UNL     1       5.537   5.989  17.801  0.00  0.00    +0.000 C 
ATOM      2  C   UNL     1       4.526   5.136  18.064  0.00  0.00    +0.000 C 
ATOM      3  N   UNL     1       3.304   5.762  17.819  0.00  0.00    +0.000 N 
ATOM      4  C   UNL     1       2.614   6.279  18.880  0.00  0.00    +0.000 C 
ATOM      5  O   UNL     1       2.086   5.812  19.858  0.00  0.00    +0.000 OA
ATOM      6  C   UNL     1       2.790   7.713  18.393  0.00  0.00    +0.000 C 
ATOM      7  C   UNL     1       3.651   7.073  17.277  0.00  0.00    +0.000 C 
ATOM      8  O   UNL     1       5.091   7.257  17.315  0.00  0.00    +0.000 OA
ENDROOT
BRANCH   1  10
ATOM      9  C   UNL     1       7.487   4.658  17.052  0.00  0.00    +0.000 C 
ATOM     10  C   UNL     1       7.062   5.874  17.898  0.00  0.00    +0.000 C 
ATOM     11  C   UNL     1       7.703   5.726  19.289  0.00  0.00    +0.000 C 
ATOM     12  C   UNL     1       7.693   7.164  17.315  0.00  0.00    +0.000 C 
ENDBRANCH   1  10
BRANCH   2  13
ATOM     13  C   UNL     1       4.505   3.641  18.559  0.00  0.00    +0.000 C 
ATOM     14  O   UNL     1       5.014   3.461  19.702  0.00  0.00    +0.000 OA
ATOM     15  O   UNL     1       3.948   2.811  17.795  0.00  0.00    +0.000 OA
ENDBRANCH   2  13
BRANCH   6  16
ATOM     16  C   UNL     1       1.483   8.390  18.039  0.00  0.00    +0.000 C 
BRANCH  16  17
ATOM     17  N   UNL     1       1.419   9.644  18.781  0.00  0.00    +0.000 N 
ATOM     18  C   UNL     1       0.331  10.489  18.703  0.00  0.00    +0.000 C 
ATOM     19  O   UNL     1      -0.658  10.235  18.019  0.00  0.00    +0.000 OA
ATOM     20  H   UNL     1       2.294  10.024  19.134  0.00  0.00    +0.000 HD
BRANCH  18  21
ATOM     21  C   UNL     1       0.437  11.752  19.549  0.00  0.00    +0.000 C 
BRANCH  21  22
ATOM     22  C   UNL     1      -0.461  11.735  20.766  0.00  0.00    +0.000 A 
ATOM     23  C   UNL     1      -1.655  12.468  20.786  0.00  0.00    +0.000 A 
ATOM     24  C   UNL     1      -2.500  12.423  21.899  0.00  0.00    +0.000 A 
ATOM     25  C   UNL     1      -2.161  11.644  23.003  0.00  0.00    +0.000 A 
ATOM     26  C   UNL     1      -0.977  10.909  22.997  0.00  0.00    +0.000 A 
ATOM     27  C   UNL     1      -0.134  10.952  21.885  0.00  0.00    +0.000 A 
ENDBRANCH  21  22
ENDBRANCH  18  21
ENDBRANCH  16  17
ENDBRANCH   6  16
TORSDOF 6
ENDMDL
MODEL 8
REMARK VINA RESULT:      -7.5      4.383      7.883
REMARK  Name = 
REMARK  9 active torsions:
REMARK  status: ('A' for Active; 'I' for Inactive)
REMARK    1  A    between atoms: C_1  and  C_2
REMARK    2  A    between atoms: C_2  and  C_3
REMARK    3  A    between atoms: C_2  and  C_4
REMARK    4  A    between atoms: C_2  and  C_5
REMARK    5  A    between atoms: C_6  and  C_7
REMARK    6  A    between atoms: C_13  and  C_14
REMARK    7  A    between atoms: C_14  and  N_15
REMARK    8  A    between atoms: C_16  and  C_18
REMARK    9  A    between atoms: C_18  and  C_19
REMARK                            x       y       z     vdW  Elec       q    Type
REMARK                         _______ _______ _______ _____ _____    ______ ____
ROOT
ATOM      1  C   UNL     1       3.931   5.342  17.505  0.00  0.00    +0.000 C 
ATOM      2  C   UNL     1       3.096   4.495  18.141  0.00  0.00    +0.000 C 
ATOM      3  N   UNL     1       2.130   5.219  18.839  0.00  0.00    +0.000 N 
ATOM      4  C   UNL     1       2.308   5.417  20.180  0.00  0.00    +0.000 C 
ATOM      5  O   UNL     1       2.349   4.696  21.146  0.00  0.00    +0.000 OA
ATOM      6  C   UNL     1       2.485   6.922  20.012  0.00  0.00    +0.000 C 
ATOM      7  C   UNL     1       2.382   6.617  18.498  0.00  0.00    +0.000 C 
ATOM      8  O   UNL     1       3.581   6.717  17.684  0.00  0.00    +0.000 OA
ENDROOT
BRANCH   1  10
ATOM      9  C   UNL     1       5.442   6.470  15.899  0.00  0.00    +0.000 C 
ATOM     10  C   UNL     1       5.164   5.136  16.620  0.00  0.00    +0.000 C 
ATOM     11  C   UNL     1       5.131   4.026  15.555  0.00  0.00    +0.000 C 
ATOM     12  C   UNL     1       6.368   4.770  17.526  0.00  0.00    +0.000 C 
ENDBRANCH   1  10
BRANCH   2  13
ATOM     13  C   UNL     1       3.032   2.923  18.206  0.00  0.00    +0.000 C 
ATOM     14  O   UNL     1       2.149   2.404  17.464  0.00  0.00    +0.000 OA
ATOM     15  O   UNL     1       3.884   2.362  18.942  0.00  0.00    +0.000 OA
ENDBRANCH   2  13
BRANCH   6  16
ATOM     16  C   UNL     1       1.400   7.732  20.691  0.00  0.00    +0.000 C 
BRANCH  16  17
ATOM     17  N   UNL     1       1.094   8.869  19.832  0.00  0.00    +0.000 N 
ATOM     18  C   UNL     1       0.167   9.828  20.185  0.00  0.00    +0.000 C 
ATOM     19  O   UNL     1      -0.445   9.798  21.251  0.00  0.00    +0.000 OA
ATOM     20  H   UNL     1       1.357   8.800  18.852  0.00  0.00    +0.000 HD
BRANCH  18  21
ATOM     21  C   UNL     1      -0.022  10.946  19.167  0.00  0.00    +0.000 C 
BRANCH  21  22
ATOM     22  C   UNL     1      -1.333  10.859  18.418  0.00  0.00    +0.000 A 
ATOM     23  C   UNL     1      -1.500   9.944  17.368  0.00  0.00    +0.000 A 
ATOM     24  C   UNL     1      -2.724   9.841  16.700  0.00  0.00    +0.000 A 
ATOM     25  C   UNL     1      -3.795  10.650  17.075  0.00  0.00    +0.000 A 
ATOM     26  C   UNL     1      -3.644  11.563  18.117  0.00  0.00    +0.000 A 
ATOM     27  C   UNL     1      -2.422  11.665  18.786  0.00  0.00    +0.000 A 
ENDBRANCH  21  22
ENDBRANCH  18  21
ENDBRANCH  16  17
ENDBRANCH   6  16
TORSDOF 6
ENDMDL
MODEL 9
REMARK VINA RESULT:      -7.5      4.604      6.614
REMARK  Name = 
REMARK  9 active torsions:
REMARK  status: ('A' for Active; 'I' for Inactive)
REMARK    1  A    between atoms: C_1  and  C_2
REMARK    2  A    between atoms: C_2  and  C_3
REMARK    3  A    between atoms: C_2  and  C_4
REMARK    4  A    between atoms: C_2  and  C_5
REMARK    5  A    between atoms: C_6  and  C_7
REMARK    6  A    between atoms: C_13  and  C_14
REMARK    7  A    between atoms: C_14  and  N_15
REMARK    8  A    between atoms: C_16  and  C_18
REMARK    9  A    between atoms: C_18  and  C_19
REMARK                            x       y       z     vdW  Elec       q    Type
REMARK                         _______ _______ _______ _____ _____    ______ ____
ROOT
ATOM      1  C   UNL     1       2.647   4.393  19.750  0.00  0.00    +0.000 C 
ATOM      2  C   UNL     1       3.898   4.736  19.380  0.00  0.00    +0.000 C 
ATOM      3  N   UNL     1       3.950   6.102  19.102  0.00  0.00    +0.000 N 
ATOM      4  C   UNL     1       3.883   6.503  17.797  0.00  0.00    +0.000 C 
ATOM      5  O   UNL     1       4.587   6.361  16.828  0.00  0.00    +0.000 OA
ATOM      6  C   UNL     1       2.533   7.183  17.996  0.00  0.00    +0.000 C 
ATOM      7  C   UNL     1       2.620   6.608  19.430  0.00  0.00    +0.000 C 
ATOM      8  O   UNL     1       1.749   5.505  19.794  0.00  0.00    +0.000 OA
ENDROOT
BRANCH   1  10
ATOM      9  C   UNL     1       2.492   2.714  21.563  0.00  0.00    +0.000 C 
ATOM     10  C   UNL     1       1.995   3.065  20.147  0.00  0.00    +0.000 C 
ATOM     11  C   UNL     1       2.222   1.834  19.252  0.00  0.00    +0.000 C 
ATOM     12  C   UNL     1       0.456   3.254  20.164  0.00  0.00    +0.000 C 
ENDBRANCH   1  10
BRANCH   2  13
ATOM     13  C   UNL     1       5.225   3.901  19.234  0.00  0.00    +0.000 C 
ATOM     14  O   UNL     1       6.158   4.503  18.629  0.00  0.00    +0.000 OA
ATOM     15  O   UNL     1       5.226   2.763  19.769  0.00  0.00    +0.000 OA
ENDBRANCH   2  13
BRANCH   6  16
ATOM     16  C   UNL     1       2.579   8.681  17.782  0.00  0.00    +0.000 C 
BRANCH  16  17
ATOM     17  N   UNL     1       1.315   9.235  18.254  0.00  0.00    +0.000 N 
ATOM     18  C   UNL     1       1.161  10.577  18.535  0.00  0.00    +0.000 C 
ATOM     19  O   UNL     1       2.067  11.394  18.389  0.00  0.00    +0.000 OA
ATOM     20  H   UNL     1       0.636   8.585  18.642  0.00  0.00    +0.000 HD
BRANCH  18  21
ATOM     21  C   UNL     1      -0.230  10.977  19.014  0.00  0.00    +0.000 C 
BRANCH  21  22
ATOM     22  C   UNL     1      -0.440  10.754  20.495  0.00  0.00    +0.000 A 
ATOM     23  C   UNL     1      -0.949  11.776  21.309  0.00  0.00    +0.000 A 
ATOM     24  C   UNL     1      -1.175  11.557  22.671  0.00  0.00    +0.000 A 
ATOM     25  C   UNL     1      -0.896  10.314  23.235  0.00  0.00    +0.000 A 
ATOM     26  C   UNL     1      -0.389   9.289  22.438  0.00  0.00    +0.000 A 
ATOM     27  C   UNL     1      -0.166   9.506  21.077  0.00  0.00    +0.000 A 
ENDBRANCH  21  22
ENDBRANCH  18  21
ENDBRANCH  16  17
ENDBRANCH   6  16
TORSDOF 6
ENDMDL
