MODEL 1
REMARK VINA RESULT:      -8.3      0.000      0.000
REMARK  Name = 
REMARK  7 active torsions:
REMARK  status: ('A' for Active; 'I' for Inactive)
REMARK    1  A    between atoms: C_2  and  C_3
REMARK    2  A    between atoms: C_3  and  S_4
REMARK    3  A    between atoms: S_4  and  C_5
REMARK    4  A    between atoms: C_10  and  C_12
REMARK    5  A    between atoms: C_17  and  C_18
REMARK    6  A    between atoms: C_18  and  O_20
REMARK    7  A    between atoms: N_22  and  C_23
REMARK                            x       y       z     vdW  Elec       q    Type
REMARK                         _______ _______ _______ _____ _____    ______ ____
ROOT
ATOM      1  C   UNL     1       7.270   5.724  17.457  0.00  0.00    +0.000 A 
ATOM      2  N   UNL     1       7.840   5.250  18.543  0.00  0.00    +0.000 NA
ATOM      3  N   UNL     1       8.397   6.251  19.302  0.00  0.00    +0.000 NA
ATOM      4  C   UNL     1       8.264   7.435  18.746  0.00  0.00    +0.000 A 
ATOM      5  N   UNL     1       8.754   8.580  19.331  0.00  0.00    +0.000 N 
ATOM      6  C   UNL     1       8.916   9.794  18.717  0.00  0.00    +0.000 C 
ATOM      7  O   UNL     1       8.599  10.043  17.556  0.00  0.00    +0.000 OA
ATOM      8  S   UNL     1       7.396   7.418  17.276  0.00  0.00    +0.000 S 
ATOM      9  H   UNL     1       9.149   8.404  20.254  0.00  0.00    +0.000 HD
ENDROOT
BRANCH   6  10
ATOM     10  C   UNL     1       9.522  10.929  19.495  0.00  0.00    +0.000 A 
ATOM     11  C   UNL     1       9.079  10.995  20.837  0.00  0.00    +0.000 A 
ATOM     12  C   UNL     1       9.446  12.041  21.684  0.00  0.00    +0.000 A 
ATOM     13  C   UNL     1      10.277  13.046  21.216  0.00  0.00    +0.000 A 
ATOM     14  C   UNL     1      10.752  12.995  19.906  0.00  0.00    +0.000 A 
ATOM     15  C   UNL     1      10.369  11.955  19.029  0.00  0.00    +0.000 A 
BRANCH  15  16
ATOM     16  C   UNL     1      10.947  11.986  17.666  0.00  0.00    +0.000 C 
ATOM     17  O   UNL     1      10.460  12.648  16.767  0.00  0.00    +0.000 OA
BRANCH  16  18
ATOM     18  O   UNL     1      12.026  11.197  17.484  0.00  0.00    +0.000 OA
ATOM     19  H   UNL     1      11.880  10.344  17.034  0.00  0.00    +0.000 HD
ENDBRANCH  16  18
ENDBRANCH  15  16
ENDBRANCH   6  10
BRANCH   1  20
ATOM     20  S   UNL     1       6.446   4.683  16.326  0.00  0.00    +0.000 S 
BRANCH  20  21
ATOM     21  C   UNL     1       4.839   5.521  16.225  0.00  0.00    +0.000 C 
BRANCH  21  23
ATOM     22  O   UNL     1       3.910   6.511  18.189  0.00  0.00    +0.000 OA
ATOM     23  C   UNL     1       4.120   5.472  17.562  0.00  0.00    +0.000 C 
ATOM     24  N   UNL     1       3.754   4.201  17.974  0.00  0.00    +0.000 N 
ATOM     25  H   UNL     1       4.227   3.406  17.534  0.00  0.00    +0.000 HD
BRANCH  24  26
ATOM     26  C   UNL     1       2.919   3.879  19.080  0.00  0.00    +0.000 A 
ATOM     27  C   UNL     1       1.627   4.398  19.211  0.00  0.00    +0.000 A 
ATOM     28  C   UNL     1       0.811   4.034  20.287  0.00  0.00    +0.000 A 
ATOM     29  C   UNL     1       1.273   3.140  21.247  0.00  0.00    +0.000 A 
ATOM     30  C   UNL     1       2.556   2.610  21.134  0.00  0.00    +0.000 A 
ATOM     31  C   UNL     1       3.370   2.971  20.055  0.00  0.00    +0.000 A 
ATOM     32 CL   UNL     1       4.945   2.268  19.989  0.00  0.00    +0.000 Cl
ENDBRANCH  24  26
ENDBRANCH  21  23
ENDBRANCH  20  21
ENDBRANCH   1  20
TORSDOF 7
ENDMDL
MODEL 2
REMARK VINA RESULT:      -8.1      6.163      8.534
REMARK  Name = 
REMARK  7 active torsions:
REMARK  status: ('A' for Active; 'I' for Inactive)
REMARK    1  A    between atoms: C_2  and  C_3
REMARK    2  A    between atoms: C_3  and  S_4
REMARK    3  A    between atoms: S_4  and  C_5
REMARK    4  A    between atoms: C_10  and  C_12
REMARK    5  A    between atoms: C_17  and  C_18
REMARK    6  A    between atoms: C_18  and  O_20
REMARK    7  A    between atoms: N_22  and  C_23
REMARK                            x       y       z     vdW  Elec       q    Type
REMARK                         _______ _______ _______ _____ _____    ______ ____
ROOT
ATOM      1  C   UNL     1       1.130   8.915  19.844  0.00  0.00    +0.000 A 
ATOM      2  N   UNL     1       1.252   9.669  18.774  0.00  0.00    +0.000 NA
ATOM      3  N   UNL     1       2.107   9.109  17.853  0.00  0.00    +0.000 NA
ATOM      4  C   UNL     1       2.627   7.978  18.276  0.00  0.00    +0.000 A 
ATOM      5  N   UNL     1       3.515   7.251  17.517  0.00  0.00    +0.000 N 
ATOM      6  C   UNL     1       4.314   6.233  17.966  0.00  0.00    +0.000 C 
ATOM      7  O   UNL     1       4.316   5.793  19.113  0.00  0.00    +0.000 OA
ATOM      8  S   UNL     1       2.065   7.486  19.811  0.00  0.00    +0.000 S 
ATOM      9  H   UNL     1       3.648   7.650  16.588  0.00  0.00    +0.000 HD
ENDROOT
BRANCH   6  10
ATOM     10  C   UNL     1       5.271   5.581  17.007  0.00  0.00    +0.000 A 
ATOM     11  C   UNL     1       4.684   4.553  16.232  0.00  0.00    +0.000 A 
ATOM     12  C   UNL     1       5.437   3.761  15.365  0.00  0.00    +0.000 A 
ATOM     13  C   UNL     1       6.799   3.982  15.238  0.00  0.00    +0.000 A 
ATOM     14  C   UNL     1       7.402   5.006  15.968  0.00  0.00    +0.000 A 
ATOM     15  C   UNL     1       6.657   5.800  16.868  0.00  0.00    +0.000 A 
BRANCH  15  16
ATOM     16  C   UNL     1       7.393   6.872  17.578  0.00  0.00    +0.000 C 
ATOM     17  O   UNL     1       7.594   7.964  17.080  0.00  0.00    +0.000 OA
BRANCH  16  18
ATOM     18  O   UNL     1       7.856   6.534  18.799  0.00  0.00    +0.000 OA
ATOM     19  H   UNL     1       8.514   7.129  19.203  0.00  0.00    +0.000 HD
ENDBRANCH  16  18
ENDBRANCH  15  16
ENDBRANCH   6  10
BRANCH   1  20
ATOM     20  S   UNL     1       0.077   9.358  21.161  0.00  0.00    +0.000 S 
BRANCH  20  21
ATOM     21  C   UNL     1       0.084  11.165  20.988  0.00  0.00    +0.000 C 
BRANCH  21  23
ATOM     22  O   UNL     1      -0.425  12.665  19.202  0.00  0.00    +0.000 OA
ATOM     23  C   UNL     1      -0.684  11.592  19.750  0.00  0.00    +0.000 C 
ATOM     24  N   UNL     1      -1.657  10.696  19.336  0.00  0.00    +0.000 N 
ATOM     25  H   UNL     1      -1.981  10.002  20.015  0.00  0.00    +0.000 HD
BRANCH  24  26
ATOM     26  C   UNL     1      -2.392  10.750  18.120  0.00  0.00    +0.000 A 
ATOM     27  C   UNL     1      -1.971  10.082  16.966  0.00  0.00    +0.000 A 
ATOM     28  C   UNL     1      -2.734  10.117  15.794  0.00  0.00    +0.000 A 
ATOM     29  C   UNL     1      -3.934  10.819  15.759  0.00  0.00    +0.000 A 
ATOM     30  C   UNL     1      -4.373  11.490  16.898  0.00  0.00    +0.000 A 
ATOM     31  C   UNL     1      -3.611  11.450  18.071  0.00  0.00    +0.000 A 
ATOM     32 CL   UNL     1      -4.227  12.307  19.437  0.00  0.00    +0.000 Cl
ENDBRANCH  24  26
ENDBRANCH  21  23
ENDBRANCH  20  21
ENDBRANCH   1  20
TORSDOF 7
ENDMDL
MODEL 3
REMARK VINA RESULT:      -8.1      6.837      9.810
REMARK  Name = 
REMARK  7 active torsions:
REMARK  status: ('A' for Active; 'I' for Inactive)
REMARK    1  A    between atoms: C_2  and  C_3
REMARK    2  A    between atoms: C_3  and  S_4
REMARK    3  A    between atoms: S_4  and  C_5
REMARK    4  A    between atoms: C_10  and  C_12
REMARK    5  A    between atoms: C_17  and  C_18
REMARK    6  A    between atoms: C_18  and  O_20
REMARK    7  A    between atoms: N_22  and  C_23
REMARK                            x       y       z     vdW  Elec       q    Type
REMARK                         _______ _______ _______ _____ _____    ______ ____
ROOT
ATOM      1  C   UNL     1       0.120  10.046  21.528  0.00  0.00    +0.000 A 
ATOM      2  N   UNL     1       0.317   9.085  22.403  0.00  0.00    +0.000 NA
ATOM      3  N   UNL     1       1.119   8.090  21.894  0.00  0.00    +0.000 NA
ATOM      4  C   UNL     1       1.463   8.315  20.645  0.00  0.00    +0.000 A 
ATOM      5  N   UNL     1       2.258   7.444  19.936  0.00  0.00    +0.000 N 
ATOM      6  C   UNL     1       2.437   7.440  18.578  0.00  0.00    +0.000 C 
ATOM      7  O   UNL     1       1.943   8.253  17.800  0.00  0.00    +0.000 OA
ATOM      8  S   UNL     1       0.877   9.791  20.018  0.00  0.00    +0.000 S 
ATOM      9  H   UNL     1       2.595   6.672  20.510  0.00  0.00    +0.000 HD
ENDROOT
BRANCH   6  10
ATOM     10  C   UNL     1       3.302   6.376  17.960  0.00  0.00    +0.000 A 
ATOM     11  C   UNL     1       4.487   6.880  17.374  0.00  0.00    +0.000 A 
ATOM     12  C   UNL     1       5.362   6.062  16.660  0.00  0.00    +0.000 A 
ATOM     13  C   UNL     1       5.083   4.711  16.521  0.00  0.00    +0.000 A 
ATOM     14  C   UNL     1       3.936   4.180  17.110  0.00  0.00    +0.000 A 
ATOM     15  C   UNL     1       3.029   5.001  17.816  0.00  0.00    +0.000 A 
BRANCH  15  16
ATOM     16  C   UNL     1       1.853   4.331  18.418  0.00  0.00    +0.000 C 
ATOM     17  O   UNL     1       1.494   4.549  19.561  0.00  0.00    +0.000 OA
BRANCH  16  18
ATOM     18  O   UNL     1       1.237   3.434  17.621  0.00  0.00    +0.000 OA
ATOM     19  H   UNL     1       1.704   2.595  17.455  0.00  0.00    +0.000 HD
ENDBRANCH  16  18
ENDBRANCH  15  16
ENDBRANCH   6  10
BRANCH   1  20
ATOM     20  S   UNL     1      -0.826  11.458  21.915  0.00  0.00    +0.000 S 
BRANCH  20  21
ATOM     21  C   UNL     1      -0.090  12.664  20.776  0.00  0.00    +0.000 C 
BRANCH  21  23
ATOM     22  O   UNL     1      -0.689  13.673  18.697  0.00  0.00    +0.000 OA
ATOM     23  C   UNL     1      -0.892  12.753  19.490  0.00  0.00    +0.000 C 
ATOM     24  N   UNL     1      -1.828  11.744  19.322  0.00  0.00    +0.000 N 
ATOM     25  H   UNL     1      -2.111  11.219  20.155  0.00  0.00    +0.000 HD
BRANCH  24  26
ATOM     26  C   UNL     1      -2.580  11.477  18.146  0.00  0.00    +0.000 A 
ATOM     27  C   UNL     1      -2.000  10.916  17.004  0.00  0.00    +0.000 A 
ATOM     28  C   UNL     1      -2.770  10.624  15.874  0.00  0.00    +0.000 A 
ATOM     29  C   UNL     1      -4.135  10.886  15.869  0.00  0.00    +0.000 A 
ATOM     30  C   UNL     1      -4.734  11.443  16.996  0.00  0.00    +0.000 A 
ATOM     31  C   UNL     1      -3.963  11.730  18.128  0.00  0.00    +0.000 A 
ATOM     32 CL   UNL     1      -4.783  12.418  19.483  0.00  0.00    +0.000 Cl
ENDBRANCH  24  26
ENDBRANCH  21  23
ENDBRANCH  20  21
ENDBRANCH   1  20
TORSDOF 7
ENDMDL
MODEL 4
REMARK VINA RESULT:      -8.0      7.060      9.923
REMARK  Name = 
REMARK  7 active torsions:
REMARK  status: ('A' for Active; 'I' for Inactive)
REMARK    1  A    between atoms: C_2  and  C_3
REMARK    2  A    between atoms: C_3  and  S_4
REMARK    3  A    between atoms: S_4  and  C_5
REMARK    4  A    between atoms: C_10  and  C_12
REMARK    5  A    between atoms: C_17  and  C_18
REMARK    6  A    between atoms: C_18  and  O_20
REMARK    7  A    between atoms: N_22  and  C_23
REMARK                            x       y       z     vdW  Elec       q    Type
REMARK                         _______ _______ _______ _____ _____    ______ ____
ROOT
ATOM      1  C   UNL     1       1.115  10.570  19.276  0.00  0.00    +0.000 A 
ATOM      2  N   UNL     1       1.758  10.721  18.140  0.00  0.00    +0.000 NA
ATOM      3  N   UNL     1       2.233   9.522  17.661  0.00  0.00    +0.000 NA
ATOM      4  C   UNL     1       1.967   8.520  18.470  0.00  0.00    +0.000 A 
ATOM      5  N   UNL     1       2.356   7.230  18.191  0.00  0.00    +0.000 N 
ATOM      6  C   UNL     1       2.380   6.186  19.076  0.00  0.00    +0.000 C 
ATOM      7  O   UNL     1       2.009   6.246  20.246  0.00  0.00    +0.000 OA
ATOM      8  S   UNL     1       1.066   8.962  19.851  0.00  0.00    +0.000 S 
ATOM      9  H   UNL     1       2.791   7.147  17.272  0.00  0.00    +0.000 HD
ENDROOT
BRANCH   6  10
ATOM     10  C   UNL     1       2.889   4.849  18.613  0.00  0.00    +0.000 A 
ATOM     11  C   UNL     1       1.861   3.925  18.310  0.00  0.00    +0.000 A 
ATOM     12  C   UNL     1       2.137   2.602  17.967  0.00  0.00    +0.000 A 
ATOM     13  C   UNL     1       3.451   2.165  17.907  0.00  0.00    +0.000 A 
ATOM     14  C   UNL     1       4.487   3.059  18.175  0.00  0.00    +0.000 A 
ATOM     15  C   UNL     1       4.223   4.396  18.547  0.00  0.00    +0.000 A 
BRANCH  15  16
ATOM     16  C   UNL     1       5.397   5.265  18.790  0.00  0.00    +0.000 C 
ATOM     17  O   UNL     1       6.169   5.074  19.713  0.00  0.00    +0.000 OA
BRANCH  16  18
ATOM     18  O   UNL     1       5.525   6.304  17.940  0.00  0.00    +0.000 OA
ATOM     19  H   UNL     1       5.353   7.194  18.300  0.00  0.00    +0.000 HD
ENDBRANCH  16  18
ENDBRANCH  15  16
ENDBRANCH   6  10
BRANCH   1  20
ATOM     20  S   UNL     1       0.370  11.918  20.094  0.00  0.00    +0.000 S 
BRANCH  20  21
ATOM     21  C   UNL     1      -0.739  12.516  18.787  0.00  0.00    +0.000 C 
BRANCH  21  23
ATOM     22  O   UNL     1      -2.065  10.532  18.717  0.00  0.00    +0.000 OA
ATOM     23  C   UNL     1      -2.056  11.760  18.808  0.00  0.00    +0.000 C 
ATOM     24  N   UNL     1      -3.180  12.562  18.927  0.00  0.00    +0.000 N 
ATOM     25  H   UNL     1      -3.079  13.556  18.700  0.00  0.00    +0.000 HD
BRANCH  24  26
ATOM     26  C   UNL     1      -4.513  12.121  19.153  0.00  0.00    +0.000 A 
ATOM     27  C   UNL     1      -5.139  12.254  20.396  0.00  0.00    +0.000 A 
ATOM     28  C   UNL     1      -6.465  11.849  20.582  0.00  0.00    +0.000 A 
ATOM     29  C   UNL     1      -7.188  11.308  19.525  0.00  0.00    +0.000 A 
ATOM     30  C   UNL     1      -6.584  11.168  18.278  0.00  0.00    +0.000 A 
ATOM     31  C   UNL     1      -5.259  11.578  18.092  0.00  0.00    +0.000 A 
ATOM     32 CL   UNL     1      -4.586  11.372  16.515  0.00  0.00    +0.000 Cl
ENDBRANCH  24  26
ENDBRANCH  21  23
ENDBRANCH  20  21
ENDBRANCH   1  20
TORSDOF 7
ENDMDL
MODEL 5
REMARK VINA RESULT:      -8.0      7.363     10.169
REMARK  Name = 
REMARK  7 active torsions:
REMARK  status: ('A' for Active; 'I' for Inactive)
REMARK    1  A    between atoms: C_2  and  C_3
REMARK    2  A    between atoms: C_3  and  S_4
REMARK    3  A    between atoms: S_4  and  C_5
REMARK    4  A    between atoms: C_10  and  C_12
REMARK    5  A    between atoms: C_17  and  C_18
REMARK    6  A    between atoms: C_18  and  O_20
REMARK    7  A    between atoms: N_22  and  C_23
REMARK                            x       y       z     vdW  Elec       q    Type
REMARK                         _______ _______ _______ _____ _____    ______ ____
ROOT
ATOM      1  C   UNL     1       0.286  10.199  20.866  0.00  0.00    +0.000 A 
ATOM      2  N   UNL     1       0.324   9.224  21.747  0.00  0.00    +0.000 NA
ATOM      3  N   UNL     1       1.101   8.177  21.314  0.00  0.00    +0.000 NA
ATOM      4  C   UNL     1       1.588   8.380  20.109  0.00  0.00    +0.000 A 
ATOM      5  N   UNL     1       2.389   7.457  19.477  0.00  0.00    +0.000 N 
ATOM      6  C   UNL     1       2.707   7.443  18.144  0.00  0.00    +0.000 C 
ATOM      7  O   UNL     1       2.354   8.291  17.328  0.00  0.00    +0.000 OA
ATOM      8  S   UNL     1       1.176   9.895  19.440  0.00  0.00    +0.000 S 
ATOM      9  H   UNL     1       2.609   6.661  20.075  0.00  0.00    +0.000 HD
ENDROOT
BRANCH   6  10
ATOM     10  C   UNL     1       3.554   6.322  17.609  0.00  0.00    +0.000 A 
ATOM     11  C   UNL     1       4.763   6.759  17.018  0.00  0.00    +0.000 A 
ATOM     12  C   UNL     1       5.628   5.877  16.371  0.00  0.00    +0.000 A 
ATOM     13  C   UNL     1       5.315   4.528  16.307  0.00  0.00    +0.000 A 
ATOM     14  C   UNL     1       4.144   4.063  16.903  0.00  0.00    +0.000 A 
ATOM     15  C   UNL     1       3.246   4.949  17.541  0.00  0.00    +0.000 A 
BRANCH  15  16
ATOM     16  C   UNL     1       2.041   4.346  18.158  0.00  0.00    +0.000 C 
ATOM     17  O   UNL     1       1.083   3.984  17.499  0.00  0.00    +0.000 OA
BRANCH  16  18
ATOM     18  O   UNL     1       2.068   4.267  19.504  0.00  0.00    +0.000 OA
ATOM     19  H   UNL     1       2.943   4.302  19.932  0.00  0.00    +0.000 HD
ENDBRANCH  16  18
ENDBRANCH  15  16
ENDBRANCH   6  10
BRANCH   1  20
ATOM     20  S   UNL     1      -0.593  11.674  21.168  0.00  0.00    +0.000 S 
BRANCH  20  21
ATOM     21  C   UNL     1      -0.926  12.208  19.466  0.00  0.00    +0.000 C 
BRANCH  21  23
ATOM     22  O   UNL     1      -2.448  10.714  18.393  0.00  0.00    +0.000 OA
ATOM     23  C   UNL     1      -2.308  11.765  19.021  0.00  0.00    +0.000 C 
ATOM     24  N   UNL     1      -3.333  12.628  19.375  0.00  0.00    +0.000 N 
ATOM     25  H   UNL     1      -3.078  13.587  19.626  0.00  0.00    +0.000 HD
BRANCH  24  26
ATOM     26  C   UNL     1      -4.728  12.378  19.251  0.00  0.00    +0.000 A 
ATOM     27  C   UNL     1      -5.330  12.121  18.016  0.00  0.00    +0.000 A 
ATOM     28  C   UNL     1      -6.697  11.838  17.926  0.00  0.00    +0.000 A 
ATOM     29  C   UNL     1      -7.483  11.804  19.072  0.00  0.00    +0.000 A 
ATOM     30  C   UNL     1      -6.903  12.057  20.313  0.00  0.00    +0.000 A 
ATOM     31  C   UNL     1      -5.535  12.334  20.402  0.00  0.00    +0.000 A 
ATOM     32 CL   UNL     1      -4.895  12.634  21.977  0.00  0.00    +0.000 Cl
ENDBRANCH  24  26
ENDBRANCH  21  23
ENDBRANCH  20  21
ENDBRANCH   1  20
TORSDOF 7
ENDMDL
MODEL 6
REMARK VINA RESULT:      -8.0      7.603     10.855
REMARK  Name = 
REMARK  7 active torsions:
REMARK  status: ('A' for Active; 'I' for Inactive)
REMARK    1  A    between atoms: C_2  and  C_3
REMARK    2  A    between atoms: C_3  and  S_4
REMARK    3  A    between atoms: S_4  and  C_5
REMARK    4  A    between atoms: C_10  and  C_12
REMARK    5  A    between atoms: C_17  and  C_18
REMARK    6  A    between atoms: C_18  and  O_20
REMARK    7  A    between atoms: N_22  and  C_23
REMARK                            x       y       z     vdW  Elec       q    Type
REMARK                         _______ _______ _______ _____ _____    ______ ____
ROOT
ATOM      1  C   UNL     1       0.068  10.522  20.583  0.00  0.00    +0.000 A 
ATOM      2  N   UNL     1       0.008   9.571  21.489  0.00  0.00    +0.000 NA
ATOM      3  N   UNL     1       0.798   8.497  21.152  0.00  0.00    +0.000 NA
ATOM      4  C   UNL     1       1.390   8.658  19.988  0.00  0.00    +0.000 A 
ATOM      5  N   UNL     1       2.222   7.702  19.451  0.00  0.00    +0.000 N 
ATOM      6  C   UNL     1       2.652   7.646  18.152  0.00  0.00    +0.000 C 
ATOM      7  O   UNL     1       2.389   8.478  17.287  0.00  0.00    +0.000 OA
ATOM      8  S   UNL     1       1.069  10.162  19.247  0.00  0.00    +0.000 S 
ATOM      9  H   UNL     1       2.374   6.920  20.087  0.00  0.00    +0.000 HD
ENDROOT
BRANCH   6  10
ATOM     10  C   UNL     1       3.518   6.495  17.720  0.00  0.00    +0.000 A 
ATOM     11  C   UNL     1       4.791   6.891  17.246  0.00  0.00    +0.000 A 
ATOM     12  C   UNL     1       5.692   5.976  16.703  0.00  0.00    +0.000 A 
ATOM     13  C   UNL     1       5.351   4.635  16.627  0.00  0.00    +0.000 A 
ATOM     14  C   UNL     1       4.114   4.210  17.111  0.00  0.00    +0.000 A 
ATOM     15  C   UNL     1       3.181   5.129  17.643  0.00  0.00    +0.000 A 
BRANCH  15  16
ATOM     16  C   UNL     1       1.906   4.568  18.146  0.00  0.00    +0.000 C 
ATOM     17  O   UNL     1       1.060   4.103  17.402  0.00  0.00    +0.000 OA
BRANCH  16  18
ATOM     18  O   UNL     1       1.734   4.648  19.481  0.00  0.00    +0.000 OA
ATOM     19  H   UNL     1       1.821   3.820  19.989  0.00  0.00    +0.000 HD
ENDBRANCH  16  18
ENDBRANCH  15  16
ENDBRANCH   6  10
BRANCH   1  20
ATOM     20  S   UNL     1      -0.803  12.021  20.771  0.00  0.00    +0.000 S 
BRANCH  20  21
ATOM     21  C   UNL     1       0.570  13.206  20.684  0.00  0.00    +0.000 C 
BRANCH  21  23
ATOM     22  O   UNL     1       0.159  13.531  18.355  0.00  0.00    +0.000 OA
ATOM     23  C   UNL     1       0.476  14.051  19.426  0.00  0.00    +0.000 C 
ATOM     24  N   UNL     1       0.777  15.391  19.607  0.00  0.00    +0.000 N 
ATOM     25  H   UNL     1       1.302  15.649  20.448  0.00  0.00    +0.000 HD
BRANCH  24  26
ATOM     26  C   UNL     1       0.597  16.433  18.656  0.00  0.00    +0.000 A 
ATOM     27  C   UNL     1      -0.654  17.010  18.414  0.00  0.00    +0.000 A 
ATOM     28  C   UNL     1      -0.798  18.061  17.503  0.00  0.00    +0.000 A 
ATOM     29  C   UNL     1       0.309  18.557  16.823  0.00  0.00    +0.000 A 
ATOM     30  C   UNL     1       1.564  17.998  17.050  0.00  0.00    +0.000 A 
ATOM     31  C   UNL     1       1.708  16.949  17.965  0.00  0.00    +0.000 A 
ATOM     32 CL   UNL     1       3.297  16.314  18.190  0.00  0.00    +0.000 Cl
ENDBRANCH  24  26
ENDBRANCH  21  23
ENDBRANCH  20  21
ENDBRANCH   1  20
TORSDOF 7
ENDMDL
MODEL 7
REMARK VINA RESULT:      -7.9      6.923      9.984
REMARK  Name = 
REMARK  7 active torsions:
REMARK  status: ('A' for Active; 'I' for Inactive)
REMARK    1  A    between atoms: C_2  and  C_3
REMARK    2  A    between atoms: C_3  and  S_4
REMARK    3  A    between atoms: S_4  and  C_5
REMARK    4  A    between atoms: C_10  and  C_12
REMARK    5  A    between atoms: C_17  and  C_18
REMARK    6  A    between atoms: C_18  and  O_20
REMARK    7  A    between atoms: N_22  and  C_23
REMARK                            x       y       z     vdW  Elec       q    Type
REMARK                         _______ _______ _______ _____ _____    ______ ____
ROOT
ATOM      1  C   UNL     1       0.533  10.794  21.349  0.00  0.00    +0.000 A 
ATOM      2  N   UNL     1       0.546   9.983  22.384  0.00  0.00    +0.000 NA
ATOM      3  N   UNL     1       1.140   8.781  22.081  0.00  0.00    +0.000 NA
ATOM      4  C   UNL     1       1.515   8.712  20.823  0.00  0.00    +0.000 A 
ATOM      5  N   UNL     1       2.126   7.594  20.300  0.00  0.00    +0.000 N 
ATOM      6  C   UNL     1       2.295   7.316  18.969  0.00  0.00    +0.000 C 
ATOM      7  O   UNL     1       1.962   8.057  18.048  0.00  0.00    +0.000 OA
ATOM      8  S   UNL     1       1.221  10.137  19.931  0.00  0.00    +0.000 S 
ATOM      9  H   UNL     1       2.311   6.886  21.010  0.00  0.00    +0.000 HD
ENDROOT
BRANCH   6  10
ATOM     10  C   UNL     1       2.937   6.015  18.573  0.00  0.00    +0.000 A 
ATOM     11  C   UNL     1       3.826   6.133  17.479  0.00  0.00    +0.000 A 
ATOM     12  C   UNL     1       4.434   5.020  16.900  0.00  0.00    +0.000 A 
ATOM     13  C   UNL     1       4.180   3.755  17.406  0.00  0.00    +0.000 A 
ATOM     14  C   UNL     1       3.329   3.609  18.500  0.00  0.00    +0.000 A 
ATOM     15  C   UNL     1       2.687   4.725  19.082  0.00  0.00    +0.000 A 
BRANCH  15  16
ATOM     16  C   UNL     1       1.818   4.459  20.253  0.00  0.00    +0.000 C 
ATOM     17  O   UNL     1       0.721   3.943  20.146  0.00  0.00    +0.000 OA
BRANCH  16  18
ATOM     18  O   UNL     1       2.316   4.868  21.438  0.00  0.00    +0.000 OA
ATOM     19  H   UNL     1       3.025   5.537  21.413  0.00  0.00    +0.000 HD
ENDBRANCH  16  18
ENDBRANCH  15  16
ENDBRANCH   6  10
BRANCH   1  20
ATOM     20  S   UNL     1      -0.122  12.406  21.456  0.00  0.00    +0.000 S 
BRANCH  20  21
ATOM     21  C   UNL     1      -1.835  12.094  20.941  0.00  0.00    +0.000 C 
BRANCH  21  23
ATOM     22  O   UNL     1      -1.303  12.919  18.764  0.00  0.00    +0.000 OA
ATOM     23  C   UNL     1      -1.955  12.111  19.428  0.00  0.00    +0.000 C 
ATOM     24  N   UNL     1      -2.835  11.175  18.908  0.00  0.00    +0.000 N 
ATOM     25  H   UNL     1      -3.526  10.770  19.546  0.00  0.00    +0.000 HD
BRANCH  24  26
ATOM     26  C   UNL     1      -3.006  10.847  17.535  0.00  0.00    +0.000 A 
ATOM     27  C   UNL     1      -2.126   9.996  16.859  0.00  0.00    +0.000 A 
ATOM     28  C   UNL     1      -2.339   9.656  15.519  0.00  0.00    +0.000 A 
ATOM     29  C   UNL     1      -3.439  10.160  14.834  0.00  0.00    +0.000 A 
ATOM     30  C   UNL     1      -4.328  11.008  15.488  0.00  0.00    +0.000 A 
ATOM     31  C   UNL     1      -4.117  11.344  16.830  0.00  0.00    +0.000 A 
ATOM     32 CL   UNL     1      -5.267  12.399  17.567  0.00  0.00    +0.000 Cl
ENDBRANCH  24  26
ENDBRANCH  21  23
ENDBRANCH  20  21
ENDBRANCH   1  20
TORSDOF 7
ENDMDL
MODEL 8
REMARK VINA RESULT:      -7.7      6.757      9.616
REMARK  Name = 
REMARK  7 active torsions:
REMARK  status: ('A' for Active; 'I' for Inactive)
REMARK    1  A    between atoms: C_2  and  C_3
REMARK    2  A    between atoms: C_3  and  S_4
REMARK    3  A    between atoms: S_4  and  C_5
REMARK    4  A    between atoms: C_10  and  C_12
REMARK    5  A    between atoms: C_17  and  C_18
REMARK    6  A    between atoms: C_18  and  O_20
REMARK    7  A    between atoms: N_22  and  C_23
REMARK                            x       y       z     vdW  Elec       q    Type
REMARK                         _______ _______ _______ _____ _____    ______ ____
ROOT
ATOM      1  C   UNL     1       0.996   9.597  19.609  0.00  0.00    +0.000 A 
ATOM      2  N   UNL     1       1.213  10.212  18.467  0.00  0.00    +0.000 NA
ATOM      3  N   UNL     1       1.991   9.455  17.622  0.00  0.00    +0.000 NA
ATOM      4  C   UNL     1       2.364   8.319  18.170  0.00  0.00    +0.000 A 
ATOM      5  N   UNL     1       3.154   7.410  17.504  0.00  0.00    +0.000 N 
ATOM      6  C   UNL     1       3.819   6.354  18.068  0.00  0.00    +0.000 C 
ATOM      7  O   UNL     1       3.766   6.042  19.256  0.00  0.00    +0.000 OA
ATOM      8  S   UNL     1       1.745   8.068  19.740  0.00  0.00    +0.000 S 
ATOM      9  H   UNL     1       3.337   7.688  16.540  0.00  0.00    +0.000 HD
ENDROOT
BRANCH   6  10
ATOM     10  C   UNL     1       4.687   5.489  17.197  0.00  0.00    +0.000 A 
ATOM     11  C   UNL     1       5.742   6.193  16.571  0.00  0.00    +0.000 A 
ATOM     12  C   UNL     1       6.587   5.585  15.643  0.00  0.00    +0.000 A 
ATOM     13  C   UNL     1       6.408   4.249  15.321  0.00  0.00    +0.000 A 
ATOM     14  C   UNL     1       5.393   3.520  15.941  0.00  0.00    +0.000 A 
ATOM     15  C   UNL     1       4.515   4.129  16.866  0.00  0.00    +0.000 A 
BRANCH  15  16
ATOM     16  C   UNL     1       3.484   3.260  17.479  0.00  0.00    +0.000 C 
ATOM     17  O   UNL     1       3.743   2.475  18.374  0.00  0.00    +0.000 OA
BRANCH  16  18
ATOM     18  O   UNL     1       2.251   3.372  16.946  0.00  0.00    +0.000 OA
ATOM     19  H   UNL     1       1.745   4.176  17.167  0.00  0.00    +0.000 HD
ENDBRANCH  16  18
ENDBRANCH  15  16
ENDBRANCH   6  10
BRANCH   1  20
ATOM     20  S   UNL     1       0.007  10.306  20.857  0.00  0.00    +0.000 S 
BRANCH  20  21
ATOM     21  C   UNL     1       0.077  12.054  20.373  0.00  0.00    +0.000 C 
BRANCH  21  23
ATOM     22  O   UNL     1      -1.570  13.737  19.978  0.00  0.00    +0.000 OA
ATOM     23  C   UNL     1      -1.284  12.541  19.908  0.00  0.00    +0.000 C 
ATOM     24  N   UNL     1      -2.121  11.545  19.430  0.00  0.00    +0.000 N 
ATOM     25  H   UNL     1      -1.901  10.578  19.687  0.00  0.00    +0.000 HD
BRANCH  24  26
ATOM     26  C   UNL     1      -3.366  11.733  18.769  0.00  0.00    +0.000 A 
ATOM     27  C   UNL     1      -4.458  12.337  19.399  0.00  0.00    +0.000 A 
ATOM     28  C   UNL     1      -5.659  12.548  18.714  0.00  0.00    +0.000 A 
ATOM     29  C   UNL     1      -5.785  12.161  17.384  0.00  0.00    +0.000 A 
ATOM     30  C   UNL     1      -4.709  11.558  16.737  0.00  0.00    +0.000 A 
ATOM     31  C   UNL     1      -3.507  11.353  17.422  0.00  0.00    +0.000 A 
ATOM     32 CL   UNL     1      -2.222  10.601  16.547  0.00  0.00    +0.000 Cl
ENDBRANCH  24  26
ENDBRANCH  21  23
ENDBRANCH  20  21
ENDBRANCH   1  20
TORSDOF 7
ENDMDL
MODEL 9
REMARK VINA RESULT:      -7.7      6.379      9.932
REMARK  Name = 
REMARK  7 active torsions:
REMARK  status: ('A' for Active; 'I' for Inactive)
REMARK    1  A    between atoms: C_2  and  C_3
REMARK    2  A    between atoms: C_3  and  S_4
REMARK    3  A    between atoms: S_4  and  C_5
REMARK    4  A    between atoms: C_10  and  C_12
REMARK    5  A    between atoms: C_17  and  C_18
REMARK    6  A    between atoms: C_18  and  O_20
REMARK    7  A    between atoms: N_22  and  C_23
REMARK                            x       y       z     vdW  Elec       q    Type
REMARK                         _______ _______ _______ _____ _____    ______ ____
ROOT
ATOM      1  C   UNL     1       1.037   9.426  19.812  0.00  0.00    +0.000 A 
ATOM      2  N   UNL     1       1.116  10.045  18.655  0.00  0.00    +0.000 NA
ATOM      3  N   UNL     1       1.834   9.315  17.737  0.00  0.00    +0.000 NA
ATOM      4  C   UNL     1       2.302   8.195  18.244  0.00  0.00    +0.000 A 
ATOM      5  N   UNL     1       3.055   7.314  17.503  0.00  0.00    +0.000 N 
ATOM      6  C   UNL     1       3.811   6.285  17.998  0.00  0.00    +0.000 C 
ATOM      7  O   UNL     1       3.887   5.975  19.185  0.00  0.00    +0.000 OA
ATOM      8  S   UNL     1       1.850   7.926  19.868  0.00  0.00    +0.000 S 
ATOM      9  H   UNL     1       3.131   7.595  16.526  0.00  0.00    +0.000 HD
ENDROOT
BRANCH   6  10
ATOM     10  C   UNL     1       4.620   5.450  17.044  0.00  0.00    +0.000 A 
ATOM     11  C   UNL     1       5.178   6.191  15.976  0.00  0.00    +0.000 A 
ATOM     12  C   UNL     1       5.869   5.574  14.933  0.00  0.00    +0.000 A 
ATOM     13  C   UNL     1       6.033   4.198  14.934  0.00  0.00    +0.000 A 
ATOM     14  C   UNL     1       5.517   3.443  15.987  0.00  0.00    +0.000 A 
ATOM     15  C   UNL     1       4.794   4.051  17.038  0.00  0.00    +0.000 A 
BRANCH  15  16
ATOM     16  C   UNL     1       4.306   3.158  18.115  0.00  0.00    +0.000 C 
ATOM     17  O   UNL     1       3.261   2.539  18.025  0.00  0.00    +0.000 OA
BRANCH  16  18
ATOM     18  O   UNL     1       5.084   3.115  19.216  0.00  0.00    +0.000 OA
ATOM     19  H   UNL     1       4.651   2.871  20.054  0.00  0.00    +0.000 HD
ENDBRANCH  16  18
ENDBRANCH  15  16
ENDBRANCH   6  10
BRANCH   1  20
ATOM     20  S   UNL     1       0.150  10.102  21.153  0.00  0.00    +0.000 S 
BRANCH  20  21
ATOM     21  C   UNL     1      -0.539  11.588  20.370  0.00  0.00    +0.000 C 
BRANCH  21  23
ATOM     22  O   UNL     1       1.063  13.044  21.378  0.00  0.00    +0.000 OA
ATOM     23  C   UNL     1       0.486  12.708  20.343  0.00  0.00    +0.000 C 
ATOM     24  N   UNL     1       0.681  13.282  19.096  0.00  0.00    +0.000 N 
ATOM     25  H   UNL     1      -0.045  13.134  18.389  0.00  0.00    +0.000 HD
BRANCH  24  26
ATOM     26  C   UNL     1       1.696  14.213  18.744  0.00  0.00    +0.000 A 
ATOM     27  C   UNL     1       3.003  13.811  18.448  0.00  0.00    +0.000 A 
ATOM     28  C   UNL     1       3.973  14.742  18.065  0.00  0.00    +0.000 A 
ATOM     29  C   UNL     1       3.651  16.091  17.967  0.00  0.00    +0.000 A 
ATOM     30  C   UNL     1       2.355  16.513  18.256  0.00  0.00    +0.000 A 
ATOM     31  C   UNL     1       1.384  15.580  18.634  0.00  0.00    +0.000 A 
ATOM     32 CL   UNL     1      -0.197  16.184  18.973  0.00  0.00    +0.000 Cl
ENDBRANCH  24  26
ENDBRANCH  21  23
ENDBRANCH  20  21
ENDBRANCH   1  20
TORSDOF 7
ENDMDL
