MODEL 1
REMARK VINA RESULT:      -8.6      0.000      0.000
REMARK  Name = 
REMARK  7 active torsions:
REMARK  status: ('A' for Active; 'I' for Inactive)
REMARK    1  A    between atoms: C_1  and  C_2
REMARK    2  A    between atoms: C_2  and  N_3
REMARK    3  A    between atoms: N_3  and  C_4
REMARK    4  A    between atoms: C_4  and  N_6
REMARK    5  A    between atoms: N_6  and  N_7
REMARK    6  A    between atoms: C_8  and  C_10
REMARK    7  A    between atoms: C_12  and  C_13
REMARK                            x       y       z     vdW  Elec       q    Type
REMARK                         _______ _______ _______ _____ _____    ______ ____
ROOT
ATOM      1  C   UNL     1       7.202   6.657  17.507  0.00  0.00    +0.000 A 
ATOM      2  C   UNL     1       6.124   6.049  18.133  0.00  0.00    +0.000 A 
ATOM      3  C   UNL     1       5.320   5.118  17.443  0.00  0.00    +0.000 A 
ATOM      4  C   UNL     1       5.693   4.835  16.087  0.00  0.00    +0.000 A 
ATOM      5  C   UNL     1       5.023   3.929  15.224  0.00  0.00    +0.000 A 
ATOM      6  C   UNL     1       5.466   3.647  13.933  0.00  0.00    +0.000 A 
ATOM      7  C   UNL     1       6.583   4.296  13.447  0.00  0.00    +0.000 A 
ATOM      8  C   UNL     1       7.240   5.221  14.253  0.00  0.00    +0.000 A 
ATOM      9  C   UNL     1       6.833   5.506  15.551  0.00  0.00    +0.000 A 
ATOM     10  N   UNL     1       7.565   6.407  16.232  0.00  0.00    +0.000 NA
ENDROOT
BRANCH   3  11
ATOM     11  C   UNL     1       4.126   4.447  18.187  0.00  0.00    +0.000 C 
ATOM     12  C   UNL     1       2.751   4.744  17.482  0.00  0.00    +0.000 C 
ATOM     13  C   UNL     1       1.562   4.116  18.219  0.00  0.00    +0.000 C 
ATOM     14  C   UNL     1       1.748   2.595  18.241  0.00  0.00    +0.000 C 
ATOM     15  C   UNL     1       3.060   2.245  18.953  0.00  0.00    +0.000 C 
ATOM     16  C   UNL     1       2.997   2.781  20.393  0.00  0.00    +0.000 C 
ATOM     17  C   UNL     1       2.809   4.308  20.383  0.00  0.00    +0.000 C 
ATOM     18  C   UNL     1       1.516   4.667  19.649  0.00  0.00    +0.000 C 
ATOM     19  C   UNL     1       3.996   4.961  19.655  0.00  0.00    +0.000 C 
ATOM     20  C   UNL     1       4.248   2.892  18.207  0.00  0.00    +0.000 C 
ENDBRANCH   3  11
BRANCH   1  22
ATOM     21  N   UNL     1       8.019   8.923  17.839  0.00  0.00    +0.000 N 
ATOM     22  C   UNL     1       8.044   7.624  18.297  0.00  0.00    +0.000 C 
ATOM     23  O   UNL     1       8.694   7.264  19.271  0.00  0.00    +0.000 OA
ATOM     24  H   UNL     1       7.337   9.221  17.145  0.00  0.00    +0.000 HD
BRANCH  21  25
ATOM     25  N   UNL     1       8.785   9.889  18.508  0.00  0.00    +0.000 N 
ATOM     26  H   UNL     1       8.966   9.744  19.495  0.00  0.00    +0.000 HD
BRANCH  25  27
ATOM     27  C   UNL     1       9.196  11.043  17.883  0.00  0.00    +0.000 C 
ATOM     28  S   UNL     1       8.089  12.242  17.548  0.00  0.00    +0.000 S 
BRANCH  27  29
ATOM     29  N   UNL     1      10.525  11.040  17.540  0.00  0.00    +0.000 N 
ATOM     30  H   UNL     1      10.825  10.184  17.090  0.00  0.00    +0.000 HD
BRANCH  29  32
ATOM     31  C   UNL     1      11.822  13.060  17.117  0.00  0.00    +0.000 C 
ATOM     32  C   UNL     1      11.544  11.921  18.079  0.00  0.00    +0.000 C 
ENDBRANCH  29  32
ENDBRANCH  27  29
ENDBRANCH  25  27
ENDBRANCH  21  25
ENDBRANCH   1  22
TORSDOF 6
ENDMDL
MODEL 2
REMARK VINA RESULT:      -8.6      0.214      1.417
REMARK  Name = 
REMARK  7 active torsions:
REMARK  status: ('A' for Active; 'I' for Inactive)
REMARK    1  A    between atoms: C_1  and  C_2
REMARK    2  A    between atoms: C_2  and  N_3
REMARK    3  A    between atoms: N_3  and  C_4
REMARK    4  A    between atoms: C_4  and  N_6
REMARK    5  A    between atoms: N_6  and  N_7
REMARK    6  A    between atoms: C_8  and  C_10
REMARK    7  A    between atoms: C_12  and  C_13
REMARK                            x       y       z     vdW  Elec       q    Type
REMARK                         _______ _______ _______ _____ _____    ______ ____
ROOT
ATOM      1  C   UNL     1       7.201   6.676  17.491  0.00  0.00    +0.000 A 
ATOM      2  C   UNL     1       6.110   6.086  18.113  0.00  0.00    +0.000 A 
ATOM      3  C   UNL     1       5.303   5.156  17.424  0.00  0.00    +0.000 A 
ATOM      4  C   UNL     1       5.686   4.856  16.074  0.00  0.00    +0.000 A 
ATOM      5  C   UNL     1       5.016   3.948  15.214  0.00  0.00    +0.000 A 
ATOM      6  C   UNL     1       5.468   3.650  13.930  0.00  0.00    +0.000 A 
ATOM      7  C   UNL     1       6.596   4.282  13.448  0.00  0.00    +0.000 A 
ATOM      8  C   UNL     1       7.255   5.209  14.252  0.00  0.00    +0.000 A 
ATOM      9  C   UNL     1       6.838   5.510  15.543  0.00  0.00    +0.000 A 
ATOM     10  N   UNL     1       7.573   6.410  16.222  0.00  0.00    +0.000 NA
ENDROOT
BRANCH   3  11
ATOM     11  C   UNL     1       4.096   4.504  18.163  0.00  0.00    +0.000 C 
ATOM     12  C   UNL     1       3.969   5.014  19.646  0.00  0.00    +0.000 C 
ATOM     13  C   UNL     1       2.804   4.359  20.398  0.00  0.00    +0.000 C 
ATOM     14  C   UNL     1       1.498   4.710  19.678  0.00  0.00    +0.000 C 
ATOM     15  C   UNL     1       1.552   4.201  18.232  0.00  0.00    +0.000 C 
ATOM     16  C   UNL     1       1.738   2.674  18.255  0.00  0.00    +0.000 C 
ATOM     17  C   UNL     1       3.046   2.310  18.977  0.00  0.00    +0.000 C 
ATOM     18  C   UNL     1       3.012   2.840  20.412  0.00  0.00    +0.000 C 
ATOM     19  C   UNL     1       4.232   2.950  18.235  0.00  0.00    +0.000 C 
ATOM     20  C   UNL     1       2.735   4.860  17.490  0.00  0.00    +0.000 C 
ENDBRANCH   3  11
BRANCH   1  22
ATOM     21  N   UNL     1       8.021   8.942  17.820  0.00  0.00    +0.000 N 
ATOM     22  C   UNL     1       8.045   7.643  18.279  0.00  0.00    +0.000 C 
ATOM     23  O   UNL     1       8.695   7.283  19.253  0.00  0.00    +0.000 OA
ATOM     24  H   UNL     1       7.340   9.240  17.127  0.00  0.00    +0.000 HD
BRANCH  21  25
ATOM     25  N   UNL     1       8.790   9.907  18.488  0.00  0.00    +0.000 N 
ATOM     26  H   UNL     1       9.063   9.711  19.445  0.00  0.00    +0.000 HD
BRANCH  25  27
ATOM     27  C   UNL     1       9.083  11.120  17.912  0.00  0.00    +0.000 C 
ATOM     28  S   UNL     1       7.847  12.138  17.451  0.00  0.00    +0.000 S 
BRANCH  27  29
ATOM     29  N   UNL     1      10.425  11.329  17.721  0.00  0.00    +0.000 N 
ATOM     30  H   UNL     1      10.966  10.473  17.674  0.00  0.00    +0.000 HD
BRANCH  29  32
ATOM     31  C   UNL     1      11.419  13.281  16.651  0.00  0.00    +0.000 C 
ATOM     32  C   UNL     1      11.136  12.571  17.961  0.00  0.00    +0.000 C 
ENDBRANCH  29  32
ENDBRANCH  27  29
ENDBRANCH  25  27
ENDBRANCH  21  25
ENDBRANCH   1  22
TORSDOF 6
ENDMDL
MODEL 3
REMARK VINA RESULT:      -8.5      4.502      7.404
REMARK  Name = 
REMARK  7 active torsions:
REMARK  status: ('A' for Active; 'I' for Inactive)
REMARK    1  A    between atoms: C_1  and  C_2
REMARK    2  A    between atoms: C_2  and  N_3
REMARK    3  A    between atoms: N_3  and  C_4
REMARK    4  A    between atoms: C_4  and  N_6
REMARK    5  A    between atoms: N_6  and  N_7
REMARK    6  A    between atoms: C_8  and  C_10
REMARK    7  A    between atoms: C_12  and  C_13
REMARK                            x       y       z     vdW  Elec       q    Type
REMARK                         _______ _______ _______ _____ _____    ______ ____
ROOT
ATOM      1  C   UNL     1       1.901   7.061  20.242  0.00  0.00    +0.000 A 
ATOM      2  C   UNL     1       2.990   6.974  19.387  0.00  0.00    +0.000 A 
ATOM      3  C   UNL     1       3.556   5.723  19.065  0.00  0.00    +0.000 A 
ATOM      4  C   UNL     1       2.935   4.572  19.655  0.00  0.00    +0.000 A 
ATOM      5  C   UNL     1       3.344   3.228  19.456  0.00  0.00    +0.000 A 
ATOM      6  C   UNL     1       2.667   2.141  20.007  0.00  0.00    +0.000 A 
ATOM      7  C   UNL     1       1.568   2.370  20.811  0.00  0.00    +0.000 A 
ATOM      8  C   UNL     1       1.164   3.679  21.059  0.00  0.00    +0.000 A 
ATOM      9  C   UNL     1       1.809   4.779  20.506  0.00  0.00    +0.000 A 
ATOM     10  N   UNL     1       1.308   5.990  20.810  0.00  0.00    +0.000 NA
ENDROOT
BRANCH   3  11
ATOM     11  C   UNL     1       4.769   5.667  18.088  0.00  0.00    +0.000 C 
ATOM     12  C   UNL     1       6.140   5.585  18.855  0.00  0.00    +0.000 C 
ATOM     13  C   UNL     1       7.346   5.560  17.909  0.00  0.00    +0.000 C 
ATOM     14  C   UNL     1       7.243   4.317  17.018  0.00  0.00    +0.000 C 
ATOM     15  C   UNL     1       5.937   4.364  16.215  0.00  0.00    +0.000 C 
ATOM     16  C   UNL     1       5.941   5.630  15.341  0.00  0.00    +0.000 C 
ATOM     17  C   UNL     1       6.045   6.884  16.226  0.00  0.00    +0.000 C 
ATOM     18  C   UNL     1       7.332   6.831  17.052  0.00  0.00    +0.000 C 
ATOM     19  C   UNL     1       4.840   6.935  17.180  0.00  0.00    +0.000 C 
ATOM     20  C   UNL     1       4.732   4.399  17.180  0.00  0.00    +0.000 C 
ENDBRANCH   3  11
BRANCH   1  22
ATOM     21  N   UNL     1       1.128   9.218  19.426  0.00  0.00    +0.000 N 
ATOM     22  C   UNL     1       1.318   8.419  20.533  0.00  0.00    +0.000 C 
ATOM     23  O   UNL     1       1.039   8.769  21.673  0.00  0.00    +0.000 OA
ATOM     24  H   UNL     1       1.202   8.837  18.486  0.00  0.00    +0.000 HD
BRANCH  21  25
ATOM     25  N   UNL     1       0.601  10.505  19.606  0.00  0.00    +0.000 N 
ATOM     26  H   UNL     1       0.709  10.934  20.519  0.00  0.00    +0.000 HD
BRANCH  25  27
ATOM     27  C   UNL     1      -0.123  11.132  18.620  0.00  0.00    +0.000 C 
ATOM     28  S   UNL     1      -0.363  12.780  18.690  0.00  0.00    +0.000 S 
BRANCH  27  29
ATOM     29  N   UNL     1      -0.638  10.272  17.684  0.00  0.00    +0.000 N 
ATOM     30  H   UNL     1      -0.014  10.101  16.904  0.00  0.00    +0.000 HD
BRANCH  29  32
ATOM     31  C   UNL     1      -2.503  10.240  16.114  0.00  0.00    +0.000 C 
ATOM     32  C   UNL     1      -2.039   9.928  17.523  0.00  0.00    +0.000 C 
ENDBRANCH  29  32
ENDBRANCH  27  29
ENDBRANCH  25  27
ENDBRANCH  21  25
ENDBRANCH   1  22
TORSDOF 6
ENDMDL
MODEL 4
REMARK VINA RESULT:      -8.5      0.461      1.300
REMARK  Name = 
REMARK  7 active torsions:
REMARK  status: ('A' for Active; 'I' for Inactive)
REMARK    1  A    between atoms: C_1  and  C_2
REMARK    2  A    between atoms: C_2  and  N_3
REMARK    3  A    between atoms: N_3  and  C_4
REMARK    4  A    between atoms: C_4  and  N_6
REMARK    5  A    between atoms: N_6  and  N_7
REMARK    6  A    between atoms: C_8  and  C_10
REMARK    7  A    between atoms: C_12  and  C_13
REMARK                            x       y       z     vdW  Elec       q    Type
REMARK                         _______ _______ _______ _____ _____    ______ ____
ROOT
ATOM      1  C   UNL     1       7.208   6.659  17.468  0.00  0.00    +0.000 A 
ATOM      2  C   UNL     1       6.093   6.085  18.062  0.00  0.00    +0.000 A 
ATOM      3  C   UNL     1       5.285   5.174  17.351  0.00  0.00    +0.000 A 
ATOM      4  C   UNL     1       5.692   4.874  16.009  0.00  0.00    +0.000 A 
ATOM      5  C   UNL     1       5.024   3.983  15.129  0.00  0.00    +0.000 A 
ATOM      6  C   UNL     1       5.498   3.683  13.853  0.00  0.00    +0.000 A 
ATOM      7  C   UNL     1       6.648   4.297  13.400  0.00  0.00    +0.000 A 
ATOM      8  C   UNL     1       7.306   5.207  14.222  0.00  0.00    +0.000 A 
ATOM      9  C   UNL     1       6.867   5.510  15.506  0.00  0.00    +0.000 A 
ATOM     10  N   UNL     1       7.603   6.392  16.206  0.00  0.00    +0.000 NA
ENDROOT
BRANCH   3  11
ATOM     11  C   UNL     1       4.050   4.541  18.060  0.00  0.00    +0.000 C 
ATOM     12  C   UNL     1       3.814   3.051  17.613  0.00  0.00    +0.000 C 
ATOM     13  C   UNL     1       2.585   2.422  18.279  0.00  0.00    +0.000 C 
ATOM     14  C   UNL     1       2.798   2.417  19.796  0.00  0.00    +0.000 C 
ATOM     15  C   UNL     1       2.997   3.854  20.294  0.00  0.00    +0.000 C 
ATOM     16  C   UNL     1       1.741   4.673  19.949  0.00  0.00    +0.000 C 
ATOM     17  C   UNL     1       1.516   4.683  18.428  0.00  0.00    +0.000 C 
ATOM     18  C   UNL     1       1.346   3.250  17.918  0.00  0.00    +0.000 C 
ATOM     19  C   UNL     1       2.735   5.318  17.738  0.00  0.00    +0.000 C 
ATOM     20  C   UNL     1       4.231   4.479  19.609  0.00  0.00    +0.000 C 
ENDBRANCH   3  11
BRANCH   1  22
ATOM     21  N   UNL     1       8.046   8.911  17.841  0.00  0.00    +0.000 N 
ATOM     22  C   UNL     1       8.052   7.605  18.280  0.00  0.00    +0.000 C 
ATOM     23  O   UNL     1       8.689   7.225  19.255  0.00  0.00    +0.000 OA
ATOM     24  H   UNL     1       7.374   9.226  17.145  0.00  0.00    +0.000 HD
BRANCH  21  25
ATOM     25  N   UNL     1       8.815   9.859  18.531  0.00  0.00    +0.000 N 
ATOM     26  H   UNL     1       8.979   9.702  19.519  0.00  0.00    +0.000 HD
BRANCH  25  27
ATOM     27  C   UNL     1       9.252  11.013  17.925  0.00  0.00    +0.000 C 
ATOM     28  S   UNL     1       8.168  12.234  17.591  0.00  0.00    +0.000 S 
BRANCH  27  29
ATOM     29  N   UNL     1      10.584  10.993  17.597  0.00  0.00    +0.000 N 
ATOM     30  H   UNL     1      10.912  10.085  17.289  0.00  0.00    +0.000 HD
BRANCH  29  32
ATOM     31  C   UNL     1      11.907  11.818  19.471  0.00  0.00    +0.000 C 
ATOM     32  C   UNL     1      11.574  11.974  17.999  0.00  0.00    +0.000 C 
ENDBRANCH  29  32
ENDBRANCH  27  29
ENDBRANCH  25  27
ENDBRANCH  21  25
ENDBRANCH   1  22
TORSDOF 6
ENDMDL
MODEL 5
REMARK VINA RESULT:      -8.5      4.605      7.479
REMARK  Name = 
REMARK  7 active torsions:
REMARK  status: ('A' for Active; 'I' for Inactive)
REMARK    1  A    between atoms: C_1  and  C_2
REMARK    2  A    between atoms: C_2  and  N_3
REMARK    3  A    between atoms: N_3  and  C_4
REMARK    4  A    between atoms: C_4  and  N_6
REMARK    5  A    between atoms: N_6  and  N_7
REMARK    6  A    between atoms: C_8  and  C_10
REMARK    7  A    between atoms: C_12  and  C_13
REMARK                            x       y       z     vdW  Elec       q    Type
REMARK                         _______ _______ _______ _____ _____    ______ ____
ROOT
ATOM      1  C   UNL     1       1.904   7.119  20.146  0.00  0.00    +0.000 A 
ATOM      2  C   UNL     1       3.024   7.010  19.335  0.00  0.00    +0.000 A 
ATOM      3  C   UNL     1       3.618   5.755  19.090  0.00  0.00    +0.000 A 
ATOM      4  C   UNL     1       2.991   4.621  19.707  0.00  0.00    +0.000 A 
ATOM      5  C   UNL     1       3.425   3.276  19.583  0.00  0.00    +0.000 A 
ATOM      6  C   UNL     1       2.742   2.205  20.157  0.00  0.00    +0.000 A 
ATOM      7  C   UNL     1       1.612   2.453  20.910  0.00  0.00    +0.000 A 
ATOM      8  C   UNL     1       1.182   3.765  21.085  0.00  0.00    +0.000 A 
ATOM      9  C   UNL     1       1.832   4.849  20.508  0.00  0.00    +0.000 A 
ATOM     10  N   UNL     1       1.305   6.065  20.739  0.00  0.00    +0.000 NA
ENDROOT
BRANCH   3  11
ATOM     11  C   UNL     1       4.866   5.674  18.160  0.00  0.00    +0.000 C 
ATOM     12  C   UNL     1       4.947   6.897  17.175  0.00  0.00    +0.000 C 
ATOM     13  C   UNL     1       6.153   6.818  16.232  0.00  0.00    +0.000 C 
ATOM     14  C   UNL     1       7.434   6.822  17.074  0.00  0.00    +0.000 C 
ATOM     15  C   UNL     1       7.426   5.623  18.030  0.00  0.00    +0.000 C 
ATOM     16  C   UNL     1       7.355   4.330  17.199  0.00  0.00    +0.000 C 
ATOM     17  C   UNL     1       6.073   4.317  16.349  0.00  0.00    +0.000 C 
ATOM     18  C   UNL     1       6.060   5.527  15.411  0.00  0.00    +0.000 C 
ATOM     19  C   UNL     1       4.847   4.388  17.275  0.00  0.00    +0.000 C 
ATOM     20  C   UNL     1       6.201   5.710  18.967  0.00  0.00    +0.000 C 
ENDBRANCH   3  11
BRANCH   1  22
ATOM     21  N   UNL     1       1.298   9.294  19.244  0.00  0.00    +0.000 N 
ATOM     22  C   UNL     1       1.293   8.479  20.355  0.00  0.00    +0.000 C 
ATOM     23  O   UNL     1       0.830   8.817  21.437  0.00  0.00    +0.000 OA
ATOM     24  H   UNL     1       1.525   8.925  18.324  0.00  0.00    +0.000 HD
BRANCH  21  25
ATOM     25  N   UNL     1       0.760  10.585  19.352  0.00  0.00    +0.000 N 
ATOM     26  H   UNL     1       1.291  11.274  19.874  0.00  0.00    +0.000 HD
BRANCH  25  27
ATOM     27  C   UNL     1      -0.486  10.891  18.858  0.00  0.00    +0.000 C 
ATOM     28  S   UNL     1      -1.548  11.780  19.785  0.00  0.00    +0.000 S 
BRANCH  27  29
ATOM     29  N   UNL     1      -0.738  10.349  17.624  0.00  0.00    +0.000 N 
ATOM     30  H   UNL     1      -0.050  10.599  16.923  0.00  0.00    +0.000 HD
BRANCH  29  32
ATOM     31  C   UNL     1      -2.566  10.668  16.044  0.00  0.00    +0.000 C 
ATOM     32  C   UNL     1      -2.010   9.819  17.171  0.00  0.00    +0.000 C 
ENDBRANCH  29  32
ENDBRANCH  27  29
ENDBRANCH  25  27
ENDBRANCH  21  25
ENDBRANCH   1  22
TORSDOF 6
ENDMDL
MODEL 6
REMARK VINA RESULT:      -8.5      4.619      7.486
REMARK  Name = 
REMARK  7 active torsions:
REMARK  status: ('A' for Active; 'I' for Inactive)
REMARK    1  A    between atoms: C_1  and  C_2
REMARK    2  A    between atoms: C_2  and  N_3
REMARK    3  A    between atoms: N_3  and  C_4
REMARK    4  A    between atoms: C_4  and  N_6
REMARK    5  A    between atoms: N_6  and  N_7
REMARK    6  A    between atoms: C_8  and  C_10
REMARK    7  A    between atoms: C_12  and  C_13
REMARK                            x       y       z     vdW  Elec       q    Type
REMARK                         _______ _______ _______ _____ _____    ______ ____
ROOT
ATOM      1  C   UNL     1       1.894   7.122  20.144  0.00  0.00    +0.000 A 
ATOM      2  C   UNL     1       3.009   7.024  19.324  0.00  0.00    +0.000 A 
ATOM      3  C   UNL     1       3.640   5.781  19.108  0.00  0.00    +0.000 A 
ATOM      4  C   UNL     1       3.055   4.647  19.764  0.00  0.00    +0.000 A 
ATOM      5  C   UNL     1       3.529   3.313  19.673  0.00  0.00    +0.000 A 
ATOM      6  C   UNL     1       2.885   2.238  20.285  0.00  0.00    +0.000 A 
ATOM      7  C   UNL     1       1.755   2.472  21.042  0.00  0.00    +0.000 A 
ATOM      8  C   UNL     1       1.286   3.775  21.184  0.00  0.00    +0.000 A 
ATOM      9  C   UNL     1       1.897   4.862  20.570  0.00  0.00    +0.000 A 
ATOM     10  N   UNL     1       1.334   6.067  20.772  0.00  0.00    +0.000 NA
ENDROOT
BRANCH   3  11
ATOM     11  C   UNL     1       4.881   5.712  18.169  0.00  0.00    +0.000 C 
ATOM     12  C   UNL     1       4.867   4.423  17.268  0.00  0.00    +0.000 C 
ATOM     13  C   UNL     1       6.097   4.324  16.358  0.00  0.00    +0.000 C 
ATOM     14  C   UNL     1       6.113   5.538  15.422  0.00  0.00    +0.000 C 
ATOM     15  C   UNL     1       6.165   6.827  16.250  0.00  0.00    +0.000 C 
ATOM     16  C   UNL     1       7.445   6.813  17.104  0.00  0.00    +0.000 C 
ATOM     17  C   UNL     1       7.440   5.598  18.046  0.00  0.00    +0.000 C 
ATOM     18  C   UNL     1       7.359   4.307  17.228  0.00  0.00    +0.000 C 
ATOM     19  C   UNL     1       6.217   5.679  18.976  0.00  0.00    +0.000 C 
ATOM     20  C   UNL     1       4.926   6.909  17.169  0.00  0.00    +0.000 C 
ENDBRANCH   3  11
BRANCH   1  22
ATOM     21  N   UNL     1       1.360   9.315  19.240  0.00  0.00    +0.000 N 
ATOM     22  C   UNL     1       1.243   8.468  20.320  0.00  0.00    +0.000 C 
ATOM     23  O   UNL     1       0.657   8.769  21.353  0.00  0.00    +0.000 OA
ATOM     24  H   UNL     1       1.694   8.975  18.341  0.00  0.00    +0.000 HD
BRANCH  21  25
ATOM     25  N   UNL     1       0.794  10.596  19.322  0.00  0.00    +0.000 N 
ATOM     26  H   UNL     1       1.324  11.314  19.805  0.00  0.00    +0.000 HD
BRANCH  25  27
ATOM     27  C   UNL     1      -0.473  10.856  18.858  0.00  0.00    +0.000 C 
ATOM     28  S   UNL     1      -1.530  11.745  19.789  0.00  0.00    +0.000 S 
BRANCH  27  29
ATOM     29  N   UNL     1      -0.748  10.270  17.648  0.00  0.00    +0.000 N 
ATOM     30  H   UNL     1      -0.007  10.382  16.966  0.00  0.00    +0.000 HD
BRANCH  29  32
ATOM     31  C   UNL     1      -2.570  10.877  16.148  0.00  0.00    +0.000 C 
ATOM     32  C   UNL     1      -2.061   9.879  17.170  0.00  0.00    +0.000 C 
ENDBRANCH  29  32
ENDBRANCH  27  29
ENDBRANCH  25  27
ENDBRANCH  21  25
ENDBRANCH   1  22
TORSDOF 6
ENDMDL
MODEL 7
REMARK VINA RESULT:      -8.3      4.710      7.442
REMARK  Name = 
REMARK  7 active torsions:
REMARK  status: ('A' for Active; 'I' for Inactive)
REMARK    1  A    between atoms: C_1  and  C_2
REMARK    2  A    between atoms: C_2  and  N_3
REMARK    3  A    between atoms: N_3  and  C_4
REMARK    4  A    between atoms: C_4  and  N_6
REMARK    5  A    between atoms: N_6  and  N_7
REMARK    6  A    between atoms: C_8  and  C_10
REMARK    7  A    between atoms: C_12  and  C_13
REMARK                            x       y       z     vdW  Elec       q    Type
REMARK                         _______ _______ _______ _____ _____    ______ ____
ROOT
ATOM      1  C   UNL     1       1.930   6.969  20.245  0.00  0.00    +0.000 A 
ATOM      2  C   UNL     1       3.064   6.909  19.448  0.00  0.00    +0.000 A 
ATOM      3  C   UNL     1       3.614   5.668  19.068  0.00  0.00    +0.000 A 
ATOM      4  C   UNL     1       2.930   4.497  19.537  0.00  0.00    +0.000 A 
ATOM      5  C   UNL     1       3.315   3.159  19.264  0.00  0.00    +0.000 A 
ATOM      6  C   UNL     1       2.578   2.057  19.696  0.00  0.00    +0.000 A 
ATOM      7  C   UNL     1       1.441   2.262  20.452  0.00  0.00    +0.000 A 
ATOM      8  C   UNL     1       1.058   3.561  20.772  0.00  0.00    +0.000 A 
ATOM      9  C   UNL     1       1.763   4.678  20.337  0.00  0.00    +0.000 A 
ATOM     10  N   UNL     1       1.277   5.879  20.699  0.00  0.00    +0.000 NA
ENDROOT
BRANCH   3  11
ATOM     11  C   UNL     1       4.880   5.644  18.158  0.00  0.00    +0.000 C 
ATOM     12  C   UNL     1       6.209   5.612  18.999  0.00  0.00    +0.000 C 
ATOM     13  C   UNL     1       7.464   5.619  18.119  0.00  0.00    +0.000 C 
ATOM     14  C   UNL     1       7.450   4.368  17.235  0.00  0.00    +0.000 C 
ATOM     15  C   UNL     1       6.189   4.367  16.362  0.00  0.00    +0.000 C 
ATOM     16  C   UNL     1       6.200   5.627  15.479  0.00  0.00    +0.000 C 
ATOM     17  C   UNL     1       6.216   6.889  16.358  0.00  0.00    +0.000 C 
ATOM     18  C   UNL     1       7.457   6.884  17.253  0.00  0.00    +0.000 C 
ATOM     19  C   UNL     1       4.959   6.908  17.245  0.00  0.00    +0.000 C 
ATOM     20  C   UNL     1       4.932   4.370  17.260  0.00  0.00    +0.000 C 
ENDBRANCH   3  11
BRANCH   1  22
ATOM     21  N   UNL     1       1.233   9.190  19.541  0.00  0.00    +0.000 N 
ATOM     22  C   UNL     1       1.368   8.320  20.601  0.00  0.00    +0.000 C 
ATOM     23  O   UNL     1       1.057   8.605  21.751  0.00  0.00    +0.000 OA
ATOM     24  H   UNL     1       1.331   8.866  18.581  0.00  0.00    +0.000 HD
BRANCH  21  25
ATOM     25  N   UNL     1       0.729  10.476  19.783  0.00  0.00    +0.000 N 
ATOM     26  H   UNL     1       1.363  11.163  20.176  0.00  0.00    +0.000 HD
BRANCH  25  27
ATOM     27  C   UNL     1      -0.598  10.778  19.592  0.00  0.00    +0.000 C 
ATOM     28  S   UNL     1      -1.331  10.409  18.141  0.00  0.00    +0.000 S 
BRANCH  27  29
ATOM     29  N   UNL     1      -1.172  11.434  20.651  0.00  0.00    +0.000 N 
ATOM     30  H   UNL     1      -1.971  12.002  20.391  0.00  0.00    +0.000 HD
BRANCH  29  32
ATOM     31  C   UNL     1      -1.554  11.502  23.057  0.00  0.00    +0.000 C 
ATOM     32  C   UNL     1      -0.549  11.684  21.937  0.00  0.00    +0.000 C 
ENDBRANCH  29  32
ENDBRANCH  27  29
ENDBRANCH  25  27
ENDBRANCH  21  25
ENDBRANCH   1  22
TORSDOF 6
ENDMDL
MODEL 8
REMARK VINA RESULT:      -8.3      1.061      1.912
REMARK  Name = 
REMARK  7 active torsions:
REMARK  status: ('A' for Active; 'I' for Inactive)
REMARK    1  A    between atoms: C_1  and  C_2
REMARK    2  A    between atoms: C_2  and  N_3
REMARK    3  A    between atoms: N_3  and  C_4
REMARK    4  A    between atoms: C_4  and  N_6
REMARK    5  A    between atoms: N_6  and  N_7
REMARK    6  A    between atoms: C_8  and  C_10
REMARK    7  A    between atoms: C_12  and  C_13
REMARK                            x       y       z     vdW  Elec       q    Type
REMARK                         _______ _______ _______ _____ _____    ______ ____
ROOT
ATOM      1  C   UNL     1       7.187   6.524  17.545  0.00  0.00    +0.000 A 
ATOM      2  C   UNL     1       6.095   5.940  18.170  0.00  0.00    +0.000 A 
ATOM      3  C   UNL     1       5.265   5.035  17.477  0.00  0.00    +0.000 A 
ATOM      4  C   UNL     1       5.626   4.751  16.118  0.00  0.00    +0.000 A 
ATOM      5  C   UNL     1       4.931   3.868  15.251  0.00  0.00    +0.000 A 
ATOM      6  C   UNL     1       5.361   3.584  13.957  0.00  0.00    +0.000 A 
ATOM      7  C   UNL     1       6.494   4.207  13.471  0.00  0.00    +0.000 A 
ATOM      8  C   UNL     1       7.177   5.109  14.281  0.00  0.00    +0.000 A 
ATOM      9  C   UNL     1       6.781   5.396  15.582  0.00  0.00    +0.000 A 
ATOM     10  N   UNL     1       7.539   6.273  16.267  0.00  0.00    +0.000 NA
ENDROOT
BRANCH   3  11
ATOM     11  C   UNL     1       4.057   4.390  18.221  0.00  0.00    +0.000 C 
ATOM     12  C   UNL     1       4.178   2.823  18.293  0.00  0.00    +0.000 C 
ATOM     13  C   UNL     1       2.982   2.169  18.995  0.00  0.00    +0.000 C 
ATOM     14  C   UNL     1       2.915   2.691  20.434  0.00  0.00    +0.000 C 
ATOM     15  C   UNL     1       2.758   4.216  20.424  0.00  0.00    +0.000 C 
ATOM     16  C   UNL     1       1.458   4.572  19.681  0.00  0.00    +0.000 C 
ATOM     17  C   UNL     1       1.515   4.052  18.235  0.00  0.00    +0.000 C 
ATOM     18  C   UNL     1       1.700   2.533  18.237  0.00  0.00    +0.000 C 
ATOM     19  C   UNL     1       2.704   4.701  17.506  0.00  0.00    +0.000 C 
ATOM     20  C   UNL     1       3.963   4.861  19.705  0.00  0.00    +0.000 C 
ENDBRANCH   3  11
BRANCH   1  22
ATOM     21  N   UNL     1       8.094   8.757  17.865  0.00  0.00    +0.000 N 
ATOM     22  C   UNL     1       8.056   7.463  18.338  0.00  0.00    +0.000 C 
ATOM     23  O   UNL     1       8.674   7.089  19.327  0.00  0.00    +0.000 OA
ATOM     24  H   UNL     1       7.438   9.075  17.156  0.00  0.00    +0.000 HD
BRANCH  21  25
ATOM     25  N   UNL     1       8.890   9.698  18.535  0.00  0.00    +0.000 N 
ATOM     26  H   UNL     1       9.263   9.436  19.442  0.00  0.00    +0.000 HD
BRANCH  25  27
ATOM     27  C   UNL     1       9.082  10.965  18.039  0.00  0.00    +0.000 C 
ATOM     28  S   UNL     1      10.624  11.586  17.928  0.00  0.00    +0.000 S 
BRANCH  27  29
ATOM     29  N   UNL     1       7.915  11.621  17.737  0.00  0.00    +0.000 N 
ATOM     30  H   UNL     1       7.098  11.023  17.756  0.00  0.00    +0.000 HD
BRANCH  29  32
ATOM     31  C   UNL     1       7.697  14.026  18.069  0.00  0.00    +0.000 C 
ATOM     32  C   UNL     1       7.809  12.899  17.060  0.00  0.00    +0.000 C 
ENDBRANCH  29  32
ENDBRANCH  27  29
ENDBRANCH  25  27
ENDBRANCH  21  25
ENDBRANCH   1  22
TORSDOF 6
ENDMDL
MODEL 9
REMARK VINA RESULT:      -8.3      4.521      6.183
REMARK  Name = 
REMARK  7 active torsions:
REMARK  status: ('A' for Active; 'I' for Inactive)
REMARK    1  A    between atoms: C_1  and  C_2
REMARK    2  A    between atoms: C_2  and  N_3
REMARK    3  A    between atoms: N_3  and  C_4
REMARK    4  A    between atoms: C_4  and  N_6
REMARK    5  A    between atoms: N_6  and  N_7
REMARK    6  A    between atoms: C_8  and  C_10
REMARK    7  A    between atoms: C_12  and  C_13
REMARK                            x       y       z     vdW  Elec       q    Type
REMARK                         _______ _______ _______ _____ _____    ______ ____
ROOT
ATOM      1  C   UNL     1       2.839   8.027  17.665  0.00  0.00    +0.000 A 
ATOM      2  C   UNL     1       2.428   6.909  18.375  0.00  0.00    +0.000 A 
ATOM      3  C   UNL     1       3.015   5.648  18.140  0.00  0.00    +0.000 A 
ATOM      4  C   UNL     1       4.054   5.603  17.152  0.00  0.00    +0.000 A 
ATOM      5  C   UNL     1       4.775   4.441  16.772  0.00  0.00    +0.000 A 
ATOM      6  C   UNL     1       5.817   4.467  15.847  0.00  0.00    +0.000 A 
ATOM      7  C   UNL     1       6.152   5.661  15.242  0.00  0.00    +0.000 A 
ATOM      8  C   UNL     1       5.439   6.812  15.562  0.00  0.00    +0.000 A 
ATOM      9  C   UNL     1       4.409   6.820  16.495  0.00  0.00    +0.000 A 
ATOM     10  N   UNL     1       3.811   8.003  16.729  0.00  0.00    +0.000 NA
ENDROOT
BRANCH   3  11
ATOM     11  C   UNL     1       2.535   4.420  18.971  0.00  0.00    +0.000 C 
ATOM     12  C   UNL     1       1.605   4.845  20.166  0.00  0.00    +0.000 C 
ATOM     13  C   UNL     1       1.148   3.651  21.012  0.00  0.00    +0.000 C 
ATOM     14  C   UNL     1       0.343   2.699  20.121  0.00  0.00    +0.000 C 
ATOM     15  C   UNL     1       1.217   2.221  18.955  0.00  0.00    +0.000 C 
ATOM     16  C   UNL     1       2.442   1.487  19.526  0.00  0.00    +0.000 C 
ATOM     17  C   UNL     1       3.257   2.434  20.423  0.00  0.00    +0.000 C 
ATOM     18  C   UNL     1       2.383   2.937  21.574  0.00  0.00    +0.000 C 
ATOM     19  C   UNL     1       3.734   3.637  19.593  0.00  0.00    +0.000 C 
ATOM     20  C   UNL     1       1.679   3.434  18.117  0.00  0.00    +0.000 C 
ENDBRANCH   3  11
BRANCH   1  22
ATOM     21  N   UNL     1       1.067   9.284  18.756  0.00  0.00    +0.000 N 
ATOM     22  C   UNL     1       2.198   9.354  17.972  0.00  0.00    +0.000 C 
ATOM     23  O   UNL     1       2.662  10.406  17.550  0.00  0.00    +0.000 OA
ATOM     24  H   UNL     1       0.812   8.423  19.234  0.00  0.00    +0.000 HD
BRANCH  21  25
ATOM     25  N   UNL     1       0.397  10.473  19.082  0.00  0.00    +0.000 N 
ATOM     26  H   UNL     1       0.805  11.061  19.801  0.00  0.00    +0.000 HD
BRANCH  25  27
ATOM     27  C   UNL     1      -0.820  10.791  18.526  0.00  0.00    +0.000 C 
ATOM     28  S   UNL     1      -1.805  11.906  19.275  0.00  0.00    +0.000 S 
BRANCH  27  29
ATOM     29  N   UNL     1      -1.115  10.069  17.398  0.00  0.00    +0.000 N 
ATOM     30  H   UNL     1      -0.333   9.975  16.761  0.00  0.00    +0.000 HD
BRANCH  29  32
ATOM     31  C   UNL     1      -2.707  10.589  15.626  0.00  0.00    +0.000 C 
ATOM     32  C   UNL     1      -2.446   9.792  16.889  0.00  0.00    +0.000 C 
ENDBRANCH  29  32
ENDBRANCH  27  29
ENDBRANCH  25  27
ENDBRANCH  21  25
ENDBRANCH   1  22
TORSDOF 6
ENDMDL
