MODEL 1
REMARK VINA RESULT:      -7.6      0.000      0.000
REMARK  Name = 
REMARK  8 active torsions:
REMARK  status: ('A' for Active; 'I' for Inactive)
REMARK    1  A    between atoms: C_1  and  O_2
REMARK    2  A    between atoms: O_2  and  C_3
REMARK    3  A    between atoms: C_3  and  C_4
REMARK    4  A    between atoms: C_4  and  N_5
REMARK    5  A    between atoms: C_6  and  C_8
REMARK    6  A    between atoms: C_8  and  N_9
REMARK    7  A    between atoms: N_9  and  C_23
REMARK    8  A    between atoms: C_10  and  C_12
REMARK                            x       y       z     vdW  Elec       q    Type
REMARK                         _______ _______ _______ _____ _____    ______ ____
ROOT
ATOM      1  N   UNL     1       5.698   4.766  16.636  0.00  0.00    +0.000 N 
ATOM      2  C   UNL     1       4.357   4.610  17.028  0.00  0.00    +0.000 C 
ATOM      3  O   UNL     1       3.668   3.684  16.594  0.00  0.00    +0.000 OA
ENDROOT
BRANCH   2   4
ATOM      4  C   UNL     1       3.697   5.580  17.959  0.00  0.00    +0.000 A 
ATOM      5  C   UNL     1       3.584   5.415  19.335  0.00  0.00    +0.000 A 
ATOM      6  C   UNL     1       2.871   6.343  20.102  0.00  0.00    +0.000 A 
ATOM      7  C   UNL     1       2.329   7.482  19.515  0.00  0.00    +0.000 A 
ATOM      8  N   UNL     1       1.658   8.423  20.271  0.00  0.00    +0.000 N 
ATOM      9  C   UNL     1       0.866   8.073  21.444  0.00  0.00    +0.000 C 
ATOM     10  C   UNL     1      -0.429   8.856  21.256  0.00  0.00    +0.000 C 
ATOM     11  C   UNL     1       0.031  10.116  20.544  0.00  0.00    +0.000 C 
ATOM     12  C   UNL     1       1.135   9.616  19.610  0.00  0.00    +0.000 C 
ATOM     13  N   UNL     1       2.505   7.693  18.190  0.00  0.00    +0.000 NA
ATOM     14  C   UNL     1       3.165   6.754  17.448  0.00  0.00    +0.000 A 
ENDBRANCH   2   4
BRANCH   1  15
ATOM     15  C   UNL     1       6.618   5.615  17.301  0.00  0.00    +0.000 A 
ATOM     16  C   UNL     1       7.273   5.196  18.465  0.00  0.00    +0.000 A 
ATOM     17  C   UNL     1       8.051   6.100  19.189  0.00  0.00    +0.000 A 
ATOM     18  C   UNL     1       8.171   7.419  18.754  0.00  0.00    +0.000 A 
ATOM     19  C   UNL     1       7.547   7.828  17.574  0.00  0.00    +0.000 A 
ATOM     20  C   UNL     1       6.790   6.921  16.832  0.00  0.00    +0.000 A 
ENDBRANCH   1  15
BRANCH   1  21
ATOM     21  C   UNL     1       6.324   3.729  15.797  0.00  0.00    +0.000 C 
BRANCH  21  23
ATOM     22  N   UNL     1       5.938   3.169  13.430  0.00  0.00    +0.000 N 
ATOM     23  C   UNL     1       6.469   4.078  14.315  0.00  0.00    +0.000 C 
ATOM     24  O   UNL     1       7.109   5.062  13.943  0.00  0.00    +0.000 OA
ATOM     25  H   UNL     1       5.259   2.487  13.773  0.00  0.00    +0.000 HD
BRANCH  22  26
ATOM     26  C   UNL     1       6.043   3.382  11.997  0.00  0.00    +0.000 C 
BRANCH  26  27
ATOM     27  C   UNL     1       4.953   2.664  11.206  0.00  0.00    +0.000 C 
BRANCH  27  29
ATOM     28  C   UNL     1       3.207   3.727  10.027  0.00  0.00    +0.000 C 
ATOM     29  O   UNL     1       3.744   3.419  11.305  0.00  0.00    +0.000 OA
ENDBRANCH  27  29
ENDBRANCH  26  27
ENDBRANCH  22  26
ENDBRANCH  21  23
ENDBRANCH   1  21
TORSDOF 7
ENDMDL
MODEL 2
REMARK VINA RESULT:      -7.5      0.879      1.448
REMARK  Name = 
REMARK  8 active torsions:
REMARK  status: ('A' for Active; 'I' for Inactive)
REMARK    1  A    between atoms: C_1  and  O_2
REMARK    2  A    between atoms: O_2  and  C_3
REMARK    3  A    between atoms: C_3  and  C_4
REMARK    4  A    between atoms: C_4  and  N_5
REMARK    5  A    between atoms: C_6  and  C_8
REMARK    6  A    between atoms: C_8  and  N_9
REMARK    7  A    between atoms: N_9  and  C_23
REMARK    8  A    between atoms: C_10  and  C_12
REMARK                            x       y       z     vdW  Elec       q    Type
REMARK                         _______ _______ _______ _____ _____    ______ ____
ROOT
ATOM      1  N   UNL     1       5.332   5.009  16.954  0.00  0.00    +0.000 N 
ATOM      2  C   UNL     1       3.991   4.874  17.353  0.00  0.00    +0.000 C 
ATOM      3  O   UNL     1       3.293   3.942  16.948  0.00  0.00    +0.000 OA
ENDROOT
BRANCH   2   4
ATOM      4  C   UNL     1       3.341   5.875  18.259  0.00  0.00    +0.000 A 
ATOM      5  C   UNL     1       3.133   5.701  19.623  0.00  0.00    +0.000 A 
ATOM      6  C   UNL     1       2.437   6.666  20.360  0.00  0.00    +0.000 A 
ATOM      7  C   UNL     1       2.009   7.846  19.760  0.00  0.00    +0.000 A 
ATOM      8  N   UNL     1       1.358   8.820  20.489  0.00  0.00    +0.000 N 
ATOM      9  C   UNL     1       0.473   8.511  21.607  0.00  0.00    +0.000 C 
ATOM     10  C   UNL     1      -0.752   9.381  21.353  0.00  0.00    +0.000 C 
ATOM     11  C   UNL     1      -0.166  10.616  20.691  0.00  0.00    +0.000 C 
ATOM     12  C   UNL     1       0.956  10.054  19.818  0.00  0.00    +0.000 C 
ATOM     13  N   UNL     1       2.280   8.060  18.452  0.00  0.00    +0.000 NA
ATOM     14  C   UNL     1       2.921   7.088  17.736  0.00  0.00    +0.000 A 
ENDBRANCH   2   4
BRANCH   1  15
ATOM     15  C   UNL     1       6.260   5.869  17.592  0.00  0.00    +0.000 A 
ATOM     16  C   UNL     1       6.530   7.144  17.080  0.00  0.00    +0.000 A 
ATOM     17  C   UNL     1       7.558   7.910  17.630  0.00  0.00    +0.000 A 
ATOM     18  C   UNL     1       8.315   7.404  18.686  0.00  0.00    +0.000 A 
ATOM     19  C   UNL     1       8.022   6.149  19.220  0.00  0.00    +0.000 A 
ATOM     20  C   UNL     1       6.977   5.389  18.691  0.00  0.00    +0.000 A 
ENDBRANCH   1  15
BRANCH   1  21
ATOM     21  C   UNL     1       5.947   3.943  16.142  0.00  0.00    +0.000 C 
BRANCH  21  23
ATOM     22  N   UNL     1       6.118   3.202  13.801  0.00  0.00    +0.000 N 
ATOM     23  C   UNL     1       6.147   4.274  14.662  0.00  0.00    +0.000 C 
ATOM     24  O   UNL     1       6.416   5.415  14.286  0.00  0.00    +0.000 OA
ATOM     25  H   UNL     1       5.704   2.324  14.120  0.00  0.00    +0.000 HD
BRANCH  22  26
ATOM     26  C   UNL     1       6.325   3.393  12.375  0.00  0.00    +0.000 C 
BRANCH  26  27
ATOM     27  C   UNL     1       5.225   2.766  11.523  0.00  0.00    +0.000 C 
BRANCH  27  29
ATOM     28  C   UNL     1       6.991   1.329  10.903  0.00  0.00    +0.000 C 
ATOM     29  O   UNL     1       5.605   1.427  11.200  0.00  0.00    +0.000 OA
ENDBRANCH  27  29
ENDBRANCH  26  27
ENDBRANCH  22  26
ENDBRANCH  21  23
ENDBRANCH   1  21
TORSDOF 7
ENDMDL
MODEL 3
REMARK VINA RESULT:      -7.3      3.087      5.418
REMARK  Name = 
REMARK  8 active torsions:
REMARK  status: ('A' for Active; 'I' for Inactive)
REMARK    1  A    between atoms: C_1  and  O_2
REMARK    2  A    between atoms: O_2  and  C_3
REMARK    3  A    between atoms: C_3  and  C_4
REMARK    4  A    between atoms: C_4  and  N_5
REMARK    5  A    between atoms: C_6  and  C_8
REMARK    6  A    between atoms: C_8  and  N_9
REMARK    7  A    between atoms: N_9  and  C_23
REMARK    8  A    between atoms: C_10  and  C_12
REMARK                            x       y       z     vdW  Elec       q    Type
REMARK                         _______ _______ _______ _____ _____    ______ ____
ROOT
ATOM      1  N   UNL     1       3.688   5.342  18.255  0.00  0.00    +0.000 N 
ATOM      2  C   UNL     1       3.512   6.662  17.806  0.00  0.00    +0.000 C 
ATOM      3  O   UNL     1       4.190   7.120  16.884  0.00  0.00    +0.000 OA
ENDROOT
BRANCH   2   4
ATOM      4  C   UNL     1       2.519   7.580  18.450  0.00  0.00    +0.000 A 
ATOM      5  C   UNL     1       1.784   8.555  17.786  0.00  0.00    +0.000 A 
ATOM      6  C   UNL     1       0.945   9.419  18.500  0.00  0.00    +0.000 A 
ATOM      7  C   UNL     1       0.775   9.268  19.873  0.00  0.00    +0.000 A 
ATOM      8  N   UNL     1      -0.080  10.089  20.579  0.00  0.00    +0.000 N 
ATOM      9  C   UNL     1      -0.304  11.487  20.226  0.00  0.00    +0.000 C 
ATOM     10  C   UNL     1      -0.209  12.219  21.559  0.00  0.00    +0.000 C 
ATOM     11  C   UNL     1      -0.760  11.207  22.548  0.00  0.00    +0.000 C 
ATOM     12  C   UNL     1      -0.246   9.869  22.014  0.00  0.00    +0.000 C 
ATOM     13  N   UNL     1       1.423   8.269  20.515  0.00  0.00    +0.000 NA
ATOM     14  C   UNL     1       2.273   7.464  19.810  0.00  0.00    +0.000 A 
ENDBRANCH   2   4
BRANCH   1  15
ATOM     15  C   UNL     1       2.767   4.667  19.094  0.00  0.00    +0.000 A 
ATOM     16  C   UNL     1       3.027   4.497  20.460  0.00  0.00    +0.000 A 
ATOM     17  C   UNL     1       2.187   3.697  21.233  0.00  0.00    +0.000 A 
ATOM     18  C   UNL     1       1.092   3.066  20.645  0.00  0.00    +0.000 A 
ATOM     19  C   UNL     1       0.811   3.264  19.293  0.00  0.00    +0.000 A 
ATOM     20  C   UNL     1       1.633   4.085  18.520  0.00  0.00    +0.000 A 
ENDBRANCH   1  15
BRANCH   1  21
ATOM     21  C   UNL     1       4.607   4.453  17.520  0.00  0.00    +0.000 C 
BRANCH  21  23
ATOM     22  N   UNL     1       6.454   5.830  18.390  0.00  0.00    +0.000 N 
ATOM     23  C   UNL     1       6.055   4.939  17.422  0.00  0.00    +0.000 C 
ATOM     24  O   UNL     1       6.777   4.625  16.476  0.00  0.00    +0.000 OA
ATOM     25  H   UNL     1       5.903   5.906  19.247  0.00  0.00    +0.000 HD
BRANCH  22  26
ATOM     26  C   UNL     1       7.799   6.381  18.379  0.00  0.00    +0.000 C 
BRANCH  26  27
ATOM     27  C   UNL     1       7.856   7.804  17.830  0.00  0.00    +0.000 C 
BRANCH  27  29
ATOM     28  C   UNL     1       8.769   9.938  18.257  0.00  0.00    +0.000 C 
ATOM     29  O   UNL     1       8.576   8.621  18.754  0.00  0.00    +0.000 OA
ENDBRANCH  27  29
ENDBRANCH  26  27
ENDBRANCH  22  26
ENDBRANCH  21  23
ENDBRANCH   1  21
TORSDOF 7
ENDMDL
MODEL 4
REMARK VINA RESULT:      -7.2      0.811      1.621
REMARK  Name = 
REMARK  8 active torsions:
REMARK  status: ('A' for Active; 'I' for Inactive)
REMARK    1  A    between atoms: C_1  and  O_2
REMARK    2  A    between atoms: O_2  and  C_3
REMARK    3  A    between atoms: C_3  and  C_4
REMARK    4  A    between atoms: C_4  and  N_5
REMARK    5  A    between atoms: C_6  and  C_8
REMARK    6  A    between atoms: C_8  and  N_9
REMARK    7  A    between atoms: N_9  and  C_23
REMARK    8  A    between atoms: C_10  and  C_12
REMARK                            x       y       z     vdW  Elec       q    Type
REMARK                         _______ _______ _______ _____ _____    ______ ____
ROOT
ATOM      1  N   UNL     1       5.711   5.112  16.777  0.00  0.00    +0.000 N 
ATOM      2  C   UNL     1       4.353   4.859  17.039  0.00  0.00    +0.000 C 
ATOM      3  O   UNL     1       3.802   3.836  16.626  0.00  0.00    +0.000 OA
ENDROOT
BRANCH   2   4
ATOM      4  C   UNL     1       3.510   5.835  17.800  0.00  0.00    +0.000 A 
ATOM      5  C   UNL     1       3.009   7.027  17.288  0.00  0.00    +0.000 A 
ATOM      6  C   UNL     1       2.302   7.910  18.112  0.00  0.00    +0.000 A 
ATOM      7  C   UNL     1       2.025   7.577  19.434  0.00  0.00    +0.000 A 
ATOM      8  N   UNL     1       1.294   8.424  20.243  0.00  0.00    +0.000 N 
ATOM      9  C   UNL     1       1.354   9.877  20.124  0.00  0.00    +0.000 C 
ATOM     10  C   UNL     1       1.502  10.355  21.563  0.00  0.00    +0.000 C 
ATOM     11  C   UNL     1       0.715   9.323  22.352  0.00  0.00    +0.000 C 
ATOM     12  C   UNL     1       1.004   8.014  21.615  0.00  0.00    +0.000 C 
ATOM     13  N   UNL     1       2.437   6.383  19.918  0.00  0.00    +0.000 NA
ATOM     14  C   UNL     1       3.164   5.553  19.113  0.00  0.00    +0.000 A 
ENDBRANCH   2   4
BRANCH   1  15
ATOM     15  C   UNL     1       6.471   6.100  17.451  0.00  0.00    +0.000 A 
ATOM     16  C   UNL     1       6.593   7.395  16.930  0.00  0.00    +0.000 A 
ATOM     17  C   UNL     1       7.469   8.302  17.523  0.00  0.00    +0.000 A 
ATOM     18  C   UNL     1       8.225   7.919  18.631  0.00  0.00    +0.000 A 
ATOM     19  C   UNL     1       8.078   6.641  19.172  0.00  0.00    +0.000 A 
ATOM     20  C   UNL     1       7.182   5.737  18.598  0.00  0.00    +0.000 A 
ENDBRANCH   1  15
BRANCH   1  21
ATOM     21  C   UNL     1       6.516   4.073  16.110  0.00  0.00    +0.000 C 
BRANCH  21  23
ATOM     22  N   UNL     1       6.285   3.394  13.755  0.00  0.00    +0.000 N 
ATOM     23  C   UNL     1       6.811   4.316  14.629  0.00  0.00    +0.000 C 
ATOM     24  O   UNL     1       7.556   5.224  14.260  0.00  0.00    +0.000 OA
ATOM     25  H   UNL     1       5.527   2.788  14.075  0.00  0.00    +0.000 HD
BRANCH  22  26
ATOM     26  C   UNL     1       6.525   3.508  12.326  0.00  0.00    +0.000 C 
BRANCH  26  27
ATOM     27  C   UNL     1       5.480   2.779  11.486  0.00  0.00    +0.000 C 
BRANCH  27  29
ATOM     28  C   UNL     1       3.349   3.231  10.578  0.00  0.00    +0.000 C 
ATOM     29  O   UNL     1       4.211   3.402  11.694  0.00  0.00    +0.000 OA
ENDBRANCH  27  29
ENDBRANCH  26  27
ENDBRANCH  22  26
ENDBRANCH  21  23
ENDBRANCH   1  21
TORSDOF 7
ENDMDL
MODEL 5
REMARK VINA RESULT:      -7.2      3.019      5.237
REMARK  Name = 
REMARK  8 active torsions:
REMARK  status: ('A' for Active; 'I' for Inactive)
REMARK    1  A    between atoms: C_1  and  O_2
REMARK    2  A    between atoms: O_2  and  C_3
REMARK    3  A    between atoms: C_3  and  C_4
REMARK    4  A    between atoms: C_4  and  N_5
REMARK    5  A    between atoms: C_6  and  C_8
REMARK    6  A    between atoms: C_8  and  N_9
REMARK    7  A    between atoms: N_9  and  C_23
REMARK    8  A    between atoms: C_10  and  C_12
REMARK                            x       y       z     vdW  Elec       q    Type
REMARK                         _______ _______ _______ _____ _____    ______ ____
ROOT
ATOM      1  N   UNL     1       3.853   5.028  17.959  0.00  0.00    +0.000 N 
ATOM      2  C   UNL     1       3.749   6.400  17.669  0.00  0.00    +0.000 C 
ATOM      3  O   UNL     1       4.505   6.942  16.860  0.00  0.00    +0.000 OA
ENDROOT
BRANCH   2   4
ATOM      4  C   UNL     1       2.740   7.268  18.355  0.00  0.00    +0.000 A 
ATOM      5  C   UNL     1       1.989   8.262  17.736  0.00  0.00    +0.000 A 
ATOM      6  C   UNL     1       1.135   9.076  18.490  0.00  0.00    +0.000 A 
ATOM      7  C   UNL     1       0.966   8.856  19.853  0.00  0.00    +0.000 A 
ATOM      8  N   UNL     1       0.096   9.628  20.596  0.00  0.00    +0.000 N 
ATOM      9  C   UNL     1      -0.151  11.037  20.310  0.00  0.00    +0.000 C 
ATOM     10  C   UNL     1      -0.070  11.706  21.677  0.00  0.00    +0.000 C 
ATOM     11  C   UNL     1      -0.605  10.638  22.615  0.00  0.00    +0.000 C 
ATOM     12  C   UNL     1      -0.068   9.337  22.018  0.00  0.00    +0.000 C 
ATOM     13  N   UNL     1       1.630   7.839  20.448  0.00  0.00    +0.000 NA
ATOM     14  C   UNL     1       2.494   7.083  19.706  0.00  0.00    +0.000 A 
ENDBRANCH   2   4
BRANCH   1  15
ATOM     15  C   UNL     1       2.854   4.291  18.643  0.00  0.00    +0.000 A 
ATOM     16  C   UNL     1       1.638   3.977  18.022  0.00  0.00    +0.000 A 
ATOM     17  C   UNL     1       0.612   3.391  18.762  0.00  0.00    +0.000 A 
ATOM     18  C   UNL     1       0.797   3.121  20.117  0.00  0.00    +0.000 A 
ATOM     19  C   UNL     1       2.021   3.400  20.727  0.00  0.00    +0.000 A 
ATOM     20  C   UNL     1       3.060   3.962  19.986  0.00  0.00    +0.000 A 
ENDBRANCH   1  15
BRANCH   1  21
ATOM     21  C   UNL     1       4.796   4.203  17.183  0.00  0.00    +0.000 C 
BRANCH  21  23
ATOM     22  N   UNL     1       6.555   4.935  18.743  0.00  0.00    +0.000 N 
ATOM     23  C   UNL     1       6.277   4.423  17.497  0.00  0.00    +0.000 C 
ATOM     24  O   UNL     1       7.151   4.245  16.648  0.00  0.00    +0.000 OA
ATOM     25  H   UNL     1       5.838   4.881  19.469  0.00  0.00    +0.000 HD
BRANCH  22  26
ATOM     26  C   UNL     1       7.926   5.212  19.140  0.00  0.00    +0.000 C 
BRANCH  26  27
ATOM     27  C   UNL     1       8.265   6.700  19.115  0.00  0.00    +0.000 C 
BRANCH  27  29
ATOM     28  C   UNL     1       8.098   8.623  17.757  0.00  0.00    +0.000 C 
ATOM     29  O   UNL     1       7.666   7.285  17.957  0.00  0.00    +0.000 OA
ENDBRANCH  27  29
ENDBRANCH  26  27
ENDBRANCH  22  26
ENDBRANCH  21  23
ENDBRANCH   1  21
TORSDOF 7
ENDMDL
MODEL 6
REMARK VINA RESULT:      -7.1      1.071      1.248
REMARK  Name = 
REMARK  8 active torsions:
REMARK  status: ('A' for Active; 'I' for Inactive)
REMARK    1  A    between atoms: C_1  and  O_2
REMARK    2  A    between atoms: O_2  and  C_3
REMARK    3  A    between atoms: C_3  and  C_4
REMARK    4  A    between atoms: C_4  and  N_5
REMARK    5  A    between atoms: C_6  and  C_8
REMARK    6  A    between atoms: C_8  and  N_9
REMARK    7  A    between atoms: N_9  and  C_23
REMARK    8  A    between atoms: C_10  and  C_12
REMARK                            x       y       z     vdW  Elec       q    Type
REMARK                         _______ _______ _______ _____ _____    ______ ____
ROOT
ATOM      1  N   UNL     1       5.522   4.698  16.634  0.00  0.00    +0.000 N 
ATOM      2  C   UNL     1       4.186   4.567  17.053  0.00  0.00    +0.000 C 
ATOM      3  O   UNL     1       3.463   3.673  16.611  0.00  0.00    +0.000 OA
ENDROOT
BRANCH   2   4
ATOM      4  C   UNL     1       3.575   5.528  18.025  0.00  0.00    +0.000 A 
ATOM      5  C   UNL     1       3.502   5.335  19.401  0.00  0.00    +0.000 A 
ATOM      6  C   UNL     1       2.831   6.259  20.210  0.00  0.00    +0.000 A 
ATOM      7  C   UNL     1       2.293   7.421  19.665  0.00  0.00    +0.000 A 
ATOM      8  N   UNL     1       1.665   8.356  20.462  0.00  0.00    +0.000 N 
ATOM      9  C   UNL     1       0.903   7.996  21.652  0.00  0.00    +0.000 C 
ATOM     10  C   UNL     1      -0.381   8.806  21.522  0.00  0.00    +0.000 C 
ATOM     11  C   UNL     1       0.081  10.073  20.823  0.00  0.00    +0.000 C 
ATOM     12  C   UNL     1       1.144   9.574  19.844  0.00  0.00    +0.000 C 
ATOM     13  N   UNL     1       2.431   7.657  18.340  0.00  0.00    +0.000 NA
ATOM     14  C   UNL     1       3.050   6.723  17.558  0.00  0.00    +0.000 A 
ENDBRANCH   2   4
BRANCH   1  15
ATOM     15  C   UNL     1       6.479   5.503  17.300  0.00  0.00    +0.000 A 
ATOM     16  C   UNL     1       7.117   5.052  18.463  0.00  0.00    +0.000 A 
ATOM     17  C   UNL     1       7.935   5.918  19.187  0.00  0.00    +0.000 A 
ATOM     18  C   UNL     1       8.114   7.232  18.755  0.00  0.00    +0.000 A 
ATOM     19  C   UNL     1       7.508   7.671  17.577  0.00  0.00    +0.000 A 
ATOM     20  C   UNL     1       6.710   6.801  16.834  0.00  0.00    +0.000 A 
ENDBRANCH   1  15
BRANCH   1  21
ATOM     21  C   UNL     1       6.099   3.668  15.753  0.00  0.00    +0.000 C 
BRANCH  21  23
ATOM     22  N   UNL     1       6.339   3.030  13.387  0.00  0.00    +0.000 N 
ATOM     23  C   UNL     1       6.257   4.068  14.285  0.00  0.00    +0.000 C 
ATOM     24  O   UNL     1       6.401   5.244  13.948  0.00  0.00    +0.000 OA
ATOM     25  H   UNL     1       6.022   2.102  13.676  0.00  0.00    +0.000 HD
BRANCH  22  26
ATOM     26  C   UNL     1       6.518   3.291  11.968  0.00  0.00    +0.000 C 
BRANCH  26  27
ATOM     27  C   UNL     1       7.316   2.200  11.258  0.00  0.00    +0.000 C 
BRANCH  27  29
ATOM     28  C   UNL     1       6.245   0.098  11.314  0.00  0.00    +0.000 C 
ATOM     29  O   UNL     1       6.401   1.319  10.604  0.00  0.00    +0.000 OA
ENDBRANCH  27  29
ENDBRANCH  26  27
ENDBRANCH  22  26
ENDBRANCH  21  23
ENDBRANCH   1  21
TORSDOF 7
ENDMDL
MODEL 7
REMARK VINA RESULT:      -6.9      2.210      4.244
REMARK  Name = 
REMARK  8 active torsions:
REMARK  status: ('A' for Active; 'I' for Inactive)
REMARK    1  A    between atoms: C_1  and  O_2
REMARK    2  A    between atoms: O_2  and  C_3
REMARK    3  A    between atoms: C_3  and  C_4
REMARK    4  A    between atoms: C_4  and  N_5
REMARK    5  A    between atoms: C_6  and  C_8
REMARK    6  A    between atoms: C_8  and  N_9
REMARK    7  A    between atoms: N_9  and  C_23
REMARK    8  A    between atoms: C_10  and  C_12
REMARK                            x       y       z     vdW  Elec       q    Type
REMARK                         _______ _______ _______ _____ _____    ______ ____
ROOT
ATOM      1  N   UNL     1       3.909   5.260  18.772  0.00  0.00    +0.000 N 
ATOM      2  C   UNL     1       3.893   6.560  18.237  0.00  0.00    +0.000 C 
ATOM      3  O   UNL     1       4.802   6.962  17.508  0.00  0.00    +0.000 OA
ENDROOT
BRANCH   2   4
ATOM      4  C   UNL     1       2.791   7.522  18.557  0.00  0.00    +0.000 A 
ATOM      5  C   UNL     1       2.134   8.322  17.629  0.00  0.00    +0.000 A 
ATOM      6  C   UNL     1       1.176   9.252  18.049  0.00  0.00    +0.000 A 
ATOM      7  C   UNL     1       0.812   9.339  19.389  0.00  0.00    +0.000 A 
ATOM      8  N   UNL     1      -0.161  10.226  19.806  0.00  0.00    +0.000 N 
ATOM      9  C   UNL     1      -0.370  11.523  19.173  0.00  0.00    +0.000 C 
ATOM     10  C   UNL     1      -0.491  12.486  20.349  0.00  0.00    +0.000 C 
ATOM     11  C   UNL     1      -1.152  11.638  21.422  0.00  0.00    +0.000 C 
ATOM     12  C   UNL     1      -0.528  10.257  21.220  0.00  0.00    +0.000 C 
ATOM     13  N   UNL     1       1.387   8.508  20.288  0.00  0.00    +0.000 NA
ATOM     14  C   UNL     1       2.352   7.637  19.868  0.00  0.00    +0.000 A 
ENDBRANCH   2   4
BRANCH   1  15
ATOM     15  C   UNL     1       2.782   4.640  19.367  0.00  0.00    +0.000 A 
ATOM     16  C   UNL     1       2.725   4.424  20.750  0.00  0.00    +0.000 A 
ATOM     17  C   UNL     1       1.683   3.674  21.293  0.00  0.00    +0.000 A 
ATOM     18  C   UNL     1       0.701   3.140  20.459  0.00  0.00    +0.000 A 
ATOM     19  C   UNL     1       0.737   3.386  19.086  0.00  0.00    +0.000 A 
ATOM     20  C   UNL     1       1.764   4.158  18.540  0.00  0.00    +0.000 A 
ENDBRANCH   1  15
BRANCH   1  21
ATOM     21  C   UNL     1       4.965   4.324  18.345  0.00  0.00    +0.000 C 
BRANCH  21  23
ATOM     22  N   UNL     1       6.246   3.927  16.280  0.00  0.00    +0.000 N 
ATOM     23  C   UNL     1       4.996   4.004  16.849  0.00  0.00    +0.000 C 
ATOM     24  O   UNL     1       3.963   3.922  16.184  0.00  0.00    +0.000 OA
ATOM     25  H   UNL     1       7.058   3.806  16.888  0.00  0.00    +0.000 HD
BRANCH  22  26
ATOM     26  C   UNL     1       6.397   3.658  14.860  0.00  0.00    +0.000 C 
BRANCH  26  27
ATOM     27  C   UNL     1       6.940   4.853  14.081  0.00  0.00    +0.000 C 
BRANCH  27  29
ATOM     28  C   UNL     1       6.212   3.422  12.352  0.00  0.00    +0.000 C 
ATOM     29  O   UNL     1       7.095   4.474  12.712  0.00  0.00    +0.000 OA
ENDBRANCH  27  29
ENDBRANCH  26  27
ENDBRANCH  22  26
ENDBRANCH  21  23
ENDBRANCH   1  21
TORSDOF 7
ENDMDL
MODEL 8
REMARK VINA RESULT:      -6.9      3.479      6.848
REMARK  Name = 
REMARK  8 active torsions:
REMARK  status: ('A' for Active; 'I' for Inactive)
REMARK    1  A    between atoms: C_1  and  O_2
REMARK    2  A    between atoms: O_2  and  C_3
REMARK    3  A    between atoms: C_3  and  C_4
REMARK    4  A    between atoms: C_4  and  N_5
REMARK    5  A    between atoms: C_6  and  C_8
REMARK    6  A    between atoms: C_8  and  N_9
REMARK    7  A    between atoms: N_9  and  C_23
REMARK    8  A    between atoms: C_10  and  C_12
REMARK                            x       y       z     vdW  Elec       q    Type
REMARK                         _______ _______ _______ _____ _____    ______ ____
ROOT
ATOM      1  N   UNL     1       5.550   5.038  17.796  0.00  0.00    +0.000 N 
ATOM      2  C   UNL     1       6.865   5.414  17.474  0.00  0.00    +0.000 C 
ATOM      3  O   UNL     1       7.644   4.621  16.940  0.00  0.00    +0.000 OA
ENDROOT
BRANCH   2   4
ATOM      4  C   UNL     1       7.388   6.780  17.796  0.00  0.00    +0.000 A 
ATOM      5  C   UNL     1       7.103   7.935  17.076  0.00  0.00    +0.000 A 
ATOM      6  C   UNL     1       7.714   9.148  17.413  0.00  0.00    +0.000 A 
ATOM      7  C   UNL     1       8.556   9.235  18.516  0.00  0.00    +0.000 A 
ATOM      8  N   UNL     1       9.132  10.436  18.879  0.00  0.00    +0.000 N 
ATOM      9  C   UNL     1       9.520  11.451  17.907  0.00  0.00    +0.000 C 
ATOM     10  C   UNL     1      10.919  11.864  18.349  0.00  0.00    +0.000 C 
ATOM     11  C   UNL     1      10.860  11.718  19.860  0.00  0.00    +0.000 C 
ATOM     12  C   UNL     1       9.985  10.480  20.065  0.00  0.00    +0.000 C 
ATOM     13  N   UNL     1       8.776   8.134  19.272  0.00  0.00    +0.000 NA
ATOM     14  C   UNL     1       8.206   6.949  18.903  0.00  0.00    +0.000 A 
ENDBRANCH   2   4
BRANCH   1  15
ATOM     15  C   UNL     1       4.529   5.960  18.137  0.00  0.00    +0.000 A 
ATOM     16  C   UNL     1       3.880   5.892  19.376  0.00  0.00    +0.000 A 
ATOM     17  C   UNL     1       2.776   6.706  19.628  0.00  0.00    +0.000 A 
ATOM     18  C   UNL     1       2.319   7.582  18.645  0.00  0.00    +0.000 A 
ATOM     19  C   UNL     1       2.987   7.676  17.423  0.00  0.00    +0.000 A 
ATOM     20  C   UNL     1       4.108   6.884  17.176  0.00  0.00    +0.000 A 
ENDBRANCH   1  15
BRANCH   1  21
ATOM     21  C   UNL     1       5.059   3.716  17.368  0.00  0.00    +0.000 C 
BRANCH  21  23
ATOM     22  N   UNL     1       2.942   2.677  18.076  0.00  0.00    +0.000 N 
ATOM     23  C   UNL     1       4.248   2.943  18.411  0.00  0.00    +0.000 C 
ATOM     24  O   UNL     1       4.714   2.670  19.517  0.00  0.00    +0.000 OA
ATOM     25  H   UNL     1       2.661   2.742  17.095  0.00  0.00    +0.000 HD
BRANCH  22  26
ATOM     26  C   UNL     1       2.069   1.974  19.002  0.00  0.00    +0.000 C 
BRANCH  26  27
ATOM     27  C   UNL     1       0.904   2.832  19.491  0.00  0.00    +0.000 C 
BRANCH  27  29
ATOM     28  C   UNL     1       1.751   2.791  21.693  0.00  0.00    +0.000 C 
ATOM     29  O   UNL     1       1.347   3.609  20.605  0.00  0.00    +0.000 OA
ENDBRANCH  27  29
ENDBRANCH  26  27
ENDBRANCH  22  26
ENDBRANCH  21  23
ENDBRANCH   1  21
TORSDOF 7
ENDMDL
MODEL 9
REMARK VINA RESULT:      -6.8      3.005      5.106
REMARK  Name = 
REMARK  8 active torsions:
REMARK  status: ('A' for Active; 'I' for Inactive)
REMARK    1  A    between atoms: C_1  and  O_2
REMARK    2  A    between atoms: O_2  and  C_3
REMARK    3  A    between atoms: C_3  and  C_4
REMARK    4  A    between atoms: C_4  and  N_5
REMARK    5  A    between atoms: C_6  and  C_8
REMARK    6  A    between atoms: C_8  and  N_9
REMARK    7  A    between atoms: N_9  and  C_23
REMARK    8  A    between atoms: C_10  and  C_12
REMARK                            x       y       z     vdW  Elec       q    Type
REMARK                         _______ _______ _______ _____ _____    ______ ____
ROOT
ATOM      1  N   UNL     1       3.630   5.063  18.165  0.00  0.00    +0.000 N 
ATOM      2  C   UNL     1       3.636   6.383  17.680  0.00  0.00    +0.000 C 
ATOM      3  O   UNL     1       4.346   6.711  16.728  0.00  0.00    +0.000 OA
ENDROOT
BRANCH   2   4
ATOM      4  C   UNL     1       2.807   7.453  18.321  0.00  0.00    +0.000 A 
ATOM      5  C   UNL     1       2.281   7.394  19.607  0.00  0.00    +0.000 A 
ATOM      6  C   UNL     1       1.447   8.414  20.078  0.00  0.00    +0.000 A 
ATOM      7  C   UNL     1       1.191   9.538  19.298  0.00  0.00    +0.000 A 
ATOM      8  N   UNL     1       0.401  10.567  19.770  0.00  0.00    +0.000 N 
ATOM      9  C   UNL     1      -0.726  10.348  20.670  0.00  0.00    +0.000 C 
ATOM     10  C   UNL     1      -1.844  11.189  20.064  0.00  0.00    +0.000 C 
ATOM     11  C   UNL     1      -1.100  12.366  19.458  0.00  0.00    +0.000 C 
ATOM     12  C   UNL     1       0.188  11.738  18.923  0.00  0.00    +0.000 C 
ATOM     13  N   UNL     1       1.764   9.642  18.077  0.00  0.00    +0.000 NA
ATOM     14  C   UNL     1       2.540   8.617  17.616  0.00  0.00    +0.000 A 
ENDBRANCH   2   4
BRANCH   1  15
ATOM     15  C   UNL     1       2.646   4.554  19.048  0.00  0.00    +0.000 A 
ATOM     16  C   UNL     1       2.859   4.537  20.432  0.00  0.00    +0.000 A 
ATOM     17  C   UNL     1       1.948   3.890  21.267  0.00  0.00    +0.000 A 
ATOM     18  C   UNL     1       0.830   3.260  20.723  0.00  0.00    +0.000 A 
ATOM     19  C   UNL     1       0.598   3.307  19.347  0.00  0.00    +0.000 A 
ATOM     20  C   UNL     1       1.492   3.976  18.510  0.00  0.00    +0.000 A 
ENDBRANCH   1  15
BRANCH   1  21
ATOM     21  C   UNL     1       4.388   4.030  17.436  0.00  0.00    +0.000 C 
BRANCH  21  23
ATOM     22  N   UNL     1       6.480   4.825  18.462  0.00  0.00    +0.000 N 
ATOM     23  C   UNL     1       5.899   4.256  17.353  0.00  0.00    +0.000 C 
ATOM     24  O   UNL     1       6.529   4.033  16.320  0.00  0.00    +0.000 OA
ATOM     25  H   UNL     1       5.971   4.809  19.348  0.00  0.00    +0.000 HD
BRANCH  22  26
ATOM     26  C   UNL     1       7.905   5.112  18.486  0.00  0.00    +0.000 C 
BRANCH  26  27
ATOM     27  C   UNL     1       8.212   6.578  18.777  0.00  0.00    +0.000 C 
BRANCH  27  29
ATOM     28  C   UNL     1       8.068   8.744  17.851  0.00  0.00    +0.000 C 
ATOM     29  O   UNL     1       7.771   7.366  17.671  0.00  0.00    +0.000 OA
ENDBRANCH  27  29
ENDBRANCH  26  27
ENDBRANCH  22  26
ENDBRANCH  21  23
ENDBRANCH   1  21
TORSDOF 7
ENDMDL
