MODEL 1
REMARK VINA RESULT:      -7.9      0.000      0.000
REMARK  Name = 
REMARK  6 active torsions:
REMARK  status: ('A' for Active; 'I' for Inactive)
REMARK    1  A    between atoms: C_1  and  C_2
REMARK    2  A    between atoms: C_2  and  C_3
REMARK    3  A    between atoms: C_2  and  C_4
REMARK    4  A    between atoms: C_7  and  S_8
REMARK    5  A    between atoms: S_8  and  N_11
REMARK    6  A    between atoms: N_22  and  C_23
REMARK                            x       y       z     vdW  Elec       q    Type
REMARK                         _______ _______ _______ _____ _____    ______ ____
ROOT
ATOM      1  N   UNL     1       1.284  11.963  20.002  0.00  0.00    +0.000 NA
ATOM      2  C   UNL     1       0.640  12.550  18.812  0.00  0.00    +0.000 C 
ATOM      3  C   UNL     1       1.651  13.439  18.069  0.00  0.00    +0.000 C 
ATOM      4  C   UNL     1       2.382  14.470  18.968  0.00  0.00    +0.000 C 
ATOM      5  C   UNL     1       2.875  13.765  20.257  0.00  0.00    +0.000 C 
ATOM      6  C   UNL     1       1.769  12.985  20.949  0.00  0.00    +0.000 C 
ATOM      7  N   UNL     1       1.457  15.548  19.417  0.00  0.00    +0.000 NA
ATOM      8  C   UNL     1       1.177  16.479  18.323  0.00  0.00    +0.000 C 
ATOM      9  C   UNL     1       2.449  17.158  17.830  0.00  0.00    +0.000 C 
ATOM     10  N   UNL     1       3.614  16.282  17.677  0.00  0.00    +0.000 NA
ATOM     11  C   UNL     1       3.639  15.099  18.194  0.00  0.00    +0.000 C 
ATOM     12  N   UNL     1       4.769  14.301  18.094  0.00  0.00    +0.000 N 
ATOM     13  H   UNL     1       1.942  16.087  20.138  0.00  0.00    +0.000 HD
ATOM     14  H   UNL     1       4.664  13.330  18.372  0.00  0.00    +0.000 HD
ENDROOT
BRANCH  12  15
ATOM     15  C   UNL     1       6.150  14.613  17.712  0.00  0.00    +0.000 C 
ATOM     16  C   UNL     1       6.737  15.789  18.503  0.00  0.00    +0.000 C 
ATOM     17  C   UNL     1       7.165  15.528  19.939  0.00  0.00    +0.000 C 
ATOM     18  C   UNL     1       8.481  14.777  20.131  0.00  0.00    +0.000 C 
ATOM     19  C   UNL     1       8.637  13.444  19.413  0.00  0.00    +0.000 C 
ATOM     20  C   UNL     1       8.502  13.521  17.897  0.00  0.00    +0.000 C 
ATOM     21  C   UNL     1       7.050  13.404  17.432  0.00  0.00    +0.000 C 
ENDBRANCH  12  15
BRANCH   1  22
ATOM     22  S   UNL     1       0.633  10.544  20.668  0.00  0.00    +0.000 S 
ATOM     23  O   UNL     1      -0.790  10.569  20.399  0.00  0.00    +0.000 OA
ATOM     24  O   UNL     1       1.128  10.395  22.017  0.00  0.00    +0.000 OA
BRANCH  22  28
ATOM     25  C   UNL     1       2.718   7.214  18.297  0.00  0.00    +0.000 A 
ATOM     26  C   UNL     1       2.341   8.406  17.655  0.00  0.00    +0.000 A 
ATOM     27  C   UNL     1       1.649   9.413  18.345  0.00  0.00    +0.000 A 
ATOM     28  C   UNL     1       1.320   9.221  19.689  0.00  0.00    +0.000 A 
ATOM     29  C   UNL     1       1.671   8.035  20.337  0.00  0.00    +0.000 A 
ATOM     30  C   UNL     1       2.353   7.039  19.642  0.00  0.00    +0.000 A 
BRANCH  25  32
ATOM     31  C   UNL     1       4.982   6.631  17.406  0.00  0.00    +0.000 C 
ATOM     32  C   UNL     1       3.535   6.156  17.584  0.00  0.00    +0.000 C 
ATOM     33  C   UNL     1       3.495   4.820  18.333  0.00  0.00    +0.000 C 
ENDBRANCH  25  32
ENDBRANCH  22  28
ENDBRANCH   1  22
TORSDOF 4
ENDMDL
MODEL 2
REMARK VINA RESULT:      -7.6      2.119      2.752
REMARK  Name = 
REMARK  6 active torsions:
REMARK  status: ('A' for Active; 'I' for Inactive)
REMARK    1  A    between atoms: C_1  and  C_2
REMARK    2  A    between atoms: C_2  and  C_3
REMARK    3  A    between atoms: C_2  and  C_4
REMARK    4  A    between atoms: C_7  and  S_8
REMARK    5  A    between atoms: S_8  and  N_11
REMARK    6  A    between atoms: N_22  and  C_23
REMARK                            x       y       z     vdW  Elec       q    Type
REMARK                         _______ _______ _______ _____ _____    ______ ____
ROOT
ATOM      1  N   UNL     1       1.015  12.109  19.863  0.00  0.00    +0.000 NA
ATOM      2  C   UNL     1       1.570  12.739  18.650  0.00  0.00    +0.000 C 
ATOM      3  C   UNL     1       2.834  13.535  19.017  0.00  0.00    +0.000 C 
ATOM      4  C   UNL     1       2.653  14.509  20.211  0.00  0.00    +0.000 C 
ATOM      5  C   UNL     1       1.920  13.776  21.363  0.00  0.00    +0.000 C 
ATOM      6  C   UNL     1       0.644  13.096  20.895  0.00  0.00    +0.000 C 
ATOM      7  N   UNL     1       1.787  15.663  19.841  0.00  0.00    +0.000 NA
ATOM      8  C   UNL     1       2.516  16.605  18.991  0.00  0.00    +0.000 C 
ATOM      9  C   UNL     1       3.736  17.173  19.706  0.00  0.00    +0.000 C 
ATOM     10  N   UNL     1       4.534  16.203  20.460  0.00  0.00    +0.000 NA
ATOM     11  C   UNL     1       4.079  15.026  20.735  0.00  0.00    +0.000 C 
ATOM     12  N   UNL     1       4.819  14.136  21.500  0.00  0.00    +0.000 N 
ATOM     13  H   UNL     1       1.563  16.166  20.703  0.00  0.00    +0.000 HD
ATOM     14  H   UNL     1       4.480  13.180  21.536  0.00  0.00    +0.000 HD
ENDROOT
BRANCH  12  15
ATOM     15  C   UNL     1       6.000  14.330  22.348  0.00  0.00    +0.000 C 
ATOM     16  C   UNL     1       5.925  13.548  23.665  0.00  0.00    +0.000 C 
ATOM     17  C   UNL     1       6.178  12.050  23.610  0.00  0.00    +0.000 C 
ATOM     18  C   UNL     1       7.633  11.610  23.463  0.00  0.00    +0.000 C 
ATOM     19  C   UNL     1       8.429  12.199  22.307  0.00  0.00    +0.000 C 
ATOM     20  C   UNL     1       8.526  13.720  22.313  0.00  0.00    +0.000 C 
ATOM     21  C   UNL     1       7.343  14.386  21.611  0.00  0.00    +0.000 C 
ENDBRANCH  12  15
BRANCH   1  22
ATOM     22  S   UNL     1       0.008  10.754  19.694  0.00  0.00    +0.000 S 
ATOM     23  O   UNL     1      -0.777  10.962  18.494  0.00  0.00    +0.000 OA
ATOM     24  O   UNL     1      -0.636  10.493  20.961  0.00  0.00    +0.000 OA
BRANCH  22  28
ATOM     25  C   UNL     1       2.583   7.096  18.671  0.00  0.00    +0.000 A 
ATOM     26  C   UNL     1       2.158   7.313  19.994  0.00  0.00    +0.000 A 
ATOM     27  C   UNL     1       1.422   8.455  20.342  0.00  0.00    +0.000 A 
ATOM     28  C   UNL     1       1.115   9.398  19.358  0.00  0.00    +0.000 A 
ATOM     29  C   UNL     1       1.544   9.207  18.043  0.00  0.00    +0.000 A 
ATOM     30  C   UNL     1       2.279   8.073  17.709  0.00  0.00    +0.000 A 
BRANCH  25  32
ATOM     31  C   UNL     1       4.217   5.352  19.411  0.00  0.00    +0.000 C 
ATOM     32  C   UNL     1       3.308   5.828  18.271  0.00  0.00    +0.000 C 
ATOM     33  C   UNL     1       2.324   4.725  17.869  0.00  0.00    +0.000 C 
ENDBRANCH  25  32
ENDBRANCH  22  28
ENDBRANCH   1  22
TORSDOF 4
ENDMDL
MODEL 3
REMARK VINA RESULT:      -7.2      3.238      5.531
REMARK  Name = 
REMARK  6 active torsions:
REMARK  status: ('A' for Active; 'I' for Inactive)
REMARK    1  A    between atoms: C_1  and  C_2
REMARK    2  A    between atoms: C_2  and  C_3
REMARK    3  A    between atoms: C_2  and  C_4
REMARK    4  A    between atoms: C_7  and  S_8
REMARK    5  A    between atoms: S_8  and  N_11
REMARK    6  A    between atoms: N_22  and  C_23
REMARK                            x       y       z     vdW  Elec       q    Type
REMARK                         _______ _______ _______ _____ _____    ______ ____
ROOT
ATOM      1  N   UNL     1       4.488  16.109  19.771  0.00  0.00    +0.000 NA
ATOM      2  C   UNL     1       5.260  17.364  19.715  0.00  0.00    +0.000 C 
ATOM      3  C   UNL     1       6.763  17.043  19.756  0.00  0.00    +0.000 C 
ATOM      4  C   UNL     1       7.185  16.089  20.906  0.00  0.00    +0.000 C 
ATOM      5  C   UNL     1       6.205  14.890  20.961  0.00  0.00    +0.000 C 
ATOM      6  C   UNL     1       4.751  15.333  20.999  0.00  0.00    +0.000 C 
ATOM      7  N   UNL     1       7.085  16.763  22.230  0.00  0.00    +0.000 NA
ATOM      8  C   UNL     1       8.186  17.710  22.413  0.00  0.00    +0.000 C 
ATOM      9  C   UNL     1       9.538  17.009  22.369  0.00  0.00    +0.000 C 
ATOM     10  N   UNL     1       9.694  16.004  21.314  0.00  0.00    +0.000 NA
ATOM     11  C   UNL     1       8.675  15.545  20.666  0.00  0.00    +0.000 C 
ATOM     12  N   UNL     1       8.826  14.551  19.710  0.00  0.00    +0.000 N 
ATOM     13  H   UNL     1       7.200  16.044  22.948  0.00  0.00    +0.000 HD
ATOM     14  H   UNL     1       8.019  14.358  19.126  0.00  0.00    +0.000 HD
ENDROOT
BRANCH  12  15
ATOM     15  C   UNL     1       9.945  13.650  19.413  0.00  0.00    +0.000 C 
ATOM     16  C   UNL     1      10.221  12.648  20.541  0.00  0.00    +0.000 C 
ATOM     17  C   UNL     1       9.272  11.468  20.682  0.00  0.00    +0.000 C 
ATOM     18  C   UNL     1       9.440  10.335  19.671  0.00  0.00    +0.000 C 
ATOM     19  C   UNL     1       9.410  10.704  18.194  0.00  0.00    +0.000 C 
ATOM     20  C   UNL     1      10.477  11.706  17.770  0.00  0.00    +0.000 C 
ATOM     21  C   UNL     1      10.030  13.156  17.964  0.00  0.00    +0.000 C 
ENDBRANCH  12  15
BRANCH   1  22
ATOM     22  S   UNL     1       2.896  16.100  19.181  0.00  0.00    +0.000 S 
ATOM     23  O   UNL     1       2.962  16.502  17.791  0.00  0.00    +0.000 OA
ATOM     24  O   UNL     1       2.051  16.807  20.115  0.00  0.00    +0.000 OA
BRANCH  22  28
ATOM     25  C   UNL     1       1.448  11.753  18.936  0.00  0.00    +0.000 A 
ATOM     26  C   UNL     1       0.927  12.616  19.916  0.00  0.00    +0.000 A 
ATOM     27  C   UNL     1       1.398  13.931  20.049  0.00  0.00    +0.000 A 
ATOM     28  C   UNL     1       2.410  14.385  19.200  0.00  0.00    +0.000 A 
ATOM     29  C   UNL     1       2.951  13.536  18.232  0.00  0.00    +0.000 A 
ATOM     30  C   UNL     1       2.480  12.231  18.112  0.00  0.00    +0.000 A 
BRANCH  25  32
ATOM     31  C   UNL     1       1.850   9.523  17.875  0.00  0.00    +0.000 C 
ATOM     32  C   UNL     1       0.891  10.359  18.732  0.00  0.00    +0.000 C 
ATOM     33  C   UNL     1       0.619   9.664  20.070  0.00  0.00    +0.000 C 
ENDBRANCH  25  32
ENDBRANCH  22  28
ENDBRANCH   1  22
TORSDOF 4
ENDMDL
MODEL 4
REMARK VINA RESULT:      -7.2      1.054      1.419
REMARK  Name = 
REMARK  6 active torsions:
REMARK  status: ('A' for Active; 'I' for Inactive)
REMARK    1  A    between atoms: C_1  and  C_2
REMARK    2  A    between atoms: C_2  and  C_3
REMARK    3  A    between atoms: C_2  and  C_4
REMARK    4  A    between atoms: C_7  and  S_8
REMARK    5  A    between atoms: S_8  and  N_11
REMARK    6  A    between atoms: N_22  and  C_23
REMARK                            x       y       z     vdW  Elec       q    Type
REMARK                         _______ _______ _______ _____ _____    ______ ____
ROOT
ATOM      1  N   UNL     1       0.531  12.513  20.218  0.00  0.00    +0.000 NA
ATOM      2  C   UNL     1      -0.080  13.028  18.978  0.00  0.00    +0.000 C 
ATOM      3  C   UNL     1       0.886  14.016  18.302  0.00  0.00    +0.000 C 
ATOM      4  C   UNL     1       1.436  15.120  19.243  0.00  0.00    +0.000 C 
ATOM      5  C   UNL     1       1.902  14.473  20.572  0.00  0.00    +0.000 C 
ATOM      6  C   UNL     1       0.835  13.583  21.188  0.00  0.00    +0.000 C 
ATOM      7  N   UNL     1       0.373  16.096  19.612  0.00  0.00    +0.000 NA
ATOM      8  C   UNL     1       0.080  16.990  18.491  0.00  0.00    +0.000 C 
ATOM      9  C   UNL     1       1.307  17.798  18.086  0.00  0.00    +0.000 C 
ATOM     10  N   UNL     1       2.565  17.048  18.028  0.00  0.00    +0.000 NA
ATOM     11  C   UNL     1       2.675  15.875  18.558  0.00  0.00    +0.000 C 
ATOM     12  N   UNL     1       3.886  15.199  18.550  0.00  0.00    +0.000 N 
ATOM     13  H   UNL     1       0.744  16.684  20.361  0.00  0.00    +0.000 HD
ATOM     14  H   UNL     1       3.862  14.224  18.829  0.00  0.00    +0.000 HD
ENDROOT
BRANCH  12  15
ATOM     15  C   UNL     1       5.252  15.654  18.268  0.00  0.00    +0.000 C 
ATOM     16  C   UNL     1       5.752  16.700  19.272  0.00  0.00    +0.000 C 
ATOM     17  C   UNL     1       6.171  16.211  20.650  0.00  0.00    +0.000 C 
ATOM     18  C   UNL     1       7.527  15.514  20.741  0.00  0.00    +0.000 C 
ATOM     19  C   UNL     1       7.777  14.343  19.802  0.00  0.00    +0.000 C 
ATOM     20  C   UNL     1       7.663  14.682  18.321  0.00  0.00    +0.000 C 
ATOM     21  C   UNL     1       6.229  14.568  17.802  0.00  0.00    +0.000 C 
ENDBRANCH  12  15
BRANCH   1  22
ATOM     22  S   UNL     1      -0.016  11.035  20.848  0.00  0.00    +0.000 S 
ATOM     23  O   UNL     1      -1.372  10.853  20.373  0.00  0.00    +0.000 OA
ATOM     24  O   UNL     1       0.284  10.994  22.261  0.00  0.00    +0.000 OA
BRANCH  22  28
ATOM     25  C   UNL     1       2.256   7.732  18.616  0.00  0.00    +0.000 A 
ATOM     26  C   UNL     1       1.984   7.597  19.988  0.00  0.00    +0.000 A 
ATOM     27  C   UNL     1       1.345   8.620  20.705  0.00  0.00    +0.000 A 
ATOM     28  C   UNL     1       0.983   9.797  20.044  0.00  0.00    +0.000 A 
ATOM     29  C   UNL     1       1.262   9.954  18.685  0.00  0.00    +0.000 A 
ATOM     30  C   UNL     1       1.902   8.935  17.984  0.00  0.00    +0.000 A 
BRANCH  25  32
ATOM     31  C   UNL     1       4.309   6.959  17.413  0.00  0.00    +0.000 C 
ATOM     32  C   UNL     1       2.873   6.603  17.817  0.00  0.00    +0.000 C 
ATOM     33  C   UNL     1       2.844   5.285  18.598  0.00  0.00    +0.000 C 
ENDBRANCH  25  32
ENDBRANCH  22  28
ENDBRANCH   1  22
TORSDOF 4
ENDMDL
MODEL 5
REMARK VINA RESULT:      -7.1      1.610      2.092
REMARK  Name = 
REMARK  6 active torsions:
REMARK  status: ('A' for Active; 'I' for Inactive)
REMARK    1  A    between atoms: C_1  and  C_2
REMARK    2  A    between atoms: C_2  and  C_3
REMARK    3  A    between atoms: C_2  and  C_4
REMARK    4  A    between atoms: C_7  and  S_8
REMARK    5  A    between atoms: S_8  and  N_11
REMARK    6  A    between atoms: N_22  and  C_23
REMARK                            x       y       z     vdW  Elec       q    Type
REMARK                         _______ _______ _______ _____ _____    ______ ____
ROOT
ATOM      1  N   UNL     1       1.293  12.234  20.162  0.00  0.00    +0.000 NA
ATOM      2  C   UNL     1       1.652  12.524  18.761  0.00  0.00    +0.000 C 
ATOM      3  C   UNL     1       2.985  13.290  18.721  0.00  0.00    +0.000 C 
ATOM      4  C   UNL     1       3.044  14.525  19.659  0.00  0.00    +0.000 C 
ATOM      5  C   UNL     1       2.495  14.133  21.055  0.00  0.00    +0.000 C 
ATOM      6  C   UNL     1       1.136  13.458  20.972  0.00  0.00    +0.000 C 
ATOM      7  N   UNL     1       2.166  15.621  19.165  0.00  0.00    +0.000 NA
ATOM      8  C   UNL     1       2.769  16.285  18.008  0.00  0.00    +0.000 C 
ATOM      9  C   UNL     1       4.111  16.913  18.363  0.00  0.00    +0.000 C 
ATOM     10  N   UNL     1       4.994  16.088  19.192  0.00  0.00    +0.000 NA
ATOM     11  C   UNL     1       4.555  15.043  19.810  0.00  0.00    +0.000 C 
ATOM     12  N   UNL     1       5.384  14.303  20.640  0.00  0.00    +0.000 N 
ATOM     13  H   UNL     1       2.108  16.324  19.904  0.00  0.00    +0.000 HD
ATOM     14  H   UNL     1       5.026  13.409  20.958  0.00  0.00    +0.000 HD
ENDROOT
BRANCH  12  15
ATOM     15  C   UNL     1       6.699  14.602  21.218  0.00  0.00    +0.000 C 
ATOM     16  C   UNL     1       6.789  14.255  22.709  0.00  0.00    +0.000 C 
ATOM     17  C   UNL     1       6.928  12.788  23.083  0.00  0.00    +0.000 C 
ATOM     18  C   UNL     1       8.307  12.162  22.883  0.00  0.00    +0.000 C 
ATOM     19  C   UNL     1       8.940  12.291  21.504  0.00  0.00    +0.000 C 
ATOM     20  C   UNL     1       9.139  13.725  21.029  0.00  0.00    +0.000 C 
ATOM     21  C   UNL     1       7.904  14.286  20.324  0.00  0.00    +0.000 C 
ENDBRANCH  12  15
BRANCH   1  22
ATOM     22  S   UNL     1       0.227  10.954  20.486  0.00  0.00    +0.000 S 
ATOM     23  O   UNL     1      -0.978  11.208  19.722  0.00  0.00    +0.000 OA
ATOM     24  O   UNL     1       0.167  10.750  21.915  0.00  0.00    +0.000 OA
BRANCH  22  28
ATOM     25  C   UNL     1       2.525   7.363  18.789  0.00  0.00    +0.000 A 
ATOM     26  C   UNL     1       2.184   8.441  17.953  0.00  0.00    +0.000 A 
ATOM     27  C   UNL     1       1.429   9.521  18.435  0.00  0.00    +0.000 A 
ATOM     28  C   UNL     1       1.001   9.519  19.765  0.00  0.00    +0.000 A 
ATOM     29  C   UNL     1       1.317   8.449  20.604  0.00  0.00    +0.000 A 
ATOM     30  C   UNL     1       2.062   7.378  20.115  0.00  0.00    +0.000 A 
BRANCH  25  32
ATOM     31  C   UNL     1       2.547   5.042  17.857  0.00  0.00    +0.000 C 
ATOM     32  C   UNL     1       3.406   6.232  18.301  0.00  0.00    +0.000 C 
ATOM     33  C   UNL     1       4.324   6.689  17.163  0.00  0.00    +0.000 C 
ENDBRANCH  25  32
ENDBRANCH  22  28
ENDBRANCH   1  22
TORSDOF 4
ENDMDL
MODEL 6
REMARK VINA RESULT:      -7.1      1.183      1.669
REMARK  Name = 
REMARK  6 active torsions:
REMARK  status: ('A' for Active; 'I' for Inactive)
REMARK    1  A    between atoms: C_1  and  C_2
REMARK    2  A    between atoms: C_2  and  C_3
REMARK    3  A    between atoms: C_2  and  C_4
REMARK    4  A    between atoms: C_7  and  S_8
REMARK    5  A    between atoms: S_8  and  N_11
REMARK    6  A    between atoms: N_22  and  C_23
REMARK                            x       y       z     vdW  Elec       q    Type
REMARK                         _______ _______ _______ _____ _____    ______ ____
ROOT
ATOM      1  N   UNL     1       0.695  12.640  19.550  0.00  0.00    +0.000 NA
ATOM      2  C   UNL     1       0.155  13.902  19.012  0.00  0.00    +0.000 C 
ATOM      3  C   UNL     1       1.315  14.856  18.681  0.00  0.00    +0.000 C 
ATOM      4  C   UNL     1       2.339  15.045  19.832  0.00  0.00    +0.000 C 
ATOM      5  C   UNL     1       2.709  13.659  20.418  0.00  0.00    +0.000 C 
ATOM      6  C   UNL     1       1.482  12.839  20.783  0.00  0.00    +0.000 C 
ATOM      7  N   UNL     1       1.750  15.823  20.957  0.00  0.00    +0.000 NA
ATOM      8  C   UNL     1       1.655  17.242  20.611  0.00  0.00    +0.000 C 
ATOM      9  C   UNL     1       3.028  17.839  20.324  0.00  0.00    +0.000 C 
ATOM     10  N   UNL     1       3.916  17.012  19.503  0.00  0.00    +0.000 NA
ATOM     11  C   UNL     1       3.667  15.763  19.290  0.00  0.00    +0.000 C 
ATOM     12  N   UNL     1       4.545  14.974  18.561  0.00  0.00    +0.000 N 
ATOM     13  H   UNL     1       2.399  15.761  21.745  0.00  0.00    +0.000 HD
ATOM     14  H   UNL     1       4.211  14.055  18.290  0.00  0.00    +0.000 HD
ENDROOT
BRANCH  12  15
ATOM     15  C   UNL     1       5.935  15.194  18.147  0.00  0.00    +0.000 C 
ATOM     16  C   UNL     1       6.699  16.129  19.092  0.00  0.00    +0.000 C 
ATOM     17  C   UNL     1       7.158  15.562  20.427  0.00  0.00    +0.000 C 
ATOM     18  C   UNL     1       8.378  14.645  20.393  0.00  0.00    +0.000 C 
ATOM     19  C   UNL     1       8.335  13.457  19.441  0.00  0.00    +0.000 C 
ATOM     20  C   UNL     1       8.140  13.827  17.975  0.00  0.00    +0.000 C 
ATOM     21  C   UNL     1       6.665  13.963  17.596  0.00  0.00    +0.000 C 
ENDBRANCH  12  15
BRANCH   1  22
ATOM     22  S   UNL     1      -0.258  11.239  19.463  0.00  0.00    +0.000 S 
ATOM     23  O   UNL     1      -1.021  11.326  18.234  0.00  0.00    +0.000 OA
ATOM     24  O   UNL     1      -0.922  11.049  20.732  0.00  0.00    +0.000 OA
BRANCH  22  28
ATOM     25  C   UNL     1       2.487   7.635  18.732  0.00  0.00    +0.000 A 
ATOM     26  C   UNL     1       1.896   7.827  19.993  0.00  0.00    +0.000 A 
ATOM     27  C   UNL     1       1.102   8.953  20.258  0.00  0.00    +0.000 A 
ATOM     28  C   UNL     1       0.906   9.905  19.254  0.00  0.00    +0.000 A 
ATOM     29  C   UNL     1       1.500   9.738  18.001  0.00  0.00    +0.000 A 
ATOM     30  C   UNL     1       2.290   8.620  17.750  0.00  0.00    +0.000 A 
BRANCH  25  32
ATOM     31  C   UNL     1       2.333   5.240  18.028  0.00  0.00    +0.000 C 
ATOM     32  C   UNL     1       3.279   6.384  18.412  0.00  0.00    +0.000 C 
ATOM     33  C   UNL     1       4.298   6.638  17.297  0.00  0.00    +0.000 C 
ENDBRANCH  25  32
ENDBRANCH  22  28
ENDBRANCH   1  22
TORSDOF 4
ENDMDL
MODEL 7
REMARK VINA RESULT:      -7.0      3.428      5.822
REMARK  Name = 
REMARK  6 active torsions:
REMARK  status: ('A' for Active; 'I' for Inactive)
REMARK    1  A    between atoms: C_1  and  C_2
REMARK    2  A    between atoms: C_2  and  C_3
REMARK    3  A    between atoms: C_2  and  C_4
REMARK    4  A    between atoms: C_7  and  S_8
REMARK    5  A    between atoms: S_8  and  N_11
REMARK    6  A    between atoms: N_22  and  C_23
REMARK                            x       y       z     vdW  Elec       q    Type
REMARK                         _______ _______ _______ _____ _____    ______ ____
ROOT
ATOM      1  N   UNL     1       4.623  16.396  19.806  0.00  0.00    +0.000 NA
ATOM      2  C   UNL     1       5.464  17.560  20.141  0.00  0.00    +0.000 C 
ATOM      3  C   UNL     1       6.927  17.110  20.293  0.00  0.00    +0.000 C 
ATOM      4  C   UNL     1       7.129  15.892  21.232  0.00  0.00    +0.000 C 
ATOM      5  C   UNL     1       6.086  14.800  20.884  0.00  0.00    +0.000 C 
ATOM      6  C   UNL     1       4.668  15.346  20.843  0.00  0.00    +0.000 C 
ATOM      7  N   UNL     1       6.881  16.259  22.654  0.00  0.00    +0.000 NA
ATOM      8  C   UNL     1       7.996  17.043  23.188  0.00  0.00    +0.000 C 
ATOM      9  C   UNL     1       9.300  16.256  23.150  0.00  0.00    +0.000 C 
ATOM     10  N   UNL     1       9.547  15.503  21.917  0.00  0.00    +0.000 NA
ATOM     11  C   UNL     1       8.606  15.289  21.059  0.00  0.00    +0.000 C 
ATOM     12  N   UNL     1       8.835  14.524  19.924  0.00  0.00    +0.000 N 
ATOM     13  H   UNL     1       6.854  15.391  23.193  0.00  0.00    +0.000 HD
ATOM     14  H   UNL     1       8.109  14.536  19.216  0.00  0.00    +0.000 HD
ENDROOT
BRANCH  12  15
ATOM     15  C   UNL     1       9.933  13.619  19.567  0.00  0.00    +0.000 C 
ATOM     16  C   UNL     1      10.196  12.549  20.633  0.00  0.00    +0.000 C 
ATOM     17  C   UNL     1       9.225  11.382  20.714  0.00  0.00    +0.000 C 
ATOM     18  C   UNL     1       9.362  10.306  19.639  0.00  0.00    +0.000 C 
ATOM     19  C   UNL     1       9.330  10.760  18.186  0.00  0.00    +0.000 C 
ATOM     20  C   UNL     1      10.414  11.763  17.811  0.00  0.00    +0.000 C 
ATOM     21  C   UNL     1       9.998  13.208  18.091  0.00  0.00    +0.000 C 
ENDBRANCH  12  15
BRANCH   1  22
ATOM     22  S   UNL     1       3.133  16.655  19.038  0.00  0.00    +0.000 S 
ATOM     23  O   UNL     1       3.427  17.176  17.718  0.00  0.00    +0.000 OA
ATOM     24  O   UNL     1       2.265  17.377  19.940  0.00  0.00    +0.000 OA
BRANCH  22  28
ATOM     25  C   UNL     1       1.468  12.387  18.781  0.00  0.00    +0.000 A 
ATOM     26  C   UNL     1       2.653  12.724  18.103  0.00  0.00    +0.000 A 
ATOM     27  C   UNL     1       3.148  14.037  18.117  0.00  0.00    +0.000 A 
ATOM     28  C   UNL     1       2.445  15.027  18.808  0.00  0.00    +0.000 A 
ATOM     29  C   UNL     1       1.258  14.713  19.472  0.00  0.00    +0.000 A 
ATOM     30  C   UNL     1       0.772  13.408  19.448  0.00  0.00    +0.000 A 
BRANCH  25  32
ATOM     31  C   UNL     1       1.914  10.033  18.062  0.00  0.00    +0.000 C 
ATOM     32  C   UNL     1       0.969  10.958  18.839  0.00  0.00    +0.000 C 
ATOM     33  C   UNL     1       0.813  10.478  20.285  0.00  0.00    +0.000 C 
ENDBRANCH  25  32
ENDBRANCH  22  28
ENDBRANCH   1  22
TORSDOF 4
ENDMDL
MODEL 8
REMARK VINA RESULT:      -7.0      3.170      4.441
REMARK  Name = 
REMARK  6 active torsions:
REMARK  status: ('A' for Active; 'I' for Inactive)
REMARK    1  A    between atoms: C_1  and  C_2
REMARK    2  A    between atoms: C_2  and  C_3
REMARK    3  A    between atoms: C_2  and  C_4
REMARK    4  A    between atoms: C_7  and  S_8
REMARK    5  A    between atoms: S_8  and  N_11
REMARK    6  A    between atoms: N_22  and  C_23
REMARK                            x       y       z     vdW  Elec       q    Type
REMARK                         _______ _______ _______ _____ _____    ______ ____
ROOT
ATOM      1  N   UNL     1       1.135  13.075  21.130  0.00  0.00    +0.000 NA
ATOM      2  C   UNL     1       1.512  13.106  19.705  0.00  0.00    +0.000 C 
ATOM      3  C   UNL     1       2.954  13.622  19.567  0.00  0.00    +0.000 C 
ATOM      4  C   UNL     1       3.237  14.945  20.326  0.00  0.00    +0.000 C 
ATOM      5  C   UNL     1       2.656  14.847  21.759  0.00  0.00    +0.000 C 
ATOM      6  C   UNL     1       1.201  14.407  21.764  0.00  0.00    +0.000 C 
ATOM      7  N   UNL     1       2.547  16.097  19.681  0.00  0.00    +0.000 NA
ATOM      8  C   UNL     1       3.233  16.485  18.447  0.00  0.00    +0.000 C 
ATOM      9  C   UNL     1       4.668  16.919  18.719  0.00  0.00    +0.000 C 
ATOM     10  N   UNL     1       5.414  16.078  19.658  0.00  0.00    +0.000 NA
ATOM     11  C   UNL     1       4.816  15.216  20.412  0.00  0.00    +0.000 C 
ATOM     12  N   UNL     1       5.524  14.467  21.340  0.00  0.00    +0.000 N 
ATOM     13  H   UNL     1       2.623  16.894  20.316  0.00  0.00    +0.000 HD
ATOM     14  H   UNL     1       5.027  13.698  21.777  0.00  0.00    +0.000 HD
ENDROOT
BRANCH  12  15
ATOM     15  C   UNL     1       6.881  14.615  21.879  0.00  0.00    +0.000 C 
ATOM     16  C   UNL     1       6.989  14.194  23.349  0.00  0.00    +0.000 C 
ATOM     17  C   UNL     1       7.002  12.705  23.657  0.00  0.00    +0.000 C 
ATOM     18  C   UNL     1       8.307  11.963  23.376  0.00  0.00    +0.000 C 
ATOM     19  C   UNL     1       8.901  12.094  21.980  0.00  0.00    +0.000 C 
ATOM     20  C   UNL     1       9.218  13.523  21.558  0.00  0.00    +0.000 C 
ATOM     21  C   UNL     1       8.018  14.228  20.926  0.00  0.00    +0.000 C 
ENDBRANCH  12  15
BRANCH   1  22
ATOM     22  S   UNL     1      -0.125  12.051  21.622  0.00  0.00    +0.000 S 
ATOM     23  O   UNL     1      -1.035  12.854  22.413  0.00  0.00    +0.000 OA
ATOM     24  O   UNL     1       0.446  10.837  22.159  0.00  0.00    +0.000 OA
BRANCH  22  28
ATOM     25  C   UNL     1      -2.594  10.813  17.957  0.00  0.00    +0.000 A 
ATOM     26  C   UNL     1      -1.420  10.113  18.286  0.00  0.00    +0.000 A 
ATOM     27  C   UNL     1      -0.617  10.510  19.366  0.00  0.00    +0.000 A 
ATOM     28  C   UNL     1      -0.986  11.628  20.119  0.00  0.00    +0.000 A 
ATOM     29  C   UNL     1      -2.139  12.345  19.795  0.00  0.00    +0.000 A 
ATOM     30  C   UNL     1      -2.927  11.945  18.719  0.00  0.00    +0.000 A 
BRANCH  25  32
ATOM     31  C   UNL     1      -4.696  11.304  16.692  0.00  0.00    +0.000 C 
ATOM     32  C   UNL     1      -3.509  10.344  16.845  0.00  0.00    +0.000 C 
ATOM     33  C   UNL     1      -2.753  10.207  15.520  0.00  0.00    +0.000 C 
ENDBRANCH  25  32
ENDBRANCH  22  28
ENDBRANCH   1  22
TORSDOF 4
ENDMDL
MODEL 9
REMARK VINA RESULT:      -7.0      2.910      7.308
REMARK  Name = 
REMARK  6 active torsions:
REMARK  status: ('A' for Active; 'I' for Inactive)
REMARK    1  A    between atoms: C_1  and  C_2
REMARK    2  A    between atoms: C_2  and  C_3
REMARK    3  A    between atoms: C_2  and  C_4
REMARK    4  A    between atoms: C_7  and  S_8
REMARK    5  A    between atoms: S_8  and  N_11
REMARK    6  A    between atoms: N_22  and  C_23
REMARK                            x       y       z     vdW  Elec       q    Type
REMARK                         _______ _______ _______ _____ _____    ______ ____
ROOT
ATOM      1  N   UNL     1       2.959  15.524  19.562  0.00  0.00    +0.000 NA
ATOM      2  C   UNL     1       3.047  15.488  21.034  0.00  0.00    +0.000 C 
ATOM      3  C   UNL     1       2.305  14.249  21.562  0.00  0.00    +0.000 C 
ATOM      4  C   UNL     1       0.865  14.080  21.009  0.00  0.00    +0.000 C 
ATOM      5  C   UNL     1       0.878  14.294  19.474  0.00  0.00    +0.000 C 
ATOM      6  C   UNL     1       1.567  15.591  19.078  0.00  0.00    +0.000 C 
ATOM      7  N   UNL     1      -0.051  15.116  21.561  0.00  0.00    +0.000 NA
ATOM      8  C   UNL     1      -0.391  14.817  22.953  0.00  0.00    +0.000 C 
ATOM      9  C   UNL     1      -1.105  13.476  23.077  0.00  0.00    +0.000 C 
ATOM     10  N   UNL     1      -0.540  12.384  22.281  0.00  0.00    +0.000 NA
ATOM     11  C   UNL     1       0.309  12.611  21.334  0.00  0.00    +0.000 C 
ATOM     12  N   UNL     1       0.793  11.576  20.548  0.00  0.00    +0.000 N 
ATOM     13  H   UNL     1      -0.925  15.065  21.033  0.00  0.00    +0.000 HD
ATOM     14  H   UNL     1       1.575  11.796  19.940  0.00  0.00    +0.000 HD
ENDROOT
BRANCH  12  15
ATOM     15  C   UNL     1       0.337  10.192  20.371  0.00  0.00    +0.000 C 
ATOM     16  C   UNL     1       0.048   9.841  18.906  0.00  0.00    +0.000 C 
ATOM     17  C   UNL     1       1.238   9.593  17.993  0.00  0.00    +0.000 C 
ATOM     18  C   UNL     1       1.946   8.249  18.148  0.00  0.00    +0.000 C 
ATOM     19  C   UNL     1       2.417   7.862  19.543  0.00  0.00    +0.000 C 
ATOM     20  C   UNL     1       1.311   7.793  20.589  0.00  0.00    +0.000 C 
ATOM     21  C   UNL     1       1.039   9.146  21.245  0.00  0.00    +0.000 C 
ENDBRANCH  12  15
BRANCH   1  22
ATOM     22  S   UNL     1       4.119  16.406  18.693  0.00  0.00    +0.000 S 
ATOM     23  O   UNL     1       4.409  17.595  19.469  0.00  0.00    +0.000 OA
ATOM     24  O   UNL     1       3.691  16.508  17.317  0.00  0.00    +0.000 OA
BRANCH  22  28
ATOM     25  C   UNL     1       8.086  14.099  18.704  0.00  0.00    +0.000 A 
ATOM     26  C   UNL     1       7.176  13.933  17.645  0.00  0.00    +0.000 A 
ATOM     27  C   UNL     1       5.931  14.581  17.650  0.00  0.00    +0.000 A 
ATOM     28  C   UNL     1       5.588  15.396  18.731  0.00  0.00    +0.000 A 
ATOM     29  C   UNL     1       6.472  15.558  19.799  0.00  0.00    +0.000 A 
ATOM     30  C   UNL     1       7.702  14.906  19.788  0.00  0.00    +0.000 A 
BRANCH  25  32
ATOM     31  C   UNL     1      10.037  13.370  20.089  0.00  0.00    +0.000 C 
ATOM     32  C   UNL     1       9.462  13.468  18.671  0.00  0.00    +0.000 C 
ATOM     33  C   UNL     1       9.429  12.088  18.007  0.00  0.00    +0.000 C 
ENDBRANCH  25  32
ENDBRANCH  22  28
ENDBRANCH   1  22
TORSDOF 4
ENDMDL
