MODEL 1
REMARK VINA RESULT:      -7.6      0.000      0.000
REMARK  Name = 
REMARK  10 active torsions:
REMARK  status: ('A' for Active; 'I' for Inactive)
REMARK    1  A    between atoms: C_1  and  C_2
REMARK    2  A    between atoms: C_5  and  N_6
REMARK    3  A    between atoms: N_6  and  C_7
REMARK    4  A    between atoms: N_6  and  S_19
REMARK    5  A    between atoms: C_7  and  C_8
REMARK    6  A    between atoms: C_7  and  C_9
REMARK    7  A    between atoms: N_11  and  C_12
REMARK    8  A    between atoms: C_12  and  C_13
REMARK    9  A    between atoms: S_19  and  C_20
REMARK   10  A    between atoms: C_24  and  C_25
REMARK                            x       y       z     vdW  Elec       q    Type
REMARK                         _______ _______ _______ _____ _____    ______ ____
ROOT
ATOM      1  N   UNL     1       5.901   5.340  16.898  0.00  0.00    +0.000 N 
ENDROOT
BRANCH   1   6
ATOM      2  C   UNL     1       6.949   3.508  11.534  0.00  0.00    +0.000 C 
ATOM      3  C   UNL     1       6.661   4.012  12.923  0.00  0.00    +0.000 A 
ATOM      4  C   UNL     1       5.657   3.402  13.689  0.00  0.00    +0.000 A 
ATOM      5  C   UNL     1       5.379   3.837  14.991  0.00  0.00    +0.000 A 
ATOM      6  C   UNL     1       6.107   4.890  15.547  0.00  0.00    +0.000 A 
ATOM      7  C   UNL     1       7.086   5.525  14.780  0.00  0.00    +0.000 A 
ATOM      8  C   UNL     1       7.396   5.075  13.484  0.00  0.00    +0.000 A 
ATOM      9  C   UNL     1       8.522   5.731  12.732  0.00  0.00    +0.000 C 
ENDBRANCH   1   6
BRANCH   1  10
ATOM     10  S   UNL     1       7.141   5.013  18.012  0.00  0.00    +0.000 S 
ATOM     11  C   UNL     1       7.824   6.620  18.361  0.00  0.00    +0.000 C 
ATOM     12  O   UNL     1       6.494   4.542  19.219  0.00  0.00    +0.000 OA
ATOM     13  O   UNL     1       8.164   4.209  17.379  0.00  0.00    +0.000 OA
ENDBRANCH   1  10
BRANCH   1  14
ATOM     14  C   UNL     1       4.933   6.440  17.220  0.00  0.00    +0.000 C 
ATOM     15  C   UNL     1       4.604   7.349  16.029  0.00  0.00    +0.000 C 
BRANCH  14  16
ATOM     16  C   UNL     1       3.584   6.021  17.822  0.00  0.00    +0.000 C 
ATOM     17  O   UNL     1       2.895   6.842  18.434  0.00  0.00    +0.000 OA
ATOM     18  N   UNL     1       3.136   4.739  17.600  0.00  0.00    +0.000 N 
ATOM     19  H   UNL     1       3.859   4.031  17.509  0.00  0.00    +0.000 HD
BRANCH  18  20
ATOM     20  C   UNL     1       1.888   4.315  18.198  0.00  0.00    +0.000 C 
BRANCH  20  21
ATOM     21  C   UNL     1       2.106   3.625  19.514  0.00  0.00    +0.000 A 
ATOM     22  C   UNL     1       3.347   3.084  19.854  0.00  0.00    +0.000 A 
ATOM     23  C   UNL     1       3.487   2.467  21.088  0.00  0.00    +0.000 A 
ATOM     24  N   UNL     1       2.488   2.352  21.990  0.00  0.00    +0.000 NA
ATOM     25  C   UNL     1       1.295   2.874  21.641  0.00  0.00    +0.000 A 
ATOM     26  C   UNL     1       1.056   3.508  20.432  0.00  0.00    +0.000 A 
ENDBRANCH  20  21
ENDBRANCH  18  20
ENDBRANCH  14  16
ENDBRANCH   1  14
TORSDOF 6
ENDMDL
MODEL 2
REMARK VINA RESULT:      -7.4      0.502      1.662
REMARK  Name = 
REMARK  10 active torsions:
REMARK  status: ('A' for Active; 'I' for Inactive)
REMARK    1  A    between atoms: C_1  and  C_2
REMARK    2  A    between atoms: C_5  and  N_6
REMARK    3  A    between atoms: N_6  and  C_7
REMARK    4  A    between atoms: N_6  and  S_19
REMARK    5  A    between atoms: C_7  and  C_8
REMARK    6  A    between atoms: C_7  and  C_9
REMARK    7  A    between atoms: N_11  and  C_12
REMARK    8  A    between atoms: C_12  and  C_13
REMARK    9  A    between atoms: S_19  and  C_20
REMARK   10  A    between atoms: C_24  and  C_25
REMARK                            x       y       z     vdW  Elec       q    Type
REMARK                         _______ _______ _______ _____ _____    ______ ____
ROOT
ATOM      1  N   UNL     1       5.989   5.227  16.740  0.00  0.00    +0.000 N 
ENDROOT
BRANCH   1   6
ATOM      2  C   UNL     1       7.290   4.139  11.230  0.00  0.00    +0.000 C 
ATOM      3  C   UNL     1       6.956   4.394  12.677  0.00  0.00    +0.000 A 
ATOM      4  C   UNL     1       7.836   5.147  13.469  0.00  0.00    +0.000 A 
ATOM      5  C   UNL     1       7.544   5.414  14.813  0.00  0.00    +0.000 A 
ATOM      6  C   UNL     1       6.363   4.934  15.382  0.00  0.00    +0.000 A 
ATOM      7  C   UNL     1       5.499   4.156  14.609  0.00  0.00    +0.000 A 
ATOM      8  C   UNL     1       5.765   3.908  13.251  0.00  0.00    +0.000 A 
ATOM      9  C   UNL     1       4.758   3.143  12.435  0.00  0.00    +0.000 C 
ENDBRANCH   1   6
BRANCH   1  10
ATOM     10  S   UNL     1       7.113   4.825  17.948  0.00  0.00    +0.000 S 
ATOM     11  C   UNL     1       7.712   6.408  18.504  0.00  0.00    +0.000 C 
ATOM     12  O   UNL     1       6.356   4.239  19.035  0.00  0.00    +0.000 OA
ATOM     13  O   UNL     1       8.219   4.099  17.362  0.00  0.00    +0.000 OA
ENDBRANCH   1  10
BRANCH   1  14
ATOM     14  C   UNL     1       4.940   6.249  17.062  0.00  0.00    +0.000 C 
ATOM     15  C   UNL     1       4.622   7.203  15.903  0.00  0.00    +0.000 C 
BRANCH  14  16
ATOM     16  C   UNL     1       3.587   5.719  17.561  0.00  0.00    +0.000 C 
ATOM     17  O   UNL     1       2.738   6.501  17.999  0.00  0.00    +0.000 OA
ATOM     18  N   UNL     1       3.324   4.374  17.440  0.00  0.00    +0.000 N 
ATOM     19  H   UNL     1       4.131   3.762  17.507  0.00  0.00    +0.000 HD
BRANCH  18  20
ATOM     20  C   UNL     1       2.072   3.853  17.946  0.00  0.00    +0.000 C 
BRANCH  20  21
ATOM     21  C   UNL     1       2.197   3.380  19.367  0.00  0.00    +0.000 A 
ATOM     22  C   UNL     1       1.153   3.539  20.279  0.00  0.00    +0.000 A 
ATOM     23  C   UNL     1       1.327   3.072  21.573  0.00  0.00    +0.000 A 
ATOM     24  N   UNL     1       2.454   2.471  22.013  0.00  0.00    +0.000 NA
ATOM     25  C   UNL     1       3.454   2.333  21.119  0.00  0.00    +0.000 A 
ATOM     26  C   UNL     1       3.376   2.767  19.805  0.00  0.00    +0.000 A 
ENDBRANCH  20  21
ENDBRANCH  18  20
ENDBRANCH  14  16
ENDBRANCH   1  14
TORSDOF 6
ENDMDL
MODEL 3
REMARK VINA RESULT:      -7.4      2.210      4.745
REMARK  Name = 
REMARK  10 active torsions:
REMARK  status: ('A' for Active; 'I' for Inactive)
REMARK    1  A    between atoms: C_1  and  C_2
REMARK    2  A    between atoms: C_5  and  N_6
REMARK    3  A    between atoms: N_6  and  C_7
REMARK    4  A    between atoms: N_6  and  S_19
REMARK    5  A    between atoms: C_7  and  C_8
REMARK    6  A    between atoms: C_7  and  C_9
REMARK    7  A    between atoms: N_11  and  C_12
REMARK    8  A    between atoms: C_12  and  C_13
REMARK    9  A    between atoms: S_19  and  C_20
REMARK   10  A    between atoms: C_24  and  C_25
REMARK                            x       y       z     vdW  Elec       q    Type
REMARK                         _______ _______ _______ _____ _____    ______ ____
ROOT
ATOM      1  N   UNL     1       5.143   5.708  16.860  0.00  0.00    +0.000 N 
ENDROOT
BRANCH   1   6
ATOM      2  C   UNL     1       1.305   7.841  20.595  0.00  0.00    +0.000 C 
ATOM      3  C   UNL     1       2.326   7.308  19.625  0.00  0.00    +0.000 A 
ATOM      4  C   UNL     1       3.099   6.190  19.975  0.00  0.00    +0.000 A 
ATOM      5  C   UNL     1       4.044   5.661  19.086  0.00  0.00    +0.000 A 
ATOM      6  C   UNL     1       4.226   6.244  17.831  0.00  0.00    +0.000 A 
ATOM      7  C   UNL     1       3.486   7.376  17.488  0.00  0.00    +0.000 A 
ATOM      8  C   UNL     1       2.511   7.896  18.359  0.00  0.00    +0.000 A 
ATOM      9  C   UNL     1       1.673   9.062  17.907  0.00  0.00    +0.000 C 
ENDBRANCH   1   6
BRANCH   1  10
ATOM     10  S   UNL     1       6.784   6.094  17.061  0.00  0.00    +0.000 S 
ATOM     11  C   UNL     1       7.407   4.765  18.070  0.00  0.00    +0.000 C 
ATOM     12  O   UNL     1       7.398   5.974  15.755  0.00  0.00    +0.000 OA
ATOM     13  O   UNL     1       6.906   7.329  17.807  0.00  0.00    +0.000 OA
ENDBRANCH   1  10
BRANCH   1  14
ATOM     14  C   UNL     1       4.796   4.506  16.033  0.00  0.00    +0.000 C 
ATOM     15  C   UNL     1       6.015   3.712  15.546  0.00  0.00    +0.000 C 
BRANCH  14  16
ATOM     16  C   UNL     1       3.843   3.481  16.665  0.00  0.00    +0.000 C 
ATOM     17  O   UNL     1       2.651   3.462  16.348  0.00  0.00    +0.000 OA
ATOM     18  N   UNL     1       4.366   2.547  17.531  0.00  0.00    +0.000 N 
ATOM     19  H   UNL     1       5.168   2.853  18.073  0.00  0.00    +0.000 HD
BRANCH  18  20
ATOM     20  C   UNL     1       3.474   1.603  18.170  0.00  0.00    +0.000 C 
BRANCH  20  21
ATOM     21  C   UNL     1       2.751   2.217  19.335  0.00  0.00    +0.000 A 
ATOM     22  C   UNL     1       3.382   2.394  20.568  0.00  0.00    +0.000 A 
ATOM     23  C   UNL     1       2.664   2.976  21.602  0.00  0.00    +0.000 A 
ATOM     24  N   UNL     1       1.380   3.383  21.493  0.00  0.00    +0.000 NA
ATOM     25  C   UNL     1       0.787   3.196  20.296  0.00  0.00    +0.000 A 
ATOM     26  C   UNL     1       1.420   2.624  19.204  0.00  0.00    +0.000 A 
ENDBRANCH  20  21
ENDBRANCH  18  20
ENDBRANCH  14  16
ENDBRANCH   1  14
TORSDOF 6
ENDMDL
MODEL 4
REMARK VINA RESULT:      -7.1      6.204      8.787
REMARK  Name = 
REMARK  10 active torsions:
REMARK  status: ('A' for Active; 'I' for Inactive)
REMARK    1  A    between atoms: C_1  and  C_2
REMARK    2  A    between atoms: C_5  and  N_6
REMARK    3  A    between atoms: N_6  and  C_7
REMARK    4  A    between atoms: N_6  and  S_19
REMARK    5  A    between atoms: C_7  and  C_8
REMARK    6  A    between atoms: C_7  and  C_9
REMARK    7  A    between atoms: N_11  and  C_12
REMARK    8  A    between atoms: C_12  and  C_13
REMARK    9  A    between atoms: S_19  and  C_20
REMARK   10  A    between atoms: C_24  and  C_25
REMARK                            x       y       z     vdW  Elec       q    Type
REMARK                         _______ _______ _______ _____ _____    ______ ____
ROOT
ATOM      1  N   UNL     1       0.373  11.397  18.948  0.00  0.00    +0.000 N 
ENDROOT
BRANCH   1   6
ATOM      2  C   UNL     1      -5.202  11.211  17.496  0.00  0.00    +0.000 C 
ATOM      3  C   UNL     1      -3.741  11.281  17.853  0.00  0.00    +0.000 A 
ATOM      4  C   UNL     1      -3.343  11.937  19.028  0.00  0.00    +0.000 A 
ATOM      5  C   UNL     1      -1.993  12.002  19.394  0.00  0.00    +0.000 A 
ATOM      6  C   UNL     1      -1.020  11.407  18.590  0.00  0.00    +0.000 A 
ATOM      7  C   UNL     1      -1.403  10.782  17.402  0.00  0.00    +0.000 A 
ATOM      8  C   UNL     1      -2.758  10.681  17.040  0.00  0.00    +0.000 A 
ATOM      9  C   UNL     1      -3.129   9.917  15.798  0.00  0.00    +0.000 C 
ENDBRANCH   1   6
BRANCH   1  10
ATOM     10  S   UNL     1       1.140  12.907  19.085  0.00  0.00    +0.000 S 
ATOM     11  C   UNL     1       2.626  12.711  18.123  0.00  0.00    +0.000 C 
ATOM     12  O   UNL     1       0.296  13.860  18.395  0.00  0.00    +0.000 OA
ATOM     13  O   UNL     1       1.516  13.138  20.463  0.00  0.00    +0.000 OA
ENDBRANCH   1  10
BRANCH   1  14
ATOM     14  C   UNL     1       0.998  10.222  19.639  0.00  0.00    +0.000 C 
ATOM     15  C   UNL     1       0.052   9.488  20.598  0.00  0.00    +0.000 C 
BRANCH  14  16
ATOM     16  C   UNL     1       1.619   9.141  18.742  0.00  0.00    +0.000 C 
ATOM     17  O   UNL     1       1.767   9.345  17.534  0.00  0.00    +0.000 OA
ATOM     18  N   UNL     1       2.066   7.979  19.329  0.00  0.00    +0.000 N 
ATOM     19  H   UNL     1       1.557   7.681  20.155  0.00  0.00    +0.000 HD
BRANCH  18  20
ATOM     20  C   UNL     1       2.613   6.933  18.491  0.00  0.00    +0.000 C 
BRANCH  20  21
ATOM     21  C   UNL     1       2.091   5.578  18.879  0.00  0.00    +0.000 A 
ATOM     22  C   UNL     1       1.866   4.587  17.921  0.00  0.00    +0.000 A 
ATOM     23  C   UNL     1       1.392   3.354  18.343  0.00  0.00    +0.000 A 
ATOM     24  N   UNL     1       1.129   3.048  19.632  0.00  0.00    +0.000 NA
ATOM     25  C   UNL     1       1.346   4.021  20.541  0.00  0.00    +0.000 A 
ATOM     26  C   UNL     1       1.816   5.284  20.218  0.00  0.00    +0.000 A 
ENDBRANCH  20  21
ENDBRANCH  18  20
ENDBRANCH  14  16
ENDBRANCH   1  14
TORSDOF 6
ENDMDL
MODEL 5
REMARK VINA RESULT:      -7.1      2.019      6.955
REMARK  Name = 
REMARK  10 active torsions:
REMARK  status: ('A' for Active; 'I' for Inactive)
REMARK    1  A    between atoms: C_1  and  C_2
REMARK    2  A    between atoms: C_5  and  N_6
REMARK    3  A    between atoms: N_6  and  C_7
REMARK    4  A    between atoms: N_6  and  S_19
REMARK    5  A    between atoms: C_7  and  C_8
REMARK    6  A    between atoms: C_7  and  C_9
REMARK    7  A    between atoms: N_11  and  C_12
REMARK    8  A    between atoms: C_12  and  C_13
REMARK    9  A    between atoms: S_19  and  C_20
REMARK   10  A    between atoms: C_24  and  C_25
REMARK                            x       y       z     vdW  Elec       q    Type
REMARK                         _______ _______ _______ _____ _____    ______ ____
ROOT
ATOM      1  N   UNL     1       5.412   5.286  18.054  0.00  0.00    +0.000 N 
ENDROOT
BRANCH   1   6
ATOM      2  C   UNL     1       1.710   2.670  21.615  0.00  0.00    +0.000 C 
ATOM      3  C   UNL     1       2.690   3.367  20.709  0.00  0.00    +0.000 A 
ATOM      4  C   UNL     1       3.744   2.640  20.135  0.00  0.00    +0.000 A 
ATOM      5  C   UNL     1       4.660   3.259  19.275  0.00  0.00    +0.000 A 
ATOM      6  C   UNL     1       4.532   4.615  18.974  0.00  0.00    +0.000 A 
ATOM      7  C   UNL     1       3.506   5.353  19.566  0.00  0.00    +0.000 A 
ATOM      8  C   UNL     1       2.561   4.737  20.406  0.00  0.00    +0.000 A 
ATOM      9  C   UNL     1       1.419   5.554  20.947  0.00  0.00    +0.000 C 
ENDBRANCH   1   6
BRANCH   1  10
ATOM     10  S   UNL     1       7.051   5.374  18.488  0.00  0.00    +0.000 S 
ATOM     11  C   UNL     1       7.575   6.944  17.831  0.00  0.00    +0.000 C 
ATOM     12  O   UNL     1       7.089   5.472  19.933  0.00  0.00    +0.000 OA
ATOM     13  O   UNL     1       7.790   4.327  17.815  0.00  0.00    +0.000 OA
ENDBRANCH   1  10
BRANCH   1  14
ATOM     14  C   UNL     1       5.054   5.457  16.608  0.00  0.00    +0.000 C 
ATOM     15  C   UNL     1       5.126   6.909  16.115  0.00  0.00    +0.000 C 
BRANCH  14  16
ATOM     16  C   UNL     1       5.850   4.623  15.594  0.00  0.00    +0.000 C 
ATOM     17  O   UNL     1       5.955   3.402  15.741  0.00  0.00    +0.000 OA
ATOM     18  N   UNL     1       6.375   5.257  14.491  0.00  0.00    +0.000 N 
ATOM     19  H   UNL     1       6.644   6.226  14.629  0.00  0.00    +0.000 HD
BRANCH  18  20
ATOM     20  C   UNL     1       7.165   4.492  13.550  0.00  0.00    +0.000 C 
BRANCH  20  21
ATOM     21  C   UNL     1       6.304   3.662  12.641  0.00  0.00    +0.000 A 
ATOM     22  C   UNL     1       4.972   4.003  12.394  0.00  0.00    +0.000 A 
ATOM     23  C   UNL     1       4.232   3.201  11.538  0.00  0.00    +0.000 A 
ATOM     24  N   UNL     1       4.719   2.101  10.924  0.00  0.00    +0.000 NA
ATOM     25  C   UNL     1       6.005   1.785  11.182  0.00  0.00    +0.000 A 
ATOM     26  C   UNL     1       6.825   2.522  12.022  0.00  0.00    +0.000 A 
ENDBRANCH  20  21
ENDBRANCH  18  20
ENDBRANCH  14  16
ENDBRANCH   1  14
TORSDOF 6
ENDMDL
MODEL 6
REMARK VINA RESULT:      -7.1      2.682      7.121
REMARK  Name = 
REMARK  10 active torsions:
REMARK  status: ('A' for Active; 'I' for Inactive)
REMARK    1  A    between atoms: C_1  and  C_2
REMARK    2  A    between atoms: C_5  and  N_6
REMARK    3  A    between atoms: N_6  and  C_7
REMARK    4  A    between atoms: N_6  and  S_19
REMARK    5  A    between atoms: C_7  and  C_8
REMARK    6  A    between atoms: C_7  and  C_9
REMARK    7  A    between atoms: N_11  and  C_12
REMARK    8  A    between atoms: C_12  and  C_13
REMARK    9  A    between atoms: S_19  and  C_20
REMARK   10  A    between atoms: C_24  and  C_25
REMARK                            x       y       z     vdW  Elec       q    Type
REMARK                         _______ _______ _______ _____ _____    ______ ____
ROOT
ATOM      1  N   UNL     1       2.845   4.261  19.283  0.00  0.00    +0.000 N 
ENDROOT
BRANCH   1   6
ATOM      2  C   UNL     1       0.977   9.635  20.209  0.00  0.00    +0.000 C 
ATOM      3  C   UNL     1       1.494   8.241  19.972  0.00  0.00    +0.000 A 
ATOM      4  C   UNL     1       1.285   7.249  20.942  0.00  0.00    +0.000 A 
ATOM      5  C   UNL     1       1.739   5.939  20.742  0.00  0.00    +0.000 A 
ATOM      6  C   UNL     1       2.407   5.603  19.564  0.00  0.00    +0.000 A 
ATOM      7  C   UNL     1       2.648   6.591  18.608  0.00  0.00    +0.000 A 
ATOM      8  C   UNL     1       2.169   7.902  18.783  0.00  0.00    +0.000 A 
ATOM      9  C   UNL     1       2.373   8.909  17.684  0.00  0.00    +0.000 C 
ENDBRANCH   1   6
BRANCH   1  10
ATOM     10  S   UNL     1       2.083   3.461  17.994  0.00  0.00    +0.000 S 
ATOM     11  C   UNL     1       1.109   2.205  18.798  0.00  0.00    +0.000 C 
ATOM     12  O   UNL     1       1.164   4.413  17.404  0.00  0.00    +0.000 OA
ATOM     13  O   UNL     1       3.077   2.809  17.169  0.00  0.00    +0.000 OA
ENDBRANCH   1  10
BRANCH   1  14
ATOM     14  C   UNL     1       4.188   3.764  19.729  0.00  0.00    +0.000 C 
ATOM     15  C   UNL     1       4.362   2.245  19.607  0.00  0.00    +0.000 C 
BRANCH  14  16
ATOM     16  C   UNL     1       5.417   4.390  19.053  0.00  0.00    +0.000 C 
ATOM     17  O   UNL     1       6.195   5.092  19.706  0.00  0.00    +0.000 OA
ATOM     18  N   UNL     1       5.663   4.090  17.733  0.00  0.00    +0.000 N 
ATOM     19  H   UNL     1       4.842   3.914  17.163  0.00  0.00    +0.000 HD
BRANCH  18  20
ATOM     20  C   UNL     1       6.792   4.707  17.070  0.00  0.00    +0.000 C 
BRANCH  20  21
ATOM     21  C   UNL     1       6.723   4.540  15.578  0.00  0.00    +0.000 A 
ATOM     22  C   UNL     1       7.641   5.169  14.735  0.00  0.00    +0.000 A 
ATOM     23  C   UNL     1       7.530   4.968  13.367  0.00  0.00    +0.000 A 
ATOM     24  N   UNL     1       6.581   4.198  12.793  0.00  0.00    +0.000 NA
ATOM     25  C   UNL     1       5.699   3.604  13.624  0.00  0.00    +0.000 A 
ATOM     26  C   UNL     1       5.727   3.745  15.002  0.00  0.00    +0.000 A 
ENDBRANCH  20  21
ENDBRANCH  18  20
ENDBRANCH  14  16
ENDBRANCH   1  14
TORSDOF 6
ENDMDL
MODEL 7
REMARK VINA RESULT:      -6.9      5.985      8.542
REMARK  Name = 
REMARK  10 active torsions:
REMARK  status: ('A' for Active; 'I' for Inactive)
REMARK    1  A    between atoms: C_1  and  C_2
REMARK    2  A    between atoms: C_5  and  N_6
REMARK    3  A    between atoms: N_6  and  C_7
REMARK    4  A    between atoms: N_6  and  S_19
REMARK    5  A    between atoms: C_7  and  C_8
REMARK    6  A    between atoms: C_7  and  C_9
REMARK    7  A    between atoms: N_11  and  C_12
REMARK    8  A    between atoms: C_12  and  C_13
REMARK    9  A    between atoms: S_19  and  C_20
REMARK   10  A    between atoms: C_24  and  C_25
REMARK                            x       y       z     vdW  Elec       q    Type
REMARK                         _______ _______ _______ _____ _____    ______ ____
ROOT
ATOM      1  N   UNL     1       0.489  10.893  19.141  0.00  0.00    +0.000 N 
ENDROOT
BRANCH   1   6
ATOM      2  C   UNL     1      -5.004  11.245  17.428  0.00  0.00    +0.000 C 
ATOM      3  C   UNL     1      -3.561  11.173  17.854  0.00  0.00    +0.000 A 
ATOM      4  C   UNL     1      -3.158  11.793  19.046  0.00  0.00    +0.000 A 
ATOM      5  C   UNL     1      -1.826  11.728  19.476  0.00  0.00    +0.000 A 
ATOM      6  C   UNL     1      -0.879  11.037  18.718  0.00  0.00    +0.000 A 
ATOM      7  C   UNL     1      -1.265  10.447  17.514  0.00  0.00    +0.000 A 
ATOM      8  C   UNL     1      -2.605  10.477  17.088  0.00  0.00    +0.000 A 
ATOM      9  C   UNL     1      -2.990   9.747  15.830  0.00  0.00    +0.000 C 
ENDBRANCH   1   6
BRANCH   1  10
ATOM     10  S   UNL     1       1.433  12.305  19.175  0.00  0.00    +0.000 S 
ATOM     11  C   UNL     1       0.347  13.551  18.512  0.00  0.00    +0.000 C 
ATOM     12  O   UNL     1       1.654  12.617  20.572  0.00  0.00    +0.000 OA
ATOM     13  O   UNL     1       2.560  12.158  18.279  0.00  0.00    +0.000 OA
ENDBRANCH   1  10
BRANCH   1  14
ATOM     14  C   UNL     1       0.936   9.724  19.967  0.00  0.00    +0.000 C 
ATOM     15  C   UNL     1      -0.201   9.023  20.722  0.00  0.00    +0.000 C 
BRANCH  14  16
ATOM     16  C   UNL     1       1.709   8.616  19.237  0.00  0.00    +0.000 C 
ATOM     17  O   UNL     1       1.907   8.694  18.021  0.00  0.00    +0.000 OA
ATOM     18  N   UNL     1       2.231   7.582  19.980  0.00  0.00    +0.000 N 
ATOM     19  H   UNL     1       1.705   7.330  20.811  0.00  0.00    +0.000 HD
BRANCH  18  20
ATOM     20  C   UNL     1       2.923   6.507  19.301  0.00  0.00    +0.000 C 
BRANCH  20  21
ATOM     21  C   UNL     1       2.174   5.209  19.400  0.00  0.00    +0.000 A 
ATOM     22  C   UNL     1       1.885   4.450  18.265  0.00  0.00    +0.000 A 
ATOM     23  C   UNL     1       1.198   3.255  18.424  0.00  0.00    +0.000 A 
ATOM     24  N   UNL     1       0.783   2.776  19.617  0.00  0.00    +0.000 NA
ATOM     25  C   UNL     1       1.066   3.528  20.701  0.00  0.00    +0.000 A 
ATOM     26  C   UNL     1       1.746   4.734  20.644  0.00  0.00    +0.000 A 
ENDBRANCH  20  21
ENDBRANCH  18  20
ENDBRANCH  14  16
ENDBRANCH   1  14
TORSDOF 6
ENDMDL
MODEL 8
REMARK VINA RESULT:      -6.9      0.804      1.292
REMARK  Name = 
REMARK  10 active torsions:
REMARK  status: ('A' for Active; 'I' for Inactive)
REMARK    1  A    between atoms: C_1  and  C_2
REMARK    2  A    between atoms: C_5  and  N_6
REMARK    3  A    between atoms: N_6  and  C_7
REMARK    4  A    between atoms: N_6  and  S_19
REMARK    5  A    between atoms: C_7  and  C_8
REMARK    6  A    between atoms: C_7  and  C_9
REMARK    7  A    between atoms: N_11  and  C_12
REMARK    8  A    between atoms: C_12  and  C_13
REMARK    9  A    between atoms: S_19  and  C_20
REMARK   10  A    between atoms: C_24  and  C_25
REMARK                            x       y       z     vdW  Elec       q    Type
REMARK                         _______ _______ _______ _____ _____    ______ ____
ROOT
ATOM      1  N   UNL     1       5.914   5.603  17.136  0.00  0.00    +0.000 N 
ENDROOT
BRANCH   1   6
ATOM      2  C   UNL     1       6.658   3.351  11.882  0.00  0.00    +0.000 C 
ATOM      3  C   UNL     1       6.450   3.964  13.241  0.00  0.00    +0.000 A 
ATOM      4  C   UNL     1       5.467   3.441  14.095  0.00  0.00    +0.000 A 
ATOM      5  C   UNL     1       5.263   3.980  15.372  0.00  0.00    +0.000 A 
ATOM      6  C   UNL     1       6.044   5.049  15.814  0.00  0.00    +0.000 A 
ATOM      7  C   UNL     1       7.002   5.596  14.958  0.00  0.00    +0.000 A 
ATOM      8  C   UNL     1       7.238   5.043  13.687  0.00  0.00    +0.000 A 
ATOM      9  C   UNL     1       8.344   5.609  12.837  0.00  0.00    +0.000 C 
ENDBRANCH   1   6
BRANCH   1  10
ATOM     10  S   UNL     1       7.299   5.573  18.118  0.00  0.00    +0.000 S 
ATOM     11  C   UNL     1       6.646   5.314  19.755  0.00  0.00    +0.000 C 
ATOM     12  O   UNL     1       8.039   4.383  17.750  0.00  0.00    +0.000 OA
ATOM     13  O   UNL     1       7.948   6.866  18.085  0.00  0.00    +0.000 OA
ENDBRANCH   1  10
BRANCH   1  14
ATOM     14  C   UNL     1       4.828   6.580  17.473  0.00  0.00    +0.000 C 
ATOM     15  C   UNL     1       4.341   7.409  16.277  0.00  0.00    +0.000 C 
BRANCH  14  16
ATOM     16  C   UNL     1       3.567   6.012  18.140  0.00  0.00    +0.000 C 
ATOM     17  O   UNL     1       3.109   6.541  19.157  0.00  0.00    +0.000 OA
ATOM     18  N   UNL     1       2.927   4.953  17.537  0.00  0.00    +0.000 N 
ATOM     19  H   UNL     1       3.526   4.314  17.023  0.00  0.00    +0.000 HD
BRANCH  18  20
ATOM     20  C   UNL     1       1.763   4.378  18.176  0.00  0.00    +0.000 C 
BRANCH  20  21
ATOM     21  C   UNL     1       2.115   3.692  19.466  0.00  0.00    +0.000 A 
ATOM     22  C   UNL     1       1.288   3.787  20.587  0.00  0.00    +0.000 A 
ATOM     23  C   UNL     1       1.664   3.123  21.745  0.00  0.00    +0.000 A 
ATOM     24  N   UNL     1       2.791   2.387  21.861  0.00  0.00    +0.000 NA
ATOM     25  C   UNL     1       3.580   2.314  20.769  0.00  0.00    +0.000 A 
ATOM     26  C   UNL     1       3.291   2.942  19.568  0.00  0.00    +0.000 A 
ENDBRANCH  20  21
ENDBRANCH  18  20
ENDBRANCH  14  16
ENDBRANCH   1  14
TORSDOF 6
ENDMDL
MODEL 9
REMARK VINA RESULT:      -6.9      1.105      1.275
REMARK  Name = 
REMARK  10 active torsions:
REMARK  status: ('A' for Active; 'I' for Inactive)
REMARK    1  A    between atoms: C_1  and  C_2
REMARK    2  A    between atoms: C_5  and  N_6
REMARK    3  A    between atoms: N_6  and  C_7
REMARK    4  A    between atoms: N_6  and  S_19
REMARK    5  A    between atoms: C_7  and  C_8
REMARK    6  A    between atoms: C_7  and  C_9
REMARK    7  A    between atoms: N_11  and  C_12
REMARK    8  A    between atoms: C_12  and  C_13
REMARK    9  A    between atoms: S_19  and  C_20
REMARK   10  A    between atoms: C_24  and  C_25
REMARK                            x       y       z     vdW  Elec       q    Type
REMARK                         _______ _______ _______ _____ _____    ______ ____
ROOT
ATOM      1  N   UNL     1       5.848   5.630  17.340  0.00  0.00    +0.000 N 
ENDROOT
BRANCH   1   6
ATOM      2  C   UNL     1       6.443   3.206  12.144  0.00  0.00    +0.000 C 
ATOM      3  C   UNL     1       6.275   3.864  13.489  0.00  0.00    +0.000 A 
ATOM      4  C   UNL     1       5.299   3.387  14.377  0.00  0.00    +0.000 A 
ATOM      5  C   UNL     1       5.131   3.968  15.641  0.00  0.00    +0.000 A 
ATOM      6  C   UNL     1       5.941   5.034  16.034  0.00  0.00    +0.000 A 
ATOM      7  C   UNL     1       6.892   5.536  15.144  0.00  0.00    +0.000 A 
ATOM      8  C   UNL     1       7.092   4.940  13.885  0.00  0.00    +0.000 A 
ATOM      9  C   UNL     1       8.192   5.457  12.998  0.00  0.00    +0.000 C 
ENDBRANCH   1   6
BRANCH   1  10
ATOM     10  S   UNL     1       7.132   5.331  18.412  0.00  0.00    +0.000 S 
ATOM     11  C   UNL     1       7.996   6.887  18.474  0.00  0.00    +0.000 C 
ATOM     12  O   UNL     1       6.537   5.110  19.714  0.00  0.00    +0.000 OA
ATOM     13  O   UNL     1       8.019   4.339  17.844  0.00  0.00    +0.000 OA
ENDBRANCH   1  10
BRANCH   1  14
ATOM     14  C   UNL     1       4.974   6.820  17.600  0.00  0.00    +0.000 C 
ATOM     15  C   UNL     1       4.681   7.662  16.351  0.00  0.00    +0.000 C 
BRANCH  14  16
ATOM     16  C   UNL     1       3.613   6.550  18.260  0.00  0.00    +0.000 C 
ATOM     17  O   UNL     1       2.589   6.501  17.574  0.00  0.00    +0.000 OA
ATOM     18  N   UNL     1       3.580   6.294  19.612  0.00  0.00    +0.000 N 
ATOM     19  H   UNL     1       4.296   6.757  20.163  0.00  0.00    +0.000 HD
BRANCH  18  20
ATOM     20  C   UNL     1       2.302   6.082  20.256  0.00  0.00    +0.000 C 
BRANCH  20  21
ATOM     21  C   UNL     1       1.959   4.622  20.350  0.00  0.00    +0.000 A 
ATOM     22  C   UNL     1       2.237   3.884  21.502  0.00  0.00    +0.000 A 
ATOM     23  C   UNL     1       1.887   2.543  21.530  0.00  0.00    +0.000 A 
ATOM     24  N   UNL     1       1.292   1.896  20.504  0.00  0.00    +0.000 NA
ATOM     25  C   UNL     1       1.039   2.625  19.397  0.00  0.00    +0.000 A 
ATOM     26  C   UNL     1       1.351   3.969  19.273  0.00  0.00    +0.000 A 
ENDBRANCH  20  21
ENDBRANCH  18  20
ENDBRANCH  14  16
ENDBRANCH   1  14
TORSDOF 6
ENDMDL
