MODEL 1
REMARK VINA RESULT:      -8.3      0.000      0.000
REMARK  Name = 
REMARK  6 active torsions:
REMARK  status: ('A' for Active; 'I' for Inactive)
REMARK    1  A    between atoms: C_2  and  C_10
REMARK    2  A    between atoms: N_3  and  C_4
REMARK    3  A    between atoms: C_4  and  C_5
REMARK    4  A    between atoms: C_10  and  N_18
REMARK    5  A    between atoms: C_11  and  C_12
REMARK    6  A    between atoms: C_19  and  C_21
REMARK                            x       y       z     vdW  Elec       q    Type
REMARK                         _______ _______ _______ _____ _____    ______ ____
ROOT
ATOM      1  C   UNL     1       4.077   4.143  17.341  0.00  0.00    +0.000 C 
ATOM      2  C   UNL     1       3.435   3.066  17.836  0.00  0.00    +0.000 C 
ENDROOT
BRANCH   2   3
ATOM      3  C   UNL     1       2.689   2.934  19.093  0.00  0.00    +0.000 A 
ATOM      4  C   UNL     1       3.387   2.601  20.260  0.00  0.00    +0.000 A 
ATOM      5  C   UNL     1       2.713   2.516  21.478  0.00  0.00    +0.000 A 
ATOM      6  C   UNL     1       1.342   2.764  21.536  0.00  0.00    +0.000 A 
ATOM      7  C   UNL     1       0.645   3.096  20.378  0.00  0.00    +0.000 A 
ATOM      8  C   UNL     1       1.318   3.192  19.156  0.00  0.00    +0.000 A 
ENDBRANCH   2   3
BRANCH   1  10
ATOM      9  O   UNL     1       5.170   5.685  18.852  0.00  0.00    +0.000 OA
ATOM     10  C   UNL     1       4.173   5.399  18.195  0.00  0.00    +0.000 C 
ATOM     11  N   UNL     1       3.081   6.242  18.179  0.00  0.00    +0.000 N 
ATOM     12  H   UNL     1       2.182   5.940  17.831  0.00  0.00    +0.000 HD
BRANCH  11  13
ATOM     13  C   UNL     1       3.112   7.373  19.088  0.00  0.00    +0.000 C 
BRANCH  13  14
ATOM     14  C   UNL     1       2.033   8.357  18.825  0.00  0.00    +0.000 A 
ATOM     15  C   UNL     1       1.569   8.908  17.647  0.00  0.00    +0.000 A 
ATOM     16  C   UNL     1       0.514   9.781  18.000  0.00  0.00    +0.000 A 
ATOM     17  C   UNL     1       0.404   9.711  19.369  0.00  0.00    +0.000 A 
ATOM     18  O   UNL     1       1.325   8.853  19.882  0.00  0.00    +0.000 OA
ENDBRANCH  13  14
ENDBRANCH  11  13
ENDBRANCH   1  10
BRANCH   1  19
ATOM     19  N   UNL     1       4.713   4.153  16.095  0.00  0.00    +0.000 N 
ATOM     20  C   UNL     1       6.082   4.192  15.861  0.00  0.00    +0.000 C 
ATOM     21  O   UNL     1       6.967   4.174  16.712  0.00  0.00    +0.000 OA
ATOM     22  H   UNL     1       4.095   4.259  15.299  0.00  0.00    +0.000 HD
BRANCH  20  23
ATOM     23  C   UNL     1       6.532   4.303  14.444  0.00  0.00    +0.000 A 
ATOM     24  C   UNL     1       5.893   3.491  13.491  0.00  0.00    +0.000 A 
ATOM     25  C   UNL     1       6.246   3.565  12.144  0.00  0.00    +0.000 A 
ATOM     26  C   UNL     1       7.236   4.458  11.738  0.00  0.00    +0.000 A 
ATOM     27  C   UNL     1       7.861   5.283  12.676  0.00  0.00    +0.000 A 
ATOM     28  C   UNL     1       7.510   5.212  14.028  0.00  0.00    +0.000 A 
ENDBRANCH  20  23
ENDBRANCH   1  19
TORSDOF 6
ENDMDL
MODEL 2
REMARK VINA RESULT:      -8.2      0.104      1.344
REMARK  Name = 
REMARK  6 active torsions:
REMARK  status: ('A' for Active; 'I' for Inactive)
REMARK    1  A    between atoms: C_2  and  C_10
REMARK    2  A    between atoms: N_3  and  C_4
REMARK    3  A    between atoms: C_4  and  C_5
REMARK    4  A    between atoms: C_10  and  N_18
REMARK    5  A    between atoms: C_11  and  C_12
REMARK    6  A    between atoms: C_19  and  C_21
REMARK                            x       y       z     vdW  Elec       q    Type
REMARK                         _______ _______ _______ _____ _____    ______ ____
ROOT
ATOM      1  C   UNL     1       4.050   4.196  17.318  0.00  0.00    +0.000 C 
ATOM      2  C   UNL     1       3.441   3.123  17.862  0.00  0.00    +0.000 C 
ENDROOT
BRANCH   2   3
ATOM      3  C   UNL     1       2.737   3.013  19.145  0.00  0.00    +0.000 A 
ATOM      4  C   UNL     1       1.349   3.189  19.171  0.00  0.00    +0.000 A 
ATOM      5  C   UNL     1       0.647   3.042  20.367  0.00  0.00    +0.000 A 
ATOM      6  C   UNL     1       1.327   2.717  21.540  0.00  0.00    +0.000 A 
ATOM      7  C   UNL     1       2.708   2.539  21.518  0.00  0.00    +0.000 A 
ATOM      8  C   UNL     1       3.415   2.676  20.320  0.00  0.00    +0.000 A 
ENDBRANCH   2   3
BRANCH   1  10
ATOM      9  O   UNL     1       5.201   5.861  18.643  0.00  0.00    +0.000 OA
ATOM     10  C   UNL     1       4.152   5.475  18.134  0.00  0.00    +0.000 C 
ATOM     11  N   UNL     1       2.998   6.222  18.261  0.00  0.00    +0.000 N 
ATOM     12  H   UNL     1       2.090   5.836  18.046  0.00  0.00    +0.000 HD
BRANCH  11  13
ATOM     13  C   UNL     1       3.056   7.373  19.143  0.00  0.00    +0.000 C 
BRANCH  13  14
ATOM     14  C   UNL     1       2.000   8.375  18.856  0.00  0.00    +0.000 A 
ATOM     15  C   UNL     1       1.558   8.919  17.666  0.00  0.00    +0.000 A 
ATOM     16  C   UNL     1       0.518   9.819  17.996  0.00  0.00    +0.000 A 
ATOM     17  C   UNL     1       0.394   9.770  19.366  0.00  0.00    +0.000 A 
ATOM     18  O   UNL     1       1.293   8.901  19.899  0.00  0.00    +0.000 OA
ENDBRANCH  13  14
ENDBRANCH  11  13
ENDBRANCH   1  10
BRANCH   1  19
ATOM     19  N   UNL     1       4.646   4.181  16.052  0.00  0.00    +0.000 N 
ATOM     20  C   UNL     1       6.007   4.170  15.775  0.00  0.00    +0.000 C 
ATOM     21  O   UNL     1       6.917   4.118  16.597  0.00  0.00    +0.000 OA
ATOM     22  H   UNL     1       4.007   4.311  15.277  0.00  0.00    +0.000 HD
BRANCH  20  23
ATOM     23  C   UNL     1       6.416   4.263  14.344  0.00  0.00    +0.000 A 
ATOM     24  C   UNL     1       7.432   5.175  14.014  0.00  0.00    +0.000 A 
ATOM     25  C   UNL     1       7.882   5.292  12.699  0.00  0.00    +0.000 A 
ATOM     26  C   UNL     1       7.325   4.490  11.705  0.00  0.00    +0.000 A 
ATOM     27  C   UNL     1       6.329   3.565  12.029  0.00  0.00    +0.000 A 
ATOM     28  C   UNL     1       5.874   3.445  13.347  0.00  0.00    +0.000 A 
ENDBRANCH  20  23
ENDBRANCH   1  19
TORSDOF 6
ENDMDL
MODEL 3
REMARK VINA RESULT:      -8.1      0.929      1.551
REMARK  Name = 
REMARK  6 active torsions:
REMARK  status: ('A' for Active; 'I' for Inactive)
REMARK    1  A    between atoms: C_2  and  C_10
REMARK    2  A    between atoms: N_3  and  C_4
REMARK    3  A    between atoms: C_4  and  C_5
REMARK    4  A    between atoms: C_10  and  N_18
REMARK    5  A    between atoms: C_11  and  C_12
REMARK    6  A    between atoms: C_19  and  C_21
REMARK                            x       y       z     vdW  Elec       q    Type
REMARK                         _______ _______ _______ _____ _____    ______ ____
ROOT
ATOM      1  C   UNL     1       4.004   4.153  17.209  0.00  0.00    +0.000 C 
ATOM      2  C   UNL     1       3.382   3.095  17.768  0.00  0.00    +0.000 C 
ENDROOT
BRANCH   2   3
ATOM      3  C   UNL     1       2.658   3.017  19.042  0.00  0.00    +0.000 A 
ATOM      4  C   UNL     1       3.380   2.774  20.216  0.00  0.00    +0.000 A 
ATOM      5  C   UNL     1       2.725   2.745  21.447  0.00  0.00    +0.000 A 
ATOM      6  C   UNL     1       1.349   2.958  21.511  0.00  0.00    +0.000 A 
ATOM      7  C   UNL     1       0.627   3.202  20.346  0.00  0.00    +0.000 A 
ATOM      8  C   UNL     1       1.280   3.242  19.110  0.00  0.00    +0.000 A 
ENDBRANCH   2   3
BRANCH   1  10
ATOM      9  O   UNL     1       4.924   5.636  18.884  0.00  0.00    +0.000 OA
ATOM     10  C   UNL     1       4.096   5.451  17.996  0.00  0.00    +0.000 C 
ATOM     11  N   UNL     1       3.212   6.451  17.645  0.00  0.00    +0.000 N 
ATOM     12  H   UNL     1       2.395   6.263  17.082  0.00  0.00    +0.000 HD
BRANCH  11  13
ATOM     13  C   UNL     1       3.207   7.642  18.474  0.00  0.00    +0.000 C 
BRANCH  13  14
ATOM     14  C   UNL     1       2.225   7.570  19.585  0.00  0.00    +0.000 A 
ATOM     15  C   UNL     1       1.880   6.536  20.432  0.00  0.00    +0.000 A 
ATOM     16  C   UNL     1       0.891   7.043  21.306  0.00  0.00    +0.000 A 
ATOM     17  C   UNL     1       0.693   8.353  20.934  0.00  0.00    +0.000 A 
ATOM     18  O   UNL     1       1.493   8.682  19.887  0.00  0.00    +0.000 OA
ENDBRANCH  13  14
ENDBRANCH  11  13
ENDBRANCH   1  10
BRANCH   1  19
ATOM     19  N   UNL     1       4.620   4.106  15.954  0.00  0.00    +0.000 N 
ATOM     20  C   UNL     1       5.981   4.207  15.694  0.00  0.00    +0.000 C 
ATOM     21  O   UNL     1       6.877   4.302  16.527  0.00  0.00    +0.000 OA
ATOM     22  H   UNL     1       3.986   4.117  15.165  0.00  0.00    +0.000 HD
BRANCH  20  23
ATOM     23  C   UNL     1       6.405   4.237  14.264  0.00  0.00    +0.000 A 
ATOM     24  C   UNL     1       7.424   5.134  13.904  0.00  0.00    +0.000 A 
ATOM     25  C   UNL     1       7.888   5.193  12.590  0.00  0.00    +0.000 A 
ATOM     26  C   UNL     1       7.340   4.348  11.627  0.00  0.00    +0.000 A 
ATOM     27  C   UNL     1       6.340   3.439  11.981  0.00  0.00    +0.000 A 
ATOM     28  C   UNL     1       5.872   3.377  13.298  0.00  0.00    +0.000 A 
ENDBRANCH  20  23
ENDBRANCH   1  19
TORSDOF 6
ENDMDL
MODEL 4
REMARK VINA RESULT:      -8.0      2.712      3.721
REMARK  Name = 
REMARK  6 active torsions:
REMARK  status: ('A' for Active; 'I' for Inactive)
REMARK    1  A    between atoms: C_2  and  C_10
REMARK    2  A    between atoms: N_3  and  C_4
REMARK    3  A    between atoms: C_4  and  C_5
REMARK    4  A    between atoms: C_10  and  N_18
REMARK    5  A    between atoms: C_11  and  C_12
REMARK    6  A    between atoms: C_19  and  C_21
REMARK                            x       y       z     vdW  Elec       q    Type
REMARK                         _______ _______ _______ _____ _____    ______ ____
ROOT
ATOM      1  C   UNL     1       4.801   3.806  17.532  0.00  0.00    +0.000 C 
ATOM      2  C   UNL     1       3.695   3.153  17.943  0.00  0.00    +0.000 C 
ENDROOT
BRANCH   2   3
ATOM      3  C   UNL     1       3.011   3.221  19.239  0.00  0.00    +0.000 A 
ATOM      4  C   UNL     1       1.852   3.997  19.351  0.00  0.00    +0.000 A 
ATOM      5  C   UNL     1       1.153   4.041  20.557  0.00  0.00    +0.000 A 
ATOM      6  C   UNL     1       1.608   3.312  21.654  0.00  0.00    +0.000 A 
ATOM      7  C   UNL     1       2.760   2.538  21.547  0.00  0.00    +0.000 A 
ATOM      8  C   UNL     1       3.458   2.482  20.338  0.00  0.00    +0.000 A 
ENDBRANCH   2   3
BRANCH   1  10
ATOM      9  O   UNL     1       4.997   5.333  19.398  0.00  0.00    +0.000 OA
ATOM     10  C   UNL     1       5.557   4.670  18.529  0.00  0.00    +0.000 C 
ATOM     11  N   UNL     1       6.934   4.659  18.438  0.00  0.00    +0.000 N 
ATOM     12  H   UNL     1       7.409   4.306  17.620  0.00  0.00    +0.000 HD
BRANCH  11  13
ATOM     13  C   UNL     1       7.656   5.577  19.299  0.00  0.00    +0.000 C 
BRANCH  13  14
ATOM     14  C   UNL     1       7.875   6.905  18.674  0.00  0.00    +0.000 A 
ATOM     15  C   UNL     1       7.364   7.465  17.519  0.00  0.00    +0.000 A 
ATOM     16  C   UNL     1       7.914   8.765  17.425  0.00  0.00    +0.000 A 
ATOM     17  C   UNL     1       8.728   8.914  18.524  0.00  0.00    +0.000 A 
ATOM     18  O   UNL     1       8.717   7.789  19.286  0.00  0.00    +0.000 OA
ENDBRANCH  13  14
ENDBRANCH  11  13
ENDBRANCH   1  10
BRANCH   1  19
ATOM     19  N   UNL     1       5.326   3.690  16.240  0.00  0.00    +0.000 N 
ATOM     20  C   UNL     1       5.447   4.705  15.299  0.00  0.00    +0.000 C 
ATOM     21  O   UNL     1       5.160   5.887  15.462  0.00  0.00    +0.000 OA
ATOM     22  H   UNL     1       5.523   2.743  15.941  0.00  0.00    +0.000 HD
BRANCH  20  23
ATOM     23  C   UNL     1       5.942   4.327  13.944  0.00  0.00    +0.000 A 
ATOM     24  C   UNL     1       7.130   4.926  13.492  0.00  0.00    +0.000 A 
ATOM     25  C   UNL     1       7.662   4.596  12.246  0.00  0.00    +0.000 A 
ATOM     26  C   UNL     1       7.015   3.657  11.446  0.00  0.00    +0.000 A 
ATOM     27  C   UNL     1       5.845   3.041  11.897  0.00  0.00    +0.000 A 
ATOM     28  C   UNL     1       5.307   3.370  13.146  0.00  0.00    +0.000 A 
ENDBRANCH  20  23
ENDBRANCH   1  19
TORSDOF 6
ENDMDL
MODEL 5
REMARK VINA RESULT:      -7.9      1.021      1.592
REMARK  Name = 
REMARK  6 active torsions:
REMARK  status: ('A' for Active; 'I' for Inactive)
REMARK    1  A    between atoms: C_2  and  C_10
REMARK    2  A    between atoms: N_3  and  C_4
REMARK    3  A    between atoms: C_4  and  C_5
REMARK    4  A    between atoms: C_10  and  N_18
REMARK    5  A    between atoms: C_11  and  C_12
REMARK    6  A    between atoms: C_19  and  C_21
REMARK                            x       y       z     vdW  Elec       q    Type
REMARK                         _______ _______ _______ _____ _____    ______ ____
ROOT
ATOM      1  C   UNL     1       4.113   4.313  17.180  0.00  0.00    +0.000 C 
ATOM      2  C   UNL     1       3.521   3.248  17.757  0.00  0.00    +0.000 C 
ENDROOT
BRANCH   2   3
ATOM      3  C   UNL     1       2.780   3.177  19.021  0.00  0.00    +0.000 A 
ATOM      4  C   UNL     1       1.385   3.295  18.994  0.00  0.00    +0.000 A 
ATOM      5  C   UNL     1       0.649   3.182  20.173  0.00  0.00    +0.000 A 
ATOM      6  C   UNL     1       1.302   2.951  21.383  0.00  0.00    +0.000 A 
ATOM      7  C   UNL     1       2.689   2.832  21.415  0.00  0.00    +0.000 A 
ATOM      8  C   UNL     1       3.430   2.935  20.234  0.00  0.00    +0.000 A 
ENDBRANCH   2   3
BRANCH   1  10
ATOM      9  O   UNL     1       4.998   5.897  18.780  0.00  0.00    +0.000 OA
ATOM     10  C   UNL     1       4.148   5.633  17.935  0.00  0.00    +0.000 C 
ATOM     11  N   UNL     1       3.180   6.560  17.604  0.00  0.00    +0.000 N 
ATOM     12  H   UNL     1       2.355   6.302  17.082  0.00  0.00    +0.000 HD
BRANCH  11  13
ATOM     13  C   UNL     1       3.127   7.768  18.407  0.00  0.00    +0.000 C 
BRANCH  13  14
ATOM     14  C   UNL     1       2.184   7.662  19.548  0.00  0.00    +0.000 A 
ATOM     15  C   UNL     1       1.371   8.603  20.149  0.00  0.00    +0.000 A 
ATOM     16  C   UNL     1       0.680   7.935  21.186  0.00  0.00    +0.000 A 
ATOM     17  C   UNL     1       1.119   6.631  21.156  0.00  0.00    +0.000 A 
ATOM     18  O   UNL     1       2.036   6.455  20.169  0.00  0.00    +0.000 OA
ENDBRANCH  13  14
ENDBRANCH  11  13
ENDBRANCH   1  10
BRANCH   1  19
ATOM     19  N   UNL     1       4.751   4.257  15.936  0.00  0.00    +0.000 N 
ATOM     20  C   UNL     1       6.120   4.278  15.703  0.00  0.00    +0.000 C 
ATOM     21  O   UNL     1       7.003   4.299  16.554  0.00  0.00    +0.000 OA
ATOM     22  H   UNL     1       4.134   4.326  15.135  0.00  0.00    +0.000 HD
BRANCH  20  23
ATOM     23  C   UNL     1       6.573   4.315  14.282  0.00  0.00    +0.000 A 
ATOM     24  C   UNL     1       5.952   3.439  13.377  0.00  0.00    +0.000 A 
ATOM     25  C   UNL     1       6.308   3.441  12.028  0.00  0.00    +0.000 A 
ATOM     26  C   UNL     1       7.282   4.327  11.574  0.00  0.00    +0.000 A 
ATOM     27  C   UNL     1       7.889   5.215  12.464  0.00  0.00    +0.000 A 
ATOM     28  C   UNL     1       7.536   5.216  13.817  0.00  0.00    +0.000 A 
ENDBRANCH  20  23
ENDBRANCH   1  19
TORSDOF 6
ENDMDL
MODEL 6
REMARK VINA RESULT:      -7.8      1.892      7.455
REMARK  Name = 
REMARK  6 active torsions:
REMARK  status: ('A' for Active; 'I' for Inactive)
REMARK    1  A    between atoms: C_2  and  C_10
REMARK    2  A    between atoms: N_3  and  C_4
REMARK    3  A    between atoms: C_4  and  C_5
REMARK    4  A    between atoms: C_10  and  N_18
REMARK    5  A    between atoms: C_11  and  C_12
REMARK    6  A    between atoms: C_19  and  C_21
REMARK                            x       y       z     vdW  Elec       q    Type
REMARK                         _______ _______ _______ _____ _____    ______ ____
ROOT
ATOM      1  C   UNL     1       2.291   5.991  19.922  0.00  0.00    +0.000 C 
ATOM      2  C   UNL     1       1.850   4.719  19.993  0.00  0.00    +0.000 C 
ENDROOT
BRANCH   2   3
ATOM      3  C   UNL     1       2.469   3.497  19.467  0.00  0.00    +0.000 A 
ATOM      4  C   UNL     1       2.034   2.996  18.234  0.00  0.00    +0.000 A 
ATOM      5  C   UNL     1       2.638   1.866  17.685  0.00  0.00    +0.000 A 
ATOM      6  C   UNL     1       3.677   1.231  18.363  0.00  0.00    +0.000 A 
ATOM      7  C   UNL     1       4.115   1.726  19.589  0.00  0.00    +0.000 A 
ATOM      8  C   UNL     1       3.519   2.865  20.138  0.00  0.00    +0.000 A 
ENDBRANCH   2   3
BRANCH   1  10
ATOM      9  O   UNL     1       4.668   6.297  19.599  0.00  0.00    +0.000 OA
ATOM     10  C   UNL     1       3.542   6.291  19.111  0.00  0.00    +0.000 C 
ATOM     11  N   UNL     1       3.362   6.534  17.764  0.00  0.00    +0.000 N 
ATOM     12  H   UNL     1       2.453   6.747  17.380  0.00  0.00    +0.000 HD
BRANCH  11  13
ATOM     13  C   UNL     1       4.532   6.948  17.011  0.00  0.00    +0.000 C 
BRANCH  13  14
ATOM     14  C   UNL     1       5.208   5.818  16.327  0.00  0.00    +0.000 A 
ATOM     15  C   UNL     1       4.921   4.468  16.293  0.00  0.00    +0.000 A 
ATOM     16  C   UNL     1       5.901   3.867  15.470  0.00  0.00    +0.000 A 
ATOM     17  C   UNL     1       6.727   4.888  15.057  0.00  0.00    +0.000 A 
ATOM     18  O   UNL     1       6.319   6.076  15.576  0.00  0.00    +0.000 OA
ENDBRANCH  13  14
ENDBRANCH  11  13
ENDBRANCH   1  10
BRANCH   1  19
ATOM     19  N   UNL     1       1.624   7.069  20.516  0.00  0.00    +0.000 N 
ATOM     20  C   UNL     1       1.384   8.312  19.945  0.00  0.00    +0.000 C 
ATOM     21  O   UNL     1       1.672   8.657  18.803  0.00  0.00    +0.000 OA
ATOM     22  H   UNL     1       1.408   6.950  21.498  0.00  0.00    +0.000 HD
BRANCH  20  23
ATOM     23  C   UNL     1       0.745   9.350  20.805  0.00  0.00    +0.000 A 
ATOM     24  C   UNL     1       0.193   8.933  22.028  0.00  0.00    +0.000 A 
ATOM     25  C   UNL     1      -0.394   9.856  22.894  0.00  0.00    +0.000 A 
ATOM     26  C   UNL     1      -0.426  11.204  22.546  0.00  0.00    +0.000 A 
ATOM     27  C   UNL     1       0.139  11.629  21.341  0.00  0.00    +0.000 A 
ATOM     28  C   UNL     1       0.729  10.707  20.470  0.00  0.00    +0.000 A 
ENDBRANCH  20  23
ENDBRANCH   1  19
TORSDOF 6
ENDMDL
MODEL 7
REMARK VINA RESULT:      -7.6      2.527      7.585
REMARK  Name = 
REMARK  6 active torsions:
REMARK  status: ('A' for Active; 'I' for Inactive)
REMARK    1  A    between atoms: C_2  and  C_10
REMARK    2  A    between atoms: N_3  and  C_4
REMARK    3  A    between atoms: C_4  and  C_5
REMARK    4  A    between atoms: C_10  and  N_18
REMARK    5  A    between atoms: C_11  and  C_12
REMARK    6  A    between atoms: C_19  and  C_21
REMARK                            x       y       z     vdW  Elec       q    Type
REMARK                         _______ _______ _______ _____ _____    ______ ____
ROOT
ATOM      1  C   UNL     1       2.876   7.431  17.847  0.00  0.00    +0.000 C 
ATOM      2  C   UNL     1       4.056   7.447  17.195  0.00  0.00    +0.000 C 
ENDROOT
BRANCH   2   3
ATOM      3  C   UNL     1       5.111   6.428  17.171  0.00  0.00    +0.000 A 
ATOM      4  C   UNL     1       4.874   5.227  16.492  0.00  0.00    +0.000 A 
ATOM      5  C   UNL     1       5.876   4.261  16.409  0.00  0.00    +0.000 A 
ATOM      6  C   UNL     1       7.116   4.488  17.004  0.00  0.00    +0.000 A 
ATOM      7  C   UNL     1       7.356   5.682  17.679  0.00  0.00    +0.000 A 
ATOM      8  C   UNL     1       6.359   6.658  17.756  0.00  0.00    +0.000 A 
ENDBRANCH   2   3
BRANCH   1  10
ATOM      9  O   UNL     1       3.052   6.191  19.917  0.00  0.00    +0.000 OA
ATOM     10  C   UNL     1       2.573   6.276  18.790  0.00  0.00    +0.000 C 
ATOM     11  N   UNL     1       1.693   5.318  18.330  0.00  0.00    +0.000 N 
ATOM     12  H   UNL     1       1.454   5.242  17.352  0.00  0.00    +0.000 HD
BRANCH  11  13
ATOM     13  C   UNL     1       1.499   4.150  19.169  0.00  0.00    +0.000 C 
BRANCH  13  14
ATOM     14  C   UNL     1       2.499   3.082  18.915  0.00  0.00    +0.000 A 
ATOM     15  C   UNL     1       2.673   2.233  17.841  0.00  0.00    +0.000 A 
ATOM     16  C   UNL     1       3.796   1.428  18.141  0.00  0.00    +0.000 A 
ATOM     17  C   UNL     1       4.234   1.835  19.381  0.00  0.00    +0.000 A 
ATOM     18  O   UNL     1       3.450   2.835  19.863  0.00  0.00    +0.000 OA
ENDBRANCH  13  14
ENDBRANCH  11  13
ENDBRANCH   1  10
BRANCH   1  19
ATOM     19  N   UNL     1       1.927   8.455  17.745  0.00  0.00    +0.000 N 
ATOM     20  C   UNL     1       1.334   9.144  18.794  0.00  0.00    +0.000 C 
ATOM     21  O   UNL     1       1.580   9.006  19.989  0.00  0.00    +0.000 OA
ATOM     22  H   UNL     1       1.566   8.612  16.812  0.00  0.00    +0.000 HD
BRANCH  20  23
ATOM     23  C   UNL     1       0.266  10.128  18.451  0.00  0.00    +0.000 A 
ATOM     24  C   UNL     1      -0.848   9.658  17.736  0.00  0.00    +0.000 A 
ATOM     25  C   UNL     1      -1.896  10.518  17.408  0.00  0.00    +0.000 A 
ATOM     26  C   UNL     1      -1.841  11.854  17.801  0.00  0.00    +0.000 A 
ATOM     27  C   UNL     1      -0.746  12.323  18.530  0.00  0.00    +0.000 A 
ATOM     28  C   UNL     1       0.307  11.464  18.861  0.00  0.00    +0.000 A 
ENDBRANCH  20  23
ENDBRANCH   1  19
TORSDOF 6
ENDMDL
MODEL 8
REMARK VINA RESULT:      -7.6      1.950      7.460
REMARK  Name = 
REMARK  6 active torsions:
REMARK  status: ('A' for Active; 'I' for Inactive)
REMARK    1  A    between atoms: C_2  and  C_10
REMARK    2  A    between atoms: N_3  and  C_4
REMARK    3  A    between atoms: C_4  and  C_5
REMARK    4  A    between atoms: C_10  and  N_18
REMARK    5  A    between atoms: C_11  and  C_12
REMARK    6  A    between atoms: C_19  and  C_21
REMARK                            x       y       z     vdW  Elec       q    Type
REMARK                         _______ _______ _______ _____ _____    ______ ____
ROOT
ATOM      1  C   UNL     1       2.273   5.987  19.981  0.00  0.00    +0.000 C 
ATOM      2  C   UNL     1       1.852   4.707  20.032  0.00  0.00    +0.000 C 
ENDROOT
BRANCH   2   3
ATOM      3  C   UNL     1       2.473   3.509  19.457  0.00  0.00    +0.000 A 
ATOM      4  C   UNL     1       3.513   2.885  20.156  0.00  0.00    +0.000 A 
ATOM      5  C   UNL     1       4.089   1.716  19.658  0.00  0.00    +0.000 A 
ATOM      6  C   UNL     1       3.629   1.166  18.463  0.00  0.00    +0.000 A 
ATOM      7  C   UNL     1       2.594   1.782  17.764  0.00  0.00    +0.000 A 
ATOM      8  C   UNL     1       2.007   2.949  18.264  0.00  0.00    +0.000 A 
ENDBRANCH   2   3
BRANCH   1  10
ATOM      9  O   UNL     1       4.632   6.369  19.606  0.00  0.00    +0.000 OA
ATOM     10  C   UNL     1       3.495   6.327  19.143  0.00  0.00    +0.000 C 
ATOM     11  N   UNL     1       3.279   6.563  17.800  0.00  0.00    +0.000 N 
ATOM     12  H   UNL     1       2.355   6.746  17.436  0.00  0.00    +0.000 HD
BRANCH  11  13
ATOM     13  C   UNL     1       4.418   7.012  17.022  0.00  0.00    +0.000 C 
BRANCH  13  14
ATOM     14  C   UNL     1       5.078   5.913  16.274  0.00  0.00    +0.000 A 
ATOM     15  C   UNL     1       5.023   4.542  16.430  0.00  0.00    +0.000 A 
ATOM     16  C   UNL     1       5.849   3.989  15.425  0.00  0.00    +0.000 A 
ATOM     17  C   UNL     1       6.359   5.056  14.722  0.00  0.00    +0.000 A 
ATOM     18  O   UNL     1       5.902   6.230  15.233  0.00  0.00    +0.000 OA
ENDBRANCH  13  14
ENDBRANCH  11  13
ENDBRANCH   1  10
BRANCH   1  19
ATOM     19  N   UNL     1       1.609   7.040  20.621  0.00  0.00    +0.000 N 
ATOM     20  C   UNL     1       1.354   8.301  20.098  0.00  0.00    +0.000 C 
ATOM     21  O   UNL     1       1.625   8.688  18.966  0.00  0.00    +0.000 OA
ATOM     22  H   UNL     1       1.406   6.885  21.602  0.00  0.00    +0.000 HD
BRANCH  20  23
ATOM     23  C   UNL     1       0.722   9.304  21.003  0.00  0.00    +0.000 A 
ATOM     24  C   UNL     1       0.692  10.642  20.576  0.00  0.00    +0.000 A 
ATOM     25  C   UNL     1       0.091  11.625  21.361  0.00  0.00    +0.000 A 
ATOM     26  C   UNL     1      -0.495  11.276  22.576  0.00  0.00    +0.000 A 
ATOM     27  C   UNL     1      -0.488   9.944  22.998  0.00  0.00    +0.000 A 
ATOM     28  C   UNL     1       0.115   8.954  22.214  0.00  0.00    +0.000 A 
ENDBRANCH  20  23
ENDBRANCH   1  19
TORSDOF 6
ENDMDL
MODEL 9
REMARK VINA RESULT:      -7.6      2.458      7.642
REMARK  Name = 
REMARK  6 active torsions:
REMARK  status: ('A' for Active; 'I' for Inactive)
REMARK    1  A    between atoms: C_2  and  C_10
REMARK    2  A    between atoms: N_3  and  C_4
REMARK    3  A    between atoms: C_4  and  C_5
REMARK    4  A    between atoms: C_10  and  N_18
REMARK    5  A    between atoms: C_11  and  C_12
REMARK    6  A    between atoms: C_19  and  C_21
REMARK                            x       y       z     vdW  Elec       q    Type
REMARK                         _______ _______ _______ _____ _____    ______ ____
ROOT
ATOM      1  C   UNL     1       3.118   7.582  17.759  0.00  0.00    +0.000 C 
ATOM      2  C   UNL     1       4.330   7.584  17.169  0.00  0.00    +0.000 C 
ENDROOT
BRANCH   2   3
ATOM      3  C   UNL     1       5.269   6.472  16.987  0.00  0.00    +0.000 A 
ATOM      4  C   UNL     1       5.153   5.670  15.845  0.00  0.00    +0.000 A 
ATOM      5  C   UNL     1       6.062   4.637  15.620  0.00  0.00    +0.000 A 
ATOM      6  C   UNL     1       7.090   4.400  16.531  0.00  0.00    +0.000 A 
ATOM      7  C   UNL     1       7.210   5.196  17.667  0.00  0.00    +0.000 A 
ATOM      8  C   UNL     1       6.308   6.240  17.892  0.00  0.00    +0.000 A 
ENDBRANCH   2   3
BRANCH   1  10
ATOM      9  O   UNL     1       1.862   5.520  17.912  0.00  0.00    +0.000 OA
ATOM     10  C   UNL     1       2.636   6.312  18.443  0.00  0.00    +0.000 C 
ATOM     11  N   UNL     1       3.136   6.061  19.705  0.00  0.00    +0.000 N 
ATOM     12  H   UNL     1       3.592   6.780  20.248  0.00  0.00    +0.000 HD
BRANCH  11  13
ATOM     13  C   UNL     1       2.583   4.922  20.415  0.00  0.00    +0.000 C 
BRANCH  13  14
ATOM     14  C   UNL     1       2.940   3.623  19.791  0.00  0.00    +0.000 A 
ATOM     15  C   UNL     1       4.158   3.104  19.398  0.00  0.00    +0.000 A 
ATOM     16  C   UNL     1       3.897   1.817  18.876  0.00  0.00    +0.000 A 
ATOM     17  C   UNL     1       2.537   1.633  18.980  0.00  0.00    +0.000 A 
ATOM     18  O   UNL     1       1.945   2.725  19.529  0.00  0.00    +0.000 OA
ENDBRANCH  13  14
ENDBRANCH  11  13
ENDBRANCH   1  10
BRANCH   1  19
ATOM     19  N   UNL     1       2.292   8.710  17.823  0.00  0.00    +0.000 N 
ATOM     20  C   UNL     1       1.536   9.125  18.911  0.00  0.00    +0.000 C 
ATOM     21  O   UNL     1       1.504   8.598  20.019  0.00  0.00    +0.000 OA
ATOM     22  H   UNL     1       2.156   9.191  16.942  0.00  0.00    +0.000 HD
BRANCH  20  23
ATOM     23  C   UNL     1       0.644  10.305  18.717  0.00  0.00    +0.000 A 
ATOM     24  C   UNL     1       1.205  11.581  18.890  0.00  0.00    +0.000 A 
ATOM     25  C   UNL     1       0.434  12.727  18.695  0.00  0.00    +0.000 A 
ATOM     26  C   UNL     1      -0.901  12.605  18.318  0.00  0.00    +0.000 A 
ATOM     27  C   UNL     1      -1.460  11.339  18.124  0.00  0.00    +0.000 A 
ATOM     28  C   UNL     1      -0.691  10.187  18.318  0.00  0.00    +0.000 A 
ENDBRANCH  20  23
ENDBRANCH   1  19
TORSDOF 6
ENDMDL
