MODEL 1
REMARK VINA RESULT:      -7.1      0.000      0.000
REMARK  Name = 
REMARK  4 active torsions:
REMARK  status: ('A' for Active; 'I' for Inactive)
REMARK    1  A    between atoms: C_1  and  N_2
REMARK    2  A    between atoms: C_6  and  C_7
REMARK    3  A    between atoms: C_7  and  N_8
REMARK    4  A    between atoms: C_9  and  C_11
REMARK                            x       y       z     vdW  Elec       q    Type
REMARK                         _______ _______ _______ _____ _____    ______ ____
ROOT
ATOM      1  N   UNL     1       3.685   5.735  19.745  0.00  0.00    +0.000 N 
ATOM      2  C   UNL     1       2.664   6.147  18.919  0.00  0.00    +0.000 C 
ATOM      3  O   UNL     1       2.275   5.438  17.994  0.00  0.00    +0.000 OA
ATOM      4  H   UNL     1       4.062   6.386  20.425  0.00  0.00    +0.000 HD
ENDROOT
BRANCH   2   5
ATOM      5  C   UNL     1       2.080   7.449  19.226  0.00  0.00    +0.000 A 
ATOM      6  C   UNL     1       1.581   7.872  20.443  0.00  0.00    +0.000 A 
ATOM      7  C   UNL     1       1.123   9.241  20.443  0.00  0.00    +0.000 A 
ATOM      8  C   UNL     1       0.575  10.079  21.446  0.00  0.00    +0.000 A 
ATOM      9 CL   UNL     1       0.393   9.395  23.005  0.00  0.00    +0.000 Cl
ATOM     10  C   UNL     1       0.206  11.401  21.199  0.00  0.00    +0.000 A 
ATOM     11  C   UNL     1       0.372  11.927  19.927  0.00  0.00    +0.000 A 
ATOM     12  C   UNL     1       0.905  11.141  18.901  0.00  0.00    +0.000 A 
ATOM     13  C   UNL     1       1.277   9.806  19.172  0.00  0.00    +0.000 A 
ATOM     14  S   UNL     1       1.956   8.687  18.058  0.00  0.00    +0.000 S 
ENDBRANCH   2   5
BRANCH   1  15
ATOM     15  C   UNL     1       4.368   4.477  19.564  0.00  0.00    +0.000 C 
BRANCH  15  21
ATOM     16  C   UNL     1       5.378   4.118  16.628  0.00  0.00    +0.000 C 
ATOM     17  N   UNL     1       6.146   4.592  17.748  0.00  0.00    +0.000 N 
ATOM     18  C   UNL     1       7.453   4.970  17.711  0.00  0.00    +0.000 A 
ATOM     19  N   UNL     1       7.840   5.330  18.911  0.00  0.00    +0.000 NA
ATOM     20  N   UNL     1       6.763   5.191  19.753  0.00  0.00    +0.000 NA
ATOM     21  C   UNL     1       5.737   4.750  19.047  0.00  0.00    +0.000 A 
ENDBRANCH  15  21
ENDBRANCH   1  15
TORSDOF 3
ENDMDL
MODEL 2
REMARK VINA RESULT:      -7.0      1.069      1.082
REMARK  Name = 
REMARK  4 active torsions:
REMARK  status: ('A' for Active; 'I' for Inactive)
REMARK    1  A    between atoms: C_1  and  N_2
REMARK    2  A    between atoms: C_6  and  C_7
REMARK    3  A    between atoms: C_7  and  N_8
REMARK    4  A    between atoms: C_9  and  C_11
REMARK                            x       y       z     vdW  Elec       q    Type
REMARK                         _______ _______ _______ _____ _____    ______ ____
ROOT
ATOM      1  N   UNL     1       3.264   5.371  18.103  0.00  0.00    +0.000 N 
ATOM      2  C   UNL     1       2.856   5.731  19.367  0.00  0.00    +0.000 C 
ATOM      3  O   UNL     1       3.030   4.979  20.324  0.00  0.00    +0.000 OA
ATOM      4  H   UNL     1       3.005   5.958  17.317  0.00  0.00    +0.000 HD
ENDROOT
BRANCH   2   5
ATOM      5  C   UNL     1       2.232   7.044  19.489  0.00  0.00    +0.000 A 
ATOM      6  C   UNL     1       1.644   7.587  20.615  0.00  0.00    +0.000 A 
ATOM      7  C   UNL     1       1.167   8.936  20.433  0.00  0.00    +0.000 A 
ATOM      8  C   UNL     1       0.538   9.866  21.298  0.00  0.00    +0.000 A 
ATOM      9 CL   UNL     1       0.259   9.352  22.908  0.00  0.00    +0.000 Cl
ATOM     10  C   UNL     1       0.167  11.145  20.883  0.00  0.00    +0.000 A 
ATOM     11  C   UNL     1       0.413  11.532  19.575  0.00  0.00    +0.000 A 
ATOM     12  C   UNL     1       1.027  10.651  18.680  0.00  0.00    +0.000 A 
ATOM     13  C   UNL     1       1.399   9.362  19.121  0.00  0.00    +0.000 A 
ATOM     14  S   UNL     1       2.171   8.144  18.185  0.00  0.00    +0.000 S 
ENDBRANCH   2   5
BRANCH   1  15
ATOM     15  C   UNL     1       3.889   4.102  17.822  0.00  0.00    +0.000 C 
BRANCH  15  21
ATOM     16  C   UNL     1       5.695   4.377  15.286  0.00  0.00    +0.000 C 
ATOM     17  N   UNL     1       6.127   4.422  16.658  0.00  0.00    +0.000 N 
ATOM     18  C   UNL     1       7.409   4.599  17.080  0.00  0.00    +0.000 A 
ATOM     19  N   UNL     1       7.447   4.572  18.391  0.00  0.00    +0.000 NA
ATOM     20  N   UNL     1       6.163   4.378  18.839  0.00  0.00    +0.000 NA
ATOM     21  C   UNL     1       5.364   4.294  17.789  0.00  0.00    +0.000 A 
ENDBRANCH  15  21
ENDBRANCH   1  15
TORSDOF 3
ENDMDL
MODEL 3
REMARK VINA RESULT:      -6.9      2.906      4.097
REMARK  Name = 
REMARK  4 active torsions:
REMARK  status: ('A' for Active; 'I' for Inactive)
REMARK    1  A    between atoms: C_1  and  N_2
REMARK    2  A    between atoms: C_6  and  C_7
REMARK    3  A    between atoms: C_7  and  N_8
REMARK    4  A    between atoms: C_9  and  C_11
REMARK                            x       y       z     vdW  Elec       q    Type
REMARK                         _______ _______ _______ _____ _____    ______ ____
ROOT
ATOM      1  N   UNL     1       4.973   4.357  16.494  0.00  0.00    +0.000 N 
ATOM      2  C   UNL     1       4.065   3.917  17.429  0.00  0.00    +0.000 C 
ATOM      3  O   UNL     1       3.835   2.717  17.571  0.00  0.00    +0.000 OA
ATOM      4  H   UNL     1       5.057   5.353  16.320  0.00  0.00    +0.000 HD
ENDROOT
BRANCH   2   5
ATOM      5  C   UNL     1       3.422   4.951  18.233  0.00  0.00    +0.000 A 
ATOM      6  C   UNL     1       3.168   6.258  17.862  0.00  0.00    +0.000 A 
ATOM      7  C   UNL     1       2.462   7.022  18.862  0.00  0.00    +0.000 A 
ATOM      8  C   UNL     1       1.982   8.355  18.901  0.00  0.00    +0.000 A 
ATOM      9 CL   UNL     1       2.259   9.314  17.510  0.00  0.00    +0.000 Cl
ATOM     10  C   UNL     1       1.307   8.877  20.004  0.00  0.00    +0.000 A 
ATOM     11  C   UNL     1       1.093   8.072  21.113  0.00  0.00    +0.000 A 
ATOM     12  C   UNL     1       1.549   6.751  21.126  0.00  0.00    +0.000 A 
ATOM     13  C   UNL     1       2.227   6.240  19.998  0.00  0.00    +0.000 A 
ATOM     14  S   UNL     1       2.851   4.649  19.813  0.00  0.00    +0.000 S 
ENDBRANCH   2   5
BRANCH   1  15
ATOM     15  C   UNL     1       5.682   3.456  15.618  0.00  0.00    +0.000 C 
BRANCH  15  21
ATOM     16  C   UNL     1       5.879   3.370  12.500  0.00  0.00    +0.000 C 
ATOM     17  N   UNL     1       6.651   4.200  13.387  0.00  0.00    +0.000 N 
ATOM     18  C   UNL     1       7.601   5.097  13.007  0.00  0.00    +0.000 A 
ATOM     19  N   UNL     1       8.116   5.667  14.070  0.00  0.00    +0.000 NA
ATOM     20  N   UNL     1       7.487   5.137  15.171  0.00  0.00    +0.000 NA
ATOM     21  C   UNL     1       6.597   4.253  14.755  0.00  0.00    +0.000 A 
ENDBRANCH  15  21
ENDBRANCH   1  15
TORSDOF 3
ENDMDL
MODEL 4
REMARK VINA RESULT:      -6.8      3.396      7.429
REMARK  Name = 
REMARK  4 active torsions:
REMARK  status: ('A' for Active; 'I' for Inactive)
REMARK    1  A    between atoms: C_1  and  N_2
REMARK    2  A    between atoms: C_6  and  C_7
REMARK    3  A    between atoms: C_7  and  N_8
REMARK    4  A    between atoms: C_9  and  C_11
REMARK                            x       y       z     vdW  Elec       q    Type
REMARK                         _______ _______ _______ _____ _____    ______ ____
ROOT
ATOM      1  N   UNL     1       2.063   7.210  20.447  0.00  0.00    +0.000 N 
ATOM      2  C   UNL     1       2.191   5.871  20.160  0.00  0.00    +0.000 C 
ATOM      3  O   UNL     1       1.445   5.040  20.674  0.00  0.00    +0.000 OA
ATOM      4  H   UNL     1       2.763   7.857  20.101  0.00  0.00    +0.000 HD
ENDROOT
BRANCH   2   5
ATOM      5  C   UNL     1       3.242   5.518  19.211  0.00  0.00    +0.000 A 
ATOM      6  C   UNL     1       4.604   5.677  19.379  0.00  0.00    +0.000 A 
ATOM      7  C   UNL     1       5.391   5.174  18.278  0.00  0.00    +0.000 A 
ATOM      8  C   UNL     1       6.786   5.105  18.037  0.00  0.00    +0.000 A 
ATOM      9 CL   UNL     1       7.810   5.724  19.262  0.00  0.00    +0.000 Cl
ATOM     10  C   UNL     1       7.319   4.554  16.872  0.00  0.00    +0.000 A 
ATOM     11  C   UNL     1       6.463   4.056  15.902  0.00  0.00    +0.000 A 
ATOM     12  C   UNL     1       5.079   4.104  16.089  0.00  0.00    +0.000 A 
ATOM     13  C   UNL     1       4.558   4.661  17.278  0.00  0.00    +0.000 A 
ATOM     14  S   UNL     1       2.897   4.801  17.701  0.00  0.00    +0.000 S 
ENDBRANCH   2   5
BRANCH   1  15
ATOM     15  C   UNL     1       1.077   7.714  21.373  0.00  0.00    +0.000 C 
BRANCH  15  21
ATOM     16  C   UNL     1      -0.387   9.849  23.124  0.00  0.00    +0.000 C 
ATOM     17  N   UNL     1       0.088  10.022  21.777  0.00  0.00    +0.000 N 
ATOM     18  C   UNL     1      -0.020  11.160  21.038  0.00  0.00    +0.000 A 
ATOM     19  N   UNL     1       0.503  10.963  19.851  0.00  0.00    +0.000 NA
ATOM     20  N   UNL     1       0.968   9.672  19.812  0.00  0.00    +0.000 NA
ATOM     21  C   UNL     1       0.722   9.105  20.979  0.00  0.00    +0.000 A 
ENDBRANCH  15  21
ENDBRANCH   1  15
TORSDOF 3
ENDMDL
MODEL 5
REMARK VINA RESULT:      -6.8      2.559      3.625
REMARK  Name = 
REMARK  4 active torsions:
REMARK  status: ('A' for Active; 'I' for Inactive)
REMARK    1  A    between atoms: C_1  and  N_2
REMARK    2  A    between atoms: C_6  and  C_7
REMARK    3  A    between atoms: C_7  and  N_8
REMARK    4  A    between atoms: C_9  and  C_11
REMARK                            x       y       z     vdW  Elec       q    Type
REMARK                         _______ _______ _______ _____ _____    ______ ____
ROOT
ATOM      1  N   UNL     1       2.493   7.009  18.854  0.00  0.00    +0.000 N 
ATOM      2  C   UNL     1       2.059   8.269  18.513  0.00  0.00    +0.000 C 
ATOM      3  O   UNL     1       2.294   8.738  17.401  0.00  0.00    +0.000 OA
ATOM      4  H   UNL     1       2.386   6.693  19.812  0.00  0.00    +0.000 HD
ENDROOT
BRANCH   2   5
ATOM      5  C   UNL     1       1.302   8.983  19.535  0.00  0.00    +0.000 A 
ATOM      6  C   UNL     1       0.599  10.163  19.380  0.00  0.00    +0.000 A 
ATOM      7  C   UNL     1      -0.098  10.588  20.570  0.00  0.00    +0.000 A 
ATOM      8  C   UNL     1      -0.940  11.692  20.856  0.00  0.00    +0.000 A 
ATOM      9 CL   UNL     1      -1.240  12.785  19.572  0.00  0.00    +0.000 Cl
ATOM     10  C   UNL     1      -1.516  11.890  22.111  0.00  0.00    +0.000 A 
ATOM     11  C   UNL     1      -1.258  10.983  23.127  0.00  0.00    +0.000 A 
ATOM     12  C   UNL     1      -0.431   9.880  22.898  0.00  0.00    +0.000 A 
ATOM     13  C   UNL     1       0.138   9.694  21.619  0.00  0.00    +0.000 A 
ATOM     14  S   UNL     1       1.166   8.403  21.135  0.00  0.00    +0.000 S 
ENDBRANCH   2   5
BRANCH   1  15
ATOM     15  C   UNL     1       3.260   6.182  17.954  0.00  0.00    +0.000 C 
BRANCH  15  21
ATOM     16  C   UNL     1       4.692   3.654  19.105  0.00  0.00    +0.000 C 
ATOM     17  N   UNL     1       3.374   3.708  18.530  0.00  0.00    +0.000 N 
ATOM     18  C   UNL     1       2.524   2.653  18.395  0.00  0.00    +0.000 A 
ATOM     19  N   UNL     1       1.417   3.054  17.816  0.00  0.00    +0.000 NA
ATOM     20  N   UNL     1       1.541   4.399  17.569  0.00  0.00    +0.000 NA
ATOM     21  C   UNL     1       2.724   4.795  18.007  0.00  0.00    +0.000 A 
ENDBRANCH  15  21
ENDBRANCH   1  15
TORSDOF 3
ENDMDL
MODEL 6
REMARK VINA RESULT:      -6.8      2.209      2.964
REMARK  Name = 
REMARK  4 active torsions:
REMARK  status: ('A' for Active; 'I' for Inactive)
REMARK    1  A    between atoms: C_1  and  N_2
REMARK    2  A    between atoms: C_6  and  C_7
REMARK    3  A    between atoms: C_7  and  N_8
REMARK    4  A    between atoms: C_9  and  C_11
REMARK                            x       y       z     vdW  Elec       q    Type
REMARK                         _______ _______ _______ _____ _____    ______ ____
ROOT
ATOM      1  N   UNL     1       2.791   7.118  18.677  0.00  0.00    +0.000 N 
ATOM      2  C   UNL     1       2.190   8.319  18.378  0.00  0.00    +0.000 C 
ATOM      3  O   UNL     1       2.289   8.813  17.257  0.00  0.00    +0.000 OA
ATOM      4  H   UNL     1       2.791   6.792  19.638  0.00  0.00    +0.000 HD
ENDROOT
BRANCH   2   5
ATOM      5  C   UNL     1       1.431   8.940  19.459  0.00  0.00    +0.000 A 
ATOM      6  C   UNL     1       0.707  10.116  19.400  0.00  0.00    +0.000 A 
ATOM      7  C   UNL     1       0.014  10.437  20.624  0.00  0.00    +0.000 A 
ATOM      8  C   UNL     1      -0.843  11.501  21.000  0.00  0.00    +0.000 A 
ATOM      9 CL   UNL     1      -1.172  12.685  19.807  0.00  0.00    +0.000 Cl
ATOM     10  C   UNL     1      -1.411  11.593  22.271  0.00  0.00    +0.000 A 
ATOM     11  C   UNL     1      -1.130  10.615  23.213  0.00  0.00    +0.000 A 
ATOM     12  C   UNL     1      -0.288   9.547  22.893  0.00  0.00    +0.000 A 
ATOM     13  C   UNL     1       0.273   9.469  21.600  0.00  0.00    +0.000 A 
ATOM     14  S   UNL     1       1.317   8.237  21.010  0.00  0.00    +0.000 S 
ENDBRANCH   2   5
BRANCH   1  15
ATOM     15  C   UNL     1       3.583   6.387  17.717  0.00  0.00    +0.000 C 
BRANCH  15  21
ATOM     16  C   UNL     1       2.154   3.608  17.690  0.00  0.00    +0.000 C 
ATOM     17  N   UNL     1       3.412   3.921  18.313  0.00  0.00    +0.000 N 
ATOM     18  C   UNL     1       4.198   3.044  18.997  0.00  0.00    +0.000 A 
ATOM     19  N   UNL     1       5.261   3.667  19.445  0.00  0.00    +0.000 NA
ATOM     20  N   UNL     1       5.176   4.978  19.043  0.00  0.00    +0.000 NA
ATOM     21  C   UNL     1       4.059   5.129  18.353  0.00  0.00    +0.000 A 
ENDBRANCH  15  21
ENDBRANCH   1  15
TORSDOF 3
ENDMDL
MODEL 7
REMARK VINA RESULT:      -6.7      2.331      3.166
REMARK  Name = 
REMARK  4 active torsions:
REMARK  status: ('A' for Active; 'I' for Inactive)
REMARK    1  A    between atoms: C_1  and  N_2
REMARK    2  A    between atoms: C_6  and  C_7
REMARK    3  A    between atoms: C_7  and  N_8
REMARK    4  A    between atoms: C_9  and  C_11
REMARK                            x       y       z     vdW  Elec       q    Type
REMARK                         _______ _______ _______ _____ _____    ______ ____
ROOT
ATOM      1  N   UNL     1       2.850   6.201  19.943  0.00  0.00    +0.000 N 
ATOM      2  C   UNL     1       2.621   7.207  19.034  0.00  0.00    +0.000 C 
ATOM      3  O   UNL     1       3.113   7.165  17.908  0.00  0.00    +0.000 OA
ATOM      4  H   UNL     1       2.528   6.318  20.899  0.00  0.00    +0.000 HD
ENDROOT
BRANCH   2   5
ATOM      5  C   UNL     1       1.758   8.294  19.486  0.00  0.00    +0.000 A 
ATOM      6  C   UNL     1       1.259   8.487  20.760  0.00  0.00    +0.000 A 
ATOM      7  C   UNL     1       0.480   9.693  20.906  0.00  0.00    +0.000 A 
ATOM      8  C   UNL     1      -0.184  10.289  22.006  0.00  0.00    +0.000 A 
ATOM      9 CL   UNL     1      -0.081   9.467  23.505  0.00  0.00    +0.000 Cl
ATOM     10  C   UNL     1      -0.883  11.491  21.899  0.00  0.00    +0.000 A 
ATOM     11  C   UNL     1      -0.942  12.135  20.673  0.00  0.00    +0.000 A 
ATOM     12  C   UNL     1      -0.308  11.587  19.555  0.00  0.00    +0.000 A 
ATOM     13  C   UNL     1       0.399  10.372  19.685  0.00  0.00    +0.000 A 
ATOM     14  S   UNL     1       1.252   9.545  18.441  0.00  0.00    +0.000 S 
ENDBRANCH   2   5
BRANCH   1  15
ATOM     15  C   UNL     1       3.688   5.064  19.648  0.00  0.00    +0.000 C 
BRANCH  15  21
ATOM     16  C   UNL     1       2.362   2.865  21.428  0.00  0.00    +0.000 C 
ATOM     17  N   UNL     1       2.247   2.998  20.000  0.00  0.00    +0.000 N 
ATOM     18  C   UNL     1       1.530   2.180  19.182  0.00  0.00    +0.000 A 
ATOM     19  N   UNL     1       1.659   2.580  17.940  0.00  0.00    +0.000 NA
ATOM     20  N   UNL     1       2.473   3.687  17.943  0.00  0.00    +0.000 NA
ATOM     21  C   UNL     1       2.824   3.942  19.191  0.00  0.00    +0.000 A 
ENDBRANCH  15  21
ENDBRANCH   1  15
TORSDOF 3
ENDMDL
MODEL 8
REMARK VINA RESULT:      -6.7      3.639      7.438
REMARK  Name = 
REMARK  4 active torsions:
REMARK  status: ('A' for Active; 'I' for Inactive)
REMARK    1  A    between atoms: C_1  and  N_2
REMARK    2  A    between atoms: C_6  and  C_7
REMARK    3  A    between atoms: C_7  and  N_8
REMARK    4  A    between atoms: C_9  and  C_11
REMARK                            x       y       z     vdW  Elec       q    Type
REMARK                         _______ _______ _______ _____ _____    ______ ____
ROOT
ATOM      1  N   UNL     1       1.478   8.898  19.579  0.00  0.00    +0.000 N 
ATOM      2  C   UNL     1       2.063   8.557  18.381  0.00  0.00    +0.000 C 
ATOM      3  O   UNL     1       2.204   9.390  17.488  0.00  0.00    +0.000 OA
ATOM      4  H   UNL     1       1.270   8.167  20.251  0.00  0.00    +0.000 HD
ENDROOT
BRANCH   2   5
ATOM      5  C   UNL     1       2.507   7.173  18.257  0.00  0.00    +0.000 A 
ATOM      6  C   UNL     1       1.878   6.048  18.755  0.00  0.00    +0.000 A 
ATOM      7  C   UNL     1       2.537   4.811  18.413  0.00  0.00    +0.000 A 
ATOM      8  C   UNL     1       2.242   3.450  18.680  0.00  0.00    +0.000 A 
ATOM      9 CL   UNL     1       0.824   3.134  19.587  0.00  0.00    +0.000 Cl
ATOM     10  C   UNL     1       3.046   2.405  18.227  0.00  0.00    +0.000 A 
ATOM     11  C   UNL     1       4.185   2.695  17.491  0.00  0.00    +0.000 A 
ATOM     12  C   UNL     1       4.523   4.020  17.203  0.00  0.00    +0.000 A 
ATOM     13  C   UNL     1       3.693   5.064  17.667  0.00  0.00    +0.000 A 
ATOM     14  S   UNL     1       3.927   6.748  17.411  0.00  0.00    +0.000 S 
ENDBRANCH   2   5
BRANCH   1  15
ATOM     15  C   UNL     1       0.981  10.225  19.850  0.00  0.00    +0.000 C 
BRANCH  15  21
ATOM     16  C   UNL     1      -1.497  11.819  20.891  0.00  0.00    +0.000 C 
ATOM     17  N   UNL     1      -0.638  10.965  21.666  0.00  0.00    +0.000 N 
ATOM     18  C   UNL     1      -0.768  10.706  22.996  0.00  0.00    +0.000 A 
ATOM     19  N   UNL     1       0.194   9.903  23.383  0.00  0.00    +0.000 NA
ATOM     20  N   UNL     1       0.969   9.624  22.283  0.00  0.00    +0.000 NA
ATOM     21  C   UNL     1       0.461  10.263  21.244  0.00  0.00    +0.000 A 
ENDBRANCH  15  21
ENDBRANCH   1  15
TORSDOF 3
ENDMDL
MODEL 9
REMARK VINA RESULT:      -6.7      4.669      6.082
REMARK  Name = 
REMARK  4 active torsions:
REMARK  status: ('A' for Active; 'I' for Inactive)
REMARK    1  A    between atoms: C_1  and  N_2
REMARK    2  A    between atoms: C_6  and  C_7
REMARK    3  A    between atoms: C_7  and  N_8
REMARK    4  A    between atoms: C_9  and  C_11
REMARK                            x       y       z     vdW  Elec       q    Type
REMARK                         _______ _______ _______ _____ _____    ______ ____
ROOT
ATOM      1  N   UNL     1       6.234   4.813  16.449  0.00  0.00    +0.000 N 
ATOM      2  C   UNL     1       5.109   5.528  16.788  0.00  0.00    +0.000 C 
ATOM      3  O   UNL     1       4.852   6.599  16.242  0.00  0.00    +0.000 OA
ATOM      4  H   UNL     1       6.481   3.995  16.995  0.00  0.00    +0.000 HD
ENDROOT
BRANCH   2   5
ATOM      5  C   UNL     1       4.254   4.929  17.808  0.00  0.00    +0.000 A 
ATOM      6  C   UNL     1       4.579   3.898  18.668  0.00  0.00    +0.000 A 
ATOM      7  C   UNL     1       3.534   3.568  19.606  0.00  0.00    +0.000 A 
ATOM      8  C   UNL     1       3.440   2.623  20.658  0.00  0.00    +0.000 A 
ATOM      9 CL   UNL     1       4.814   1.637  20.933  0.00  0.00    +0.000 Cl
ATOM     10  C   UNL     1       2.300   2.492  21.450  0.00  0.00    +0.000 A 
ATOM     11  C   UNL     1       1.207   3.310  21.206  0.00  0.00    +0.000 A 
ATOM     12  C   UNL     1       1.246   4.255  20.178  0.00  0.00    +0.000 A 
ATOM     13  C   UNL     1       2.412   4.375  19.390  0.00  0.00    +0.000 A 
ATOM     14  S   UNL     1       2.663   5.477  18.095  0.00  0.00    +0.000 S 
ENDBRANCH   2   5
BRANCH   1  15
ATOM     15  C   UNL     1       7.181   5.279  15.465  0.00  0.00    +0.000 C 
BRANCH  15  21
ATOM     16  C   UNL     1       8.527   5.864  12.706  0.00  0.00    +0.000 C 
ATOM     17  N   UNL     1       7.487   4.905  12.968  0.00  0.00    +0.000 N 
ATOM     18  C   UNL     1       6.915   4.083  12.046  0.00  0.00    +0.000 A 
ATOM     19  N   UNL     1       5.992   3.352  12.623  0.00  0.00    +0.000 NA
ATOM     20  N   UNL     1       5.960   3.697  13.952  0.00  0.00    +0.000 NA
ATOM     21  C   UNL     1       6.869   4.633  14.161  0.00  0.00    +0.000 A 
ENDBRANCH  15  21
ENDBRANCH   1  15
TORSDOF 3
ENDMDL
