MODEL 1
REMARK VINA RESULT:      -8.5      0.000      0.000
REMARK  Name = 
REMARK  8 active torsions:
REMARK  status: ('A' for Active; 'I' for Inactive)
REMARK    1  A    between atoms: C_1  and  N_2
REMARK    2  A    between atoms: N_2  and  C_3
REMARK    3  A    between atoms: C_4  and  C_6
REMARK    4  A    between atoms: C_6  and  C_7
REMARK    5  A    between atoms: C_9  and  C_10
REMARK    6  A    between atoms: C_13  and  C_14
REMARK    7  A    between atoms: C_20  and  C_21
REMARK    8  A    between atoms: C_24  and  C_25
REMARK                            x       y       z     vdW  Elec       q    Type
REMARK                         _______ _______ _______ _____ _____    ______ ____
ROOT
ATOM      1  C   UNL     1       2.319   6.209  20.041  0.00  0.00    +0.000 A 
ATOM      2  C   UNL     1       1.426   7.216  20.505  0.00  0.00    +0.000 A 
ATOM      3  C   UNL     1       1.524   8.282  19.637  0.00  0.00    +0.000 A 
ATOM      4  O   UNL     1       2.395   7.962  18.629  0.00  0.00    +0.000 OA
ATOM      5  C   UNL     1       2.863   6.696  18.859  0.00  0.00    +0.000 A 
ENDROOT
BRANCH   3   6
ATOM      6  C   UNL     1       0.952   9.630  19.626  0.00  0.00    +0.000 A 
ATOM      7  C   UNL     1       1.502  10.632  18.806  0.00  0.00    +0.000 A 
ATOM      8  C   UNL     1       0.912  11.900  18.719  0.00  0.00    +0.000 A 
ATOM      9  C   UNL     1      -0.241  12.187  19.454  0.00  0.00    +0.000 A 
ATOM     10  C   UNL     1      -0.775  11.214  20.303  0.00  0.00    +0.000 A 
ATOM     11  C   UNL     1      -0.182   9.948  20.385  0.00  0.00    +0.000 A 
BRANCH   9  12
ATOM     12  C   UNL     1      -0.900  13.515  19.314  0.00  0.00    +0.000 C 
ATOM     13  N   UNL     1      -0.459  14.437  18.517  0.00  0.00    +0.000 NA
ATOM     14  N   UNL     1      -2.016  13.818  20.034  0.00  0.00    +0.000 N 
ATOM     15  H   UNL     1       0.409  14.151  18.057  0.00  0.00    +0.000 HD
ATOM     16  H   UNL     1      -2.678  13.063  20.166  0.00  0.00    +0.000 HD
ATOM     17  H   UNL     1      -2.454  14.663  19.677  0.00  0.00    +0.000 HD
ENDBRANCH   9  12
ENDBRANCH   3   6
BRANCH   5  18
ATOM     18  C   UNL     1       3.815   6.162  17.881  0.00  0.00    +0.000 A 
ATOM     19  C   UNL     1       3.674   4.880  17.333  0.00  0.00    +0.000 A 
ATOM     20  C   UNL     1       4.551   4.423  16.336  0.00  0.00    +0.000 A 
ATOM     21  C   UNL     1       5.582   5.246  15.869  0.00  0.00    +0.000 A 
ATOM     22  C   UNL     1       5.756   6.510  16.432  0.00  0.00    +0.000 A 
ATOM     23  C   UNL     1       4.888   6.951  17.435  0.00  0.00    +0.000 A 
BRANCH  21  24
ATOM     24  C   UNL     1       6.505   4.777  14.798  0.00  0.00    +0.000 C 
ATOM     25  N   UNL     1       7.559   5.439  14.437  0.00  0.00    +0.000 NA
ATOM     26  N   UNL     1       6.274   3.599  14.155  0.00  0.00    +0.000 N 
ATOM     27  H   UNL     1       7.637   6.328  14.937  0.00  0.00    +0.000 HD
ATOM     28  H   UNL     1       5.898   2.852  14.723  0.00  0.00    +0.000 HD
ATOM     29  H   UNL     1       7.097   3.313  13.631  0.00  0.00    +0.000 HD
ENDBRANCH  21  24
ENDBRANCH   5  18
BRANCH   1  30
ATOM     30  C   UNL     1       2.616   4.920  20.738  0.00  0.00    +0.000 C 
BRANCH  30  34
ATOM     31  C   UNL     1       1.938   1.479  19.234  0.00  0.00    +0.000 C 
ATOM     32  N   UNL     1       2.638   2.639  19.758  0.00  0.00    +0.000 N 
ATOM     33  C   UNL     1       4.066   2.534  20.012  0.00  0.00    +0.000 C 
ATOM     34  C   UNL     1       1.862   3.729  20.152  0.00  0.00    +0.000 C 
ATOM     35  O   UNL     1       0.638   3.725  20.008  0.00  0.00    +0.000 OA
ENDBRANCH  30  34
ENDBRANCH   1  30
TORSDOF 6
ENDMDL
MODEL 2
REMARK VINA RESULT:      -8.5      1.664      2.159
REMARK  Name = 
REMARK  8 active torsions:
REMARK  status: ('A' for Active; 'I' for Inactive)
REMARK    1  A    between atoms: C_1  and  N_2
REMARK    2  A    between atoms: N_2  and  C_3
REMARK    3  A    between atoms: C_4  and  C_6
REMARK    4  A    between atoms: C_6  and  C_7
REMARK    5  A    between atoms: C_9  and  C_10
REMARK    6  A    between atoms: C_13  and  C_14
REMARK    7  A    between atoms: C_20  and  C_21
REMARK    8  A    between atoms: C_24  and  C_25
REMARK                            x       y       z     vdW  Elec       q    Type
REMARK                         _______ _______ _______ _____ _____    ______ ____
ROOT
ATOM      1  C   UNL     1       1.769   5.473  20.485  0.00  0.00    +0.000 A 
ATOM      2  C   UNL     1       0.808   6.348  21.069  0.00  0.00    +0.000 A 
ATOM      3  C   UNL     1       1.163   7.635  20.725  0.00  0.00    +0.000 A 
ATOM      4  O   UNL     1       2.265   7.594  19.912  0.00  0.00    +0.000 OA
ATOM      5  C   UNL     1       2.623   6.283  19.748  0.00  0.00    +0.000 A 
ENDROOT
BRANCH   3   6
ATOM      6  C   UNL     1       0.647   8.955  21.091  0.00  0.00    +0.000 A 
ATOM      7  C   UNL     1      -0.043   9.141  22.302  0.00  0.00    +0.000 A 
ATOM      8  C   UNL     1      -0.465  10.414  22.707  0.00  0.00    +0.000 A 
ATOM      9  C   UNL     1      -0.203  11.526  21.902  0.00  0.00    +0.000 A 
ATOM     10  C   UNL     1       0.446  11.350  20.677  0.00  0.00    +0.000 A 
ATOM     11  C   UNL     1       0.867  10.075  20.279  0.00  0.00    +0.000 A 
BRANCH   9  12
ATOM     12  C   UNL     1      -0.599  12.885  22.362  0.00  0.00    +0.000 C 
ATOM     13  N   UNL     1       0.225  13.884  22.393  0.00  0.00    +0.000 NA
ATOM     14  N   UNL     1      -1.873  13.136  22.778  0.00  0.00    +0.000 N 
ATOM     15  H   UNL     1       1.169  13.601  22.118  0.00  0.00    +0.000 HD
ATOM     16  H   UNL     1      -2.608  12.665  22.266  0.00  0.00    +0.000 HD
ATOM     17  H   UNL     1      -2.033  14.136  22.859  0.00  0.00    +0.000 HD
ENDBRANCH   9  12
ENDBRANCH   3   6
BRANCH   5  18
ATOM     18  C   UNL     1       3.792   6.025  18.901  0.00  0.00    +0.000 A 
ATOM     19  C   UNL     1       5.014   5.595  19.436  0.00  0.00    +0.000 A 
ATOM     20  C   UNL     1       6.094   5.274  18.596  0.00  0.00    +0.000 A 
ATOM     21  C   UNL     1       5.963   5.374  17.207  0.00  0.00    +0.000 A 
ATOM     22  C   UNL     1       4.764   5.835  16.664  0.00  0.00    +0.000 A 
ATOM     23  C   UNL     1       3.700   6.167  17.506  0.00  0.00    +0.000 A 
BRANCH  21  24
ATOM     24  C   UNL     1       7.096   5.016  16.308  0.00  0.00    +0.000 C 
ATOM     25  N   UNL     1       8.006   4.153  16.633  0.00  0.00    +0.000 NA
ATOM     26  N   UNL     1       7.207   5.588  15.077  0.00  0.00    +0.000 N 
ATOM     27  H   UNL     1       7.872   3.802  17.585  0.00  0.00    +0.000 HD
ATOM     28  H   UNL     1       6.340   5.758  14.588  0.00  0.00    +0.000 HD
ATOM     29  H   UNL     1       7.881   5.080  14.510  0.00  0.00    +0.000 HD
ENDBRANCH  21  24
ENDBRANCH   5  18
BRANCH   1  30
ATOM     30  C   UNL     1       1.835   3.994  20.687  0.00  0.00    +0.000 C 
BRANCH  30  34
ATOM     31  C   UNL     1       3.329   1.690  18.036  0.00  0.00    +0.000 C 
ATOM     32  N   UNL     1       3.171   2.472  19.251  0.00  0.00    +0.000 N 
ATOM     33  C   UNL     1       4.141   2.298  20.320  0.00  0.00    +0.000 C 
ATOM     34  C   UNL     1       1.997   3.213  19.385  0.00  0.00    +0.000 C 
ATOM     35  O   UNL     1       1.157   3.244  18.485  0.00  0.00    +0.000 OA
ENDBRANCH  30  34
ENDBRANCH   1  30
TORSDOF 6
ENDMDL
MODEL 3
REMARK VINA RESULT:      -8.4      0.247      1.099
REMARK  Name = 
REMARK  8 active torsions:
REMARK  status: ('A' for Active; 'I' for Inactive)
REMARK    1  A    between atoms: C_1  and  N_2
REMARK    2  A    between atoms: N_2  and  C_3
REMARK    3  A    between atoms: C_4  and  C_6
REMARK    4  A    between atoms: C_6  and  C_7
REMARK    5  A    between atoms: C_9  and  C_10
REMARK    6  A    between atoms: C_13  and  C_14
REMARK    7  A    between atoms: C_20  and  C_21
REMARK    8  A    between atoms: C_24  and  C_25
REMARK                            x       y       z     vdW  Elec       q    Type
REMARK                         _______ _______ _______ _____ _____    ______ ____
ROOT
ATOM      1  C   UNL     1       2.308   6.280  20.045  0.00  0.00    +0.000 A 
ATOM      2  C   UNL     1       1.431   7.264  20.582  0.00  0.00    +0.000 A 
ATOM      3  C   UNL     1       1.464   8.350  19.734  0.00  0.00    +0.000 A 
ATOM      4  O   UNL     1       2.278   8.063  18.670  0.00  0.00    +0.000 OA
ATOM      5  C   UNL     1       2.775   6.800  18.845  0.00  0.00    +0.000 A 
ENDROOT
BRANCH   3   6
ATOM      6  C   UNL     1       0.874   9.689  19.786  0.00  0.00    +0.000 A 
ATOM      7  C   UNL     1       1.240  10.667  18.843  0.00  0.00    +0.000 A 
ATOM      8  C   UNL     1       0.620  11.923  18.826  0.00  0.00    +0.000 A 
ATOM      9  C   UNL     1      -0.378  12.223  19.757  0.00  0.00    +0.000 A 
ATOM     10  C   UNL     1      -0.722  11.276  20.724  0.00  0.00    +0.000 A 
ATOM     11  C   UNL     1      -0.101  10.021  20.736  0.00  0.00    +0.000 A 
BRANCH   9  12
ATOM     12  C   UNL     1      -1.076  13.537  19.699  0.00  0.00    +0.000 C 
ATOM     13  N   UNL     1      -0.726  14.483  18.887  0.00  0.00    +0.000 NA
ATOM     14  N   UNL     1      -2.134  13.800  20.518  0.00  0.00    +0.000 N 
ATOM     15  H   UNL     1       0.106  14.227  18.348  0.00  0.00    +0.000 HD
ATOM     16  H   UNL     1      -2.764  13.027  20.691  0.00  0.00    +0.000 HD
ATOM     17  H   UNL     1      -2.619  14.640  20.216  0.00  0.00    +0.000 HD
ENDBRANCH   9  12
ENDBRANCH   3   6
BRANCH   5  18
ATOM     18  C   UNL     1       3.675   6.300  17.801  0.00  0.00    +0.000 A 
ATOM     19  C   UNL     1       4.665   7.110  17.227  0.00  0.00    +0.000 A 
ATOM     20  C   UNL     1       5.570   6.585  16.289  0.00  0.00    +0.000 A 
ATOM     21  C   UNL     1       5.499   5.238  15.916  0.00  0.00    +0.000 A 
ATOM     22  C   UNL     1       4.496   4.431  16.452  0.00  0.00    +0.000 A 
ATOM     23  C   UNL     1       3.590   4.965  17.372  0.00  0.00    +0.000 A 
BRANCH  21  24
ATOM     24  C   UNL     1       6.467   4.668  14.938  0.00  0.00    +0.000 C 
ATOM     25  N   UNL     1       6.262   3.551  14.314  0.00  0.00    +0.000 NA
ATOM     26  N   UNL     1       7.623   5.326  14.647  0.00  0.00    +0.000 N 
ATOM     27  H   UNL     1       5.394   3.102  14.618  0.00  0.00    +0.000 HD
ATOM     28  H   UNL     1       7.563   6.335  14.618  0.00  0.00    +0.000 HD
ATOM     29  H   UNL     1       8.053   4.937  13.812  0.00  0.00    +0.000 HD
ENDBRANCH  21  24
ENDBRANCH   5  18
BRANCH   1  30
ATOM     30  C   UNL     1       2.661   4.981  20.695  0.00  0.00    +0.000 C 
BRANCH  30  34
ATOM     31  C   UNL     1       1.866   1.531  19.270  0.00  0.00    +0.000 C 
ATOM     32  N   UNL     1       2.606   2.684  19.754  0.00  0.00    +0.000 N 
ATOM     33  C   UNL     1       4.038   2.552  19.968  0.00  0.00    +0.000 C 
ATOM     34  C   UNL     1       1.866   3.797  20.152  0.00  0.00    +0.000 C 
ATOM     35  O   UNL     1       0.638   3.818  20.043  0.00  0.00    +0.000 OA
ENDBRANCH  30  34
ENDBRANCH   1  30
TORSDOF 6
ENDMDL
MODEL 4
REMARK VINA RESULT:      -8.3      0.598      1.359
REMARK  Name = 
REMARK  8 active torsions:
REMARK  status: ('A' for Active; 'I' for Inactive)
REMARK    1  A    between atoms: C_1  and  N_2
REMARK    2  A    between atoms: N_2  and  C_3
REMARK    3  A    between atoms: C_4  and  C_6
REMARK    4  A    between atoms: C_6  and  C_7
REMARK    5  A    between atoms: C_9  and  C_10
REMARK    6  A    between atoms: C_13  and  C_14
REMARK    7  A    between atoms: C_20  and  C_21
REMARK    8  A    between atoms: C_24  and  C_25
REMARK                            x       y       z     vdW  Elec       q    Type
REMARK                         _______ _______ _______ _____ _____    ______ ____
ROOT
ATOM      1  C   UNL     1       2.294   6.275  20.073  0.00  0.00    +0.000 A 
ATOM      2  C   UNL     1       1.412   7.252  20.614  0.00  0.00    +0.000 A 
ATOM      3  C   UNL     1       1.450   8.347  19.779  0.00  0.00    +0.000 A 
ATOM      4  O   UNL     1       2.274   8.074  18.718  0.00  0.00    +0.000 OA
ATOM      5  C   UNL     1       2.771   6.809  18.883  0.00  0.00    +0.000 A 
ENDROOT
BRANCH   3   6
ATOM      6  C   UNL     1       0.859   9.685  19.841  0.00  0.00    +0.000 A 
ATOM      7  C   UNL     1       0.760  10.366  21.067  0.00  0.00    +0.000 A 
ATOM      8  C   UNL     1       0.279  11.680  21.130  0.00  0.00    +0.000 A 
ATOM      9  C   UNL     1      -0.116  12.336  19.961  0.00  0.00    +0.000 A 
ATOM     10  C   UNL     1      -0.061  11.658  18.740  0.00  0.00    +0.000 A 
ATOM     11  C   UNL     1       0.424  10.345  18.684  0.00  0.00    +0.000 A 
BRANCH   9  12
ATOM     12  C   UNL     1      -0.571  13.752  20.022  0.00  0.00    +0.000 C 
ATOM     13  N   UNL     1      -0.812  14.365  21.138  0.00  0.00    +0.000 NA
ATOM     14  N   UNL     1      -0.756  14.474  18.881  0.00  0.00    +0.000 N 
ATOM     15  H   UNL     1      -0.703  13.740  21.940  0.00  0.00    +0.000 HD
ATOM     16  H   UNL     1      -0.090  14.308  18.137  0.00  0.00    +0.000 HD
ATOM     17  H   UNL     1      -0.863  15.461  19.095  0.00  0.00    +0.000 HD
ENDBRANCH   9  12
ENDBRANCH   3   6
BRANCH   5  18
ATOM     18  C   UNL     1       3.680   6.322  17.841  0.00  0.00    +0.000 A 
ATOM     19  C   UNL     1       4.697   7.127  17.310  0.00  0.00    +0.000 A 
ATOM     20  C   UNL     1       5.608   6.612  16.373  0.00  0.00    +0.000 A 
ATOM     21  C   UNL     1       5.517   5.278  15.958  0.00  0.00    +0.000 A 
ATOM     22  C   UNL     1       4.488   4.477  16.452  0.00  0.00    +0.000 A 
ATOM     23  C   UNL     1       3.576   5.003  17.371  0.00  0.00    +0.000 A 
BRANCH  21  24
ATOM     24  C   UNL     1       6.491   4.718  14.981  0.00  0.00    +0.000 C 
ATOM     25  N   UNL     1       7.609   5.304  14.685  0.00  0.00    +0.000 NA
ATOM     26  N   UNL     1       6.241   3.532  14.360  0.00  0.00    +0.000 N 
ATOM     27  H   UNL     1       7.701   6.204  15.162  0.00  0.00    +0.000 HD
ATOM     28  H   UNL     1       5.777   2.829  14.919  0.00  0.00    +0.000 HD
ATOM     29  H   UNL     1       7.084   3.180  13.913  0.00  0.00    +0.000 HD
ENDBRANCH  21  24
ENDBRANCH   5  18
BRANCH   1  30
ATOM     30  C   UNL     1       2.644   4.969  20.712  0.00  0.00    +0.000 C 
BRANCH  30  34
ATOM     31  C   UNL     1       1.894   1.541  19.212  0.00  0.00    +0.000 C 
ATOM     32  N   UNL     1       2.618   2.691  19.724  0.00  0.00    +0.000 N 
ATOM     33  C   UNL     1       4.050   2.569  19.946  0.00  0.00    +0.000 C 
ATOM     34  C   UNL     1       1.864   3.789  20.138  0.00  0.00    +0.000 C 
ATOM     35  O   UNL     1       0.637   3.799  20.022  0.00  0.00    +0.000 OA
ENDBRANCH  30  34
ENDBRANCH   1  30
TORSDOF 6
ENDMDL
MODEL 5
REMARK VINA RESULT:      -8.2      1.603      1.912
REMARK  Name = 
REMARK  8 active torsions:
REMARK  status: ('A' for Active; 'I' for Inactive)
REMARK    1  A    between atoms: C_1  and  N_2
REMARK    2  A    between atoms: N_2  and  C_3
REMARK    3  A    between atoms: C_4  and  C_6
REMARK    4  A    between atoms: C_6  and  C_7
REMARK    5  A    between atoms: C_9  and  C_10
REMARK    6  A    between atoms: C_13  and  C_14
REMARK    7  A    between atoms: C_20  and  C_21
REMARK    8  A    between atoms: C_24  and  C_25
REMARK                            x       y       z     vdW  Elec       q    Type
REMARK                         _______ _______ _______ _____ _____    ______ ____
ROOT
ATOM      1  C   UNL     1       1.754   5.576  20.533  0.00  0.00    +0.000 A 
ATOM      2  C   UNL     1       0.823   6.448  21.166  0.00  0.00    +0.000 A 
ATOM      3  C   UNL     1       1.176   7.737  20.829  0.00  0.00    +0.000 A 
ATOM      4  O   UNL     1       2.247   7.701  19.975  0.00  0.00    +0.000 OA
ATOM      5  C   UNL     1       2.586   6.390  19.776  0.00  0.00    +0.000 A 
ENDROOT
BRANCH   3   6
ATOM      6  C   UNL     1       0.687   9.056  21.236  0.00  0.00    +0.000 A 
ATOM      7  C   UNL     1       0.807  10.160  20.372  0.00  0.00    +0.000 A 
ATOM      8  C   UNL     1       0.266  11.406  20.711  0.00  0.00    +0.000 A 
ATOM      9  C   UNL     1      -0.406  11.570  21.925  0.00  0.00    +0.000 A 
ATOM     10  C   UNL     1      -0.498  10.493  22.810  0.00  0.00    +0.000 A 
ATOM     11  C   UNL     1       0.043   9.249  22.466  0.00  0.00    +0.000 A 
BRANCH   9  12
ATOM     12  C   UNL     1      -1.032  12.880  22.256  0.00  0.00    +0.000 C 
ATOM     13  N   UNL     1      -0.340  13.942  22.521  0.00  0.00    +0.000 NA
ATOM     14  N   UNL     1      -2.388  13.014  22.295  0.00  0.00    +0.000 N 
ATOM     15  H   UNL     1       0.664  13.745  22.525  0.00  0.00    +0.000 HD
ATOM     16  H   UNL     1      -2.905  12.497  21.594  0.00  0.00    +0.000 HD
ATOM     17  H   UNL     1      -2.650  13.995  22.328  0.00  0.00    +0.000 HD
ENDBRANCH   9  12
ENDBRANCH   3   6
BRANCH   5  18
ATOM     18  C   UNL     1       3.719   6.135  18.881  0.00  0.00    +0.000 A 
ATOM     19  C   UNL     1       4.896   5.522  19.332  0.00  0.00    +0.000 A 
ATOM     20  C   UNL     1       5.935   5.214  18.438  0.00  0.00    +0.000 A 
ATOM     21  C   UNL     1       5.807   5.510  17.077  0.00  0.00    +0.000 A 
ATOM     22  C   UNL     1       4.656   6.152  16.622  0.00  0.00    +0.000 A 
ATOM     23  C   UNL     1       3.635   6.471  17.520  0.00  0.00    +0.000 A 
BRANCH  21  24
ATOM     24  C   UNL     1       6.895   5.167  16.118  0.00  0.00    +0.000 C 
ATOM     25  N   UNL     1       6.922   5.604  14.898  0.00  0.00    +0.000 NA
ATOM     26  N   UNL     1       7.932   4.376  16.506  0.00  0.00    +0.000 N 
ATOM     27  H   UNL     1       6.089   6.156  14.676  0.00  0.00    +0.000 HD
ATOM     28  H   UNL     1       8.253   4.501  17.457  0.00  0.00    +0.000 HD
ATOM     29  H   UNL     1       8.690   4.426  15.830  0.00  0.00    +0.000 HD
ENDBRANCH  21  24
ENDBRANCH   5  18
BRANCH   1  30
ATOM     30  C   UNL     1       1.814   4.092  20.709  0.00  0.00    +0.000 C 
BRANCH  30  34
ATOM     31  C   UNL     1       3.159   1.772  17.994  0.00  0.00    +0.000 C 
ATOM     32  N   UNL     1       3.055   2.536  19.226  0.00  0.00    +0.000 N 
ATOM     33  C   UNL     1       4.028   2.292  20.279  0.00  0.00    +0.000 C 
ATOM     34  C   UNL     1       1.922   3.332  19.390  0.00  0.00    +0.000 C 
ATOM     35  O   UNL     1       1.073   3.423  18.501  0.00  0.00    +0.000 OA
ENDBRANCH  30  34
ENDBRANCH   1  30
TORSDOF 6
ENDMDL
MODEL 6
REMARK VINA RESULT:      -8.2      1.806      2.208
REMARK  Name = 
REMARK  8 active torsions:
REMARK  status: ('A' for Active; 'I' for Inactive)
REMARK    1  A    between atoms: C_1  and  N_2
REMARK    2  A    between atoms: N_2  and  C_3
REMARK    3  A    between atoms: C_4  and  C_6
REMARK    4  A    between atoms: C_6  and  C_7
REMARK    5  A    between atoms: C_9  and  C_10
REMARK    6  A    between atoms: C_13  and  C_14
REMARK    7  A    between atoms: C_20  and  C_21
REMARK    8  A    between atoms: C_24  and  C_25
REMARK                            x       y       z     vdW  Elec       q    Type
REMARK                         _______ _______ _______ _____ _____    ______ ____
ROOT
ATOM      1  C   UNL     1       1.474   5.383  20.176  0.00  0.00    +0.000 A 
ATOM      2  C   UNL     1       0.552   6.269  20.805  0.00  0.00    +0.000 A 
ATOM      3  C   UNL     1       1.068   7.542  20.695  0.00  0.00    +0.000 A 
ATOM      4  O   UNL     1       2.238   7.492  19.983  0.00  0.00    +0.000 OA
ATOM      5  C   UNL     1       2.476   6.187  19.649  0.00  0.00    +0.000 A 
ENDROOT
BRANCH   3   6
ATOM      6  C   UNL     1       0.655   8.846  21.216  0.00  0.00    +0.000 A 
ATOM      7  C   UNL     1       1.007  10.029  20.541  0.00  0.00    +0.000 A 
ATOM      8  C   UNL     1       0.545  11.277  20.978  0.00  0.00    +0.000 A 
ATOM      9  C   UNL     1      -0.278  11.362  22.104  0.00  0.00    +0.000 A 
ATOM     10  C   UNL     1      -0.602  10.200  22.808  0.00  0.00    +0.000 A 
ATOM     11  C   UNL     1      -0.139   8.955  22.366  0.00  0.00    +0.000 A 
BRANCH   9  12
ATOM     12  C   UNL     1      -0.816  12.683  22.532  0.00  0.00    +0.000 C 
ATOM     13  N   UNL     1      -0.392  13.806  22.044  0.00  0.00    +0.000 NA
ATOM     14  N   UNL     1      -1.796  12.764  23.475  0.00  0.00    +0.000 N 
ATOM     15  H   UNL     1       0.378  13.662  21.386  0.00  0.00    +0.000 HD
ATOM     16  H   UNL     1      -2.507  12.043  23.439  0.00  0.00    +0.000 HD
ATOM     17  H   UNL     1      -2.191  13.699  23.503  0.00  0.00    +0.000 HD
ENDBRANCH   9  12
ENDBRANCH   3   6
BRANCH   5  18
ATOM     18  C   UNL     1       3.691   5.920  18.874  0.00  0.00    +0.000 A 
ATOM     19  C   UNL     1       4.890   5.529  19.487  0.00  0.00    +0.000 A 
ATOM     20  C   UNL     1       6.018   5.198  18.718  0.00  0.00    +0.000 A 
ATOM     21  C   UNL     1       5.960   5.250  17.320  0.00  0.00    +0.000 A 
ATOM     22  C   UNL     1       4.785   5.672  16.700  0.00  0.00    +0.000 A 
ATOM     23  C   UNL     1       3.673   6.015  17.473  0.00  0.00    +0.000 A 
BRANCH  21  24
ATOM     24  C   UNL     1       7.145   4.881  16.496  0.00  0.00    +0.000 C 
ATOM     25  N   UNL     1       8.106   4.134  16.940  0.00  0.00    +0.000 NA
ATOM     26  N   UNL     1       7.253   5.316  15.210  0.00  0.00    +0.000 N 
ATOM     27  H   UNL     1       7.969   3.885  17.922  0.00  0.00    +0.000 HD
ATOM     28  H   UNL     1       6.391   5.361  14.684  0.00  0.00    +0.000 HD
ATOM     29  H   UNL     1       7.981   4.802  14.721  0.00  0.00    +0.000 HD
ENDBRANCH  21  24
ENDBRANCH   5  18
BRANCH   1  30
ATOM     30  C   UNL     1       1.368   3.892  20.152  0.00  0.00    +0.000 C 
BRANCH  30  34
ATOM     31  C   UNL     1       4.465   1.770  20.841  0.00  0.00    +0.000 C 
ATOM     32  N   UNL     1       3.361   2.411  20.147  0.00  0.00    +0.000 N 
ATOM     33  C   UNL     1       3.326   2.354  18.694  0.00  0.00    +0.000 C 
ATOM     34  C   UNL     1       2.495   3.195  20.909  0.00  0.00    +0.000 C 
ATOM     35  O   UNL     1       2.632   3.291  22.130  0.00  0.00    +0.000 OA
ENDBRANCH  30  34
ENDBRANCH   1  30
TORSDOF 6
ENDMDL
MODEL 7
REMARK VINA RESULT:      -8.1      1.773      2.196
REMARK  Name = 
REMARK  8 active torsions:
REMARK  status: ('A' for Active; 'I' for Inactive)
REMARK    1  A    between atoms: C_1  and  N_2
REMARK    2  A    between atoms: N_2  and  C_3
REMARK    3  A    between atoms: C_4  and  C_6
REMARK    4  A    between atoms: C_6  and  C_7
REMARK    5  A    between atoms: C_9  and  C_10
REMARK    6  A    between atoms: C_13  and  C_14
REMARK    7  A    between atoms: C_20  and  C_21
REMARK    8  A    between atoms: C_24  and  C_25
REMARK                            x       y       z     vdW  Elec       q    Type
REMARK                         _______ _______ _______ _____ _____    ______ ____
ROOT
ATOM      1  C   UNL     1       1.370   5.377  20.297  0.00  0.00    +0.000 A 
ATOM      2  C   UNL     1       0.497   6.331  20.893  0.00  0.00    +0.000 A 
ATOM      3  C   UNL     1       1.048   7.577  20.683  0.00  0.00    +0.000 A 
ATOM      4  O   UNL     1       2.191   7.443  19.940  0.00  0.00    +0.000 OA
ATOM      5  C   UNL     1       2.378   6.111  19.686  0.00  0.00    +0.000 A 
ENDROOT
BRANCH   3   6
ATOM      6  C   UNL     1       0.692   8.926  21.129  0.00  0.00    +0.000 A 
ATOM      7  C   UNL     1       0.948  10.040  20.309  0.00  0.00    +0.000 A 
ATOM      8  C   UNL     1       0.534  11.324  20.683  0.00  0.00    +0.000 A 
ATOM      9  C   UNL     1      -0.144  11.516  21.890  0.00  0.00    +0.000 A 
ATOM     10  C   UNL     1      -0.369  10.425  22.733  0.00  0.00    +0.000 A 
ATOM     11  C   UNL     1       0.046   9.143  22.353  0.00  0.00    +0.000 A 
BRANCH   9  12
ATOM     12  C   UNL     1      -0.635  12.873  22.257  0.00  0.00    +0.000 C 
ATOM     13  N   UNL     1      -1.161  13.141  23.411  0.00  0.00    +0.000 NA
ATOM     14  N   UNL     1      -0.547  13.909  21.375  0.00  0.00    +0.000 N 
ATOM     15  H   UNL     1      -1.240  12.302  23.991  0.00  0.00    +0.000 HD
ATOM     16  H   UNL     1       0.288  13.935  20.803  0.00  0.00    +0.000 HD
ATOM     17  H   UNL     1      -0.728  14.793  21.842  0.00  0.00    +0.000 HD
ENDBRANCH   9  12
ENDBRANCH   3   6
BRANCH   5  18
ATOM     18  C   UNL     1       3.559   5.755  18.894  0.00  0.00    +0.000 A 
ATOM     19  C   UNL     1       3.537   5.752  17.492  0.00  0.00    +0.000 A 
ATOM     20  C   UNL     1       4.704   5.489  16.755  0.00  0.00    +0.000 A 
ATOM     21  C   UNL     1       5.912   5.229  17.412  0.00  0.00    +0.000 A 
ATOM     22  C   UNL     1       5.938   5.192  18.806  0.00  0.00    +0.000 A 
ATOM     23  C   UNL     1       4.770   5.440  19.531  0.00  0.00    +0.000 A 
BRANCH  21  24
ATOM     24  C   UNL     1       7.158   4.968  16.639  0.00  0.00    +0.000 C 
ATOM     25  N   UNL     1       8.116   4.215  17.080  0.00  0.00    +0.000 NA
ATOM     26  N   UNL     1       7.330   5.515  15.403  0.00  0.00    +0.000 N 
ATOM     27  H   UNL     1       7.927   3.878  18.027  0.00  0.00    +0.000 HD
ATOM     28  H   UNL     1       6.501   5.579  14.828  0.00  0.00    +0.000 HD
ATOM     29  H   UNL     1       8.105   5.066  14.921  0.00  0.00    +0.000 HD
ENDBRANCH  21  24
ENDBRANCH   5  18
BRANCH   1  30
ATOM     30  C   UNL     1       1.218   3.891  20.375  0.00  0.00    +0.000 C 
BRANCH  30  34
ATOM     31  C   UNL     1       4.354   1.768  20.846  0.00  0.00    +0.000 C 
ATOM     32  N   UNL     1       3.201   2.405  20.232  0.00  0.00    +0.000 N 
ATOM     33  C   UNL     1       3.054   2.332  18.787  0.00  0.00    +0.000 C 
ATOM     34  C   UNL     1       2.399   3.199  21.051  0.00  0.00    +0.000 C 
ATOM     35  O   UNL     1       2.630   3.309  22.256  0.00  0.00    +0.000 OA
ENDBRANCH  30  34
ENDBRANCH   1  30
TORSDOF 6
ENDMDL
MODEL 8
REMARK VINA RESULT:      -8.1      1.655      2.091
REMARK  Name = 
REMARK  8 active torsions:
REMARK  status: ('A' for Active; 'I' for Inactive)
REMARK    1  A    between atoms: C_1  and  N_2
REMARK    2  A    between atoms: N_2  and  C_3
REMARK    3  A    between atoms: C_4  and  C_6
REMARK    4  A    between atoms: C_6  and  C_7
REMARK    5  A    between atoms: C_9  and  C_10
REMARK    6  A    between atoms: C_13  and  C_14
REMARK    7  A    between atoms: C_20  and  C_21
REMARK    8  A    between atoms: C_24  and  C_25
REMARK                            x       y       z     vdW  Elec       q    Type
REMARK                         _______ _______ _______ _____ _____    ______ ____
ROOT
ATOM      1  C   UNL     1       1.587   5.557  20.566  0.00  0.00    +0.000 A 
ATOM      2  C   UNL     1       0.677   6.495  21.131  0.00  0.00    +0.000 A 
ATOM      3  C   UNL     1       1.080   7.750  20.729  0.00  0.00    +0.000 A 
ATOM      4  O   UNL     1       2.163   7.629  19.899  0.00  0.00    +0.000 OA
ATOM      5  C   UNL     1       2.461   6.298  19.781  0.00  0.00    +0.000 A 
ENDROOT
BRANCH   3   6
ATOM      6  C   UNL     1       0.629   9.105  21.051  0.00  0.00    +0.000 A 
ATOM      7  C   UNL     1      -0.057   9.364  22.251  0.00  0.00    +0.000 A 
ATOM      8  C   UNL     1      -0.416  10.668  22.614  0.00  0.00    +0.000 A 
ATOM      9  C   UNL     1      -0.094  11.740  21.777  0.00  0.00    +0.000 A 
ATOM     10  C   UNL     1       0.551  11.494  20.562  0.00  0.00    +0.000 A 
ATOM     11  C   UNL     1       0.909  10.188  20.206  0.00  0.00    +0.000 A 
BRANCH   9  12
ATOM     12  C   UNL     1      -0.424  13.131  22.192  0.00  0.00    +0.000 C 
ATOM     13  N   UNL     1       0.084  14.175  21.617  0.00  0.00    +0.000 NA
ATOM     14  N   UNL     1      -1.293  13.365  23.216  0.00  0.00    +0.000 N 
ATOM     15  H   UNL     1       0.764  13.914  20.898  0.00  0.00    +0.000 HD
ATOM     16  H   UNL     1      -2.086  12.738  23.277  0.00  0.00    +0.000 HD
ATOM     17  H   UNL     1      -1.566  14.343  23.237  0.00  0.00    +0.000 HD
ENDBRANCH   9  12
ENDBRANCH   3   6
BRANCH   5  18
ATOM     18  C   UNL     1       3.600   5.955  18.924  0.00  0.00    +0.000 A 
ATOM     19  C   UNL     1       3.574   6.167  17.539  0.00  0.00    +0.000 A 
ATOM     20  C   UNL     1       4.708   5.908  16.750  0.00  0.00    +0.000 A 
ATOM     21  C   UNL     1       5.887   5.438  17.340  0.00  0.00    +0.000 A 
ATOM     22  C   UNL     1       5.914   5.190  18.712  0.00  0.00    +0.000 A 
ATOM     23  C   UNL     1       4.777   5.435  19.486  0.00  0.00    +0.000 A 
BRANCH  21  24
ATOM     24  C   UNL     1       7.100   5.181  16.515  0.00  0.00    +0.000 C 
ATOM     25  N   UNL     1       7.317   5.767  15.380  0.00  0.00    +0.000 NA
ATOM     26  N   UNL     1       8.054   4.309  16.944  0.00  0.00    +0.000 N 
ATOM     27  H   UNL     1       6.537   6.373  15.112  0.00  0.00    +0.000 HD
ATOM     28  H   UNL     1       8.231   4.301  17.939  0.00  0.00    +0.000 HD
ATOM     29  H   UNL     1       8.905   4.416  16.398  0.00  0.00    +0.000 HD
ENDBRANCH  21  24
ENDBRANCH   5  18
BRANCH   1  30
ATOM     30  C   UNL     1       1.593   4.085  20.826  0.00  0.00    +0.000 C 
BRANCH  30  34
ATOM     31  C   UNL     1       3.080   1.615  18.326  0.00  0.00    +0.000 C 
ATOM     32  N   UNL     1       2.911   2.449  19.504  0.00  0.00    +0.000 N 
ATOM     33  C   UNL     1       3.827   2.270  20.619  0.00  0.00    +0.000 C 
ATOM     34  C   UNL     1       1.770   3.249  19.562  0.00  0.00    +0.000 C 
ATOM     35  O   UNL     1       0.970   3.285  18.626  0.00  0.00    +0.000 OA
ENDBRANCH  30  34
ENDBRANCH   1  30
TORSDOF 6
ENDMDL
MODEL 9
REMARK VINA RESULT:      -8.0      1.248      1.490
REMARK  Name = 
REMARK  8 active torsions:
REMARK  status: ('A' for Active; 'I' for Inactive)
REMARK    1  A    between atoms: C_1  and  N_2
REMARK    2  A    between atoms: N_2  and  C_3
REMARK    3  A    between atoms: C_4  and  C_6
REMARK    4  A    between atoms: C_6  and  C_7
REMARK    5  A    between atoms: C_9  and  C_10
REMARK    6  A    between atoms: C_13  and  C_14
REMARK    7  A    between atoms: C_20  and  C_21
REMARK    8  A    between atoms: C_24  and  C_25
REMARK                            x       y       z     vdW  Elec       q    Type
REMARK                         _______ _______ _______ _____ _____    ______ ____
ROOT
ATOM      1  C   UNL     1       1.875   5.732  20.616  0.00  0.00    +0.000 A 
ATOM      2  C   UNL     1       0.953   6.717  21.075  0.00  0.00    +0.000 A 
ATOM      3  C   UNL     1       1.277   7.903  20.453  0.00  0.00    +0.000 A 
ATOM      4  O   UNL     1       2.320   7.688  19.591  0.00  0.00    +0.000 OA
ATOM      5  C   UNL     1       2.671   6.367  19.672  0.00  0.00    +0.000 A 
ENDROOT
BRANCH   3   6
ATOM      6  C   UNL     1       0.783   9.275  20.578  0.00  0.00    +0.000 A 
ATOM      7  C   UNL     1       0.744  10.125  19.458  0.00  0.00    +0.000 A 
ATOM      8  C   UNL     1       0.193  11.410  19.543  0.00  0.00    +0.000 A 
ATOM      9  C   UNL     1      -0.329  11.868  20.755  0.00  0.00    +0.000 A 
ATOM     10  C   UNL     1      -0.260  11.050  21.886  0.00  0.00    +0.000 A 
ATOM     11  C   UNL     1       0.290   9.766  21.795  0.00  0.00    +0.000 A 
BRANCH   9  12
ATOM     12  C   UNL     1      -0.968  13.211  20.829  0.00  0.00    +0.000 C 
ATOM     13  N   UNL     1      -1.285  13.778  21.950  0.00  0.00    +0.000 NA
ATOM     14  N   UNL     1      -1.250  13.911  19.694  0.00  0.00    +0.000 N 
ATOM     15  H   UNL     1      -1.091  13.167  22.747  0.00  0.00    +0.000 HD
ATOM     16  H   UNL     1      -0.570  13.840  18.948  0.00  0.00    +0.000 HD
ATOM     17  H   UNL     1      -1.486  14.874  19.917  0.00  0.00    +0.000 HD
ENDBRANCH   9  12
ENDBRANCH   3   6
BRANCH   5  18
ATOM     18  C   UNL     1       3.778   5.930  18.815  0.00  0.00    +0.000 A 
ATOM     19  C   UNL     1       3.617   5.739  17.436  0.00  0.00    +0.000 A 
ATOM     20  C   UNL     1       4.712   5.402  16.624  0.00  0.00    +0.000 A 
ATOM     21  C   UNL     1       5.987   5.255  17.181  0.00  0.00    +0.000 A 
ATOM     22  C   UNL     1       6.154   5.407  18.557  0.00  0.00    +0.000 A 
ATOM     23  C   UNL     1       5.056   5.727  19.360  0.00  0.00    +0.000 A 
BRANCH  21  24
ATOM     24  C   UNL     1       7.158   4.917  16.324  0.00  0.00    +0.000 C 
ATOM     25  N   UNL     1       8.101   4.113  16.705  0.00  0.00    +0.000 NA
ATOM     26  N   UNL     1       7.272   5.443  15.073  0.00  0.00    +0.000 N 
ATOM     27  H   UNL     1       7.961   3.796  17.667  0.00  0.00    +0.000 HD
ATOM     28  H   UNL     1       6.409   5.550  14.558  0.00  0.00    +0.000 HD
ATOM     29  H   UNL     1       7.983   4.946  14.542  0.00  0.00    +0.000 HD
ENDBRANCH  21  24
ENDBRANCH   5  18
BRANCH   1  30
ATOM     30  C   UNL     1       1.961   4.324  21.110  0.00  0.00    +0.000 C 
BRANCH  30  34
ATOM     31  C   UNL     1       2.499   1.490  18.611  0.00  0.00    +0.000 C 
ATOM     32  N   UNL     1       2.757   2.511  19.612  0.00  0.00    +0.000 N 
ATOM     33  C   UNL     1       4.064   2.546  20.249  0.00  0.00    +0.000 C 
ATOM     34  C   UNL     1       1.675   3.287  20.027  0.00  0.00    +0.000 C 
ATOM     35  O   UNL     1       0.559   3.145  19.524  0.00  0.00    +0.000 OA
ENDBRANCH  30  34
ENDBRANCH   1  30
TORSDOF 6
ENDMDL
