MODEL 1
REMARK VINA RESULT:      -7.6      0.000      0.000
REMARK  Name = 
REMARK  4 active torsions:
REMARK  status: ('A' for Active; 'I' for Inactive)
REMARK    1  A    between atoms: C_2  and  C_3
REMARK    2  A    between atoms: C_6  and  N_7
REMARK    3  A    between atoms: N_16  and  C_17
REMARK    4  A    between atoms: C_30  and  C_31
REMARK                            x       y       z     vdW  Elec       q    Type
REMARK                         _______ _______ _______ _____ _____    ______ ____
ROOT
ATOM      1  N   UNL     1       4.713   4.820  16.788  0.00  0.00    +0.000 N 
ATOM      2  C   UNL     1       4.065   3.915  17.591  0.00  0.00    +0.000 C 
ATOM      3  O   UNL     1       4.226   2.701  17.561  0.00  0.00    +0.000 OA
ATOM      4  C   UNL     1       3.001   4.657  18.437  0.00  0.00    +0.000 C 
ATOM      5  C   UNL     1       3.007   4.230  19.909  0.00  0.00    +0.000 C 
ATOM      6  C   UNL     1       2.526   2.819  20.176  0.00  0.00    +0.000 C 
ATOM      7  C   UNL     1       1.173   2.562  19.516  0.00  0.00    +0.000 C 
ATOM      8  C   UNL     1       1.194   2.894  18.027  0.00  0.00    +0.000 C 
ATOM      9  C   UNL     1       1.637   4.342  17.771  0.00  0.00    +0.000 C 
ATOM     10  N   UNL     1       3.447   6.050  18.208  0.00  0.00    +0.000 N 
ATOM     11  C   UNL     1       4.527   6.097  17.279  0.00  0.00    +0.000 C 
ATOM     12  S   UNL     1       5.527   7.407  16.920  0.00  0.00    +0.000 S 
ENDROOT
BRANCH  10  13
ATOM     13  C   UNL     1       2.671   7.183  18.605  0.00  0.00    +0.000 A 
ATOM     14  C   UNL     1       2.255   8.138  17.659  0.00  0.00    +0.000 A 
ATOM     15  C   UNL     1       1.483   9.247  18.003  0.00  0.00    +0.000 A 
ATOM     16  C   UNL     1       1.101   9.352  19.318  0.00  0.00    +0.000 A 
ATOM     17  C   UNL     1       1.457   8.442  20.270  0.00  0.00    +0.000 A 
ATOM     18  C   UNL     1       2.238   7.360  19.918  0.00  0.00    +0.000 A 
ATOM     19  C   UNL     1       0.894   8.844  21.572  0.00  0.00    +0.000 C 
ATOM     20  O   UNL     1       0.146  10.036  21.248  0.00  0.00    +0.000 OA
ATOM     21  C   UNL     1       0.257  10.369  19.927  0.00  0.00    +0.000 C 
ATOM     22  O   UNL     1      -0.255  11.317  19.368  0.00  0.00    +0.000 OA
ENDBRANCH  10  13
BRANCH   1  26
ATOM     23  C   UNL     1       6.541   3.848  13.133  0.00  0.00    +0.000 A 
ATOM     24  N   UNL     1       7.312   4.267  14.177  0.00  0.00    +0.000 NA
ATOM     25  C   UNL     1       6.704   4.552  15.358  0.00  0.00    +0.000 A 
ATOM     26  C   UNL     1       5.335   4.464  15.564  0.00  0.00    +0.000 A 
ATOM     27  C   UNL     1       4.567   4.002  14.483  0.00  0.00    +0.000 A 
ATOM     28  C   UNL     1       5.158   3.711  13.233  0.00  0.00    +0.000 A 
BRANCH  28  29
ATOM     29  C   UNL     1       4.304   3.300  12.067  0.00  0.00    +0.000 C 
ATOM     30  F   UNL     1       4.197   4.255  11.107  0.00  0.00    +0.000 F 
ATOM     31  F   UNL     1       4.798   2.197  11.438  0.00  0.00    +0.000 F 
ATOM     32  F   UNL     1       3.026   2.984  12.405  0.00  0.00    +0.000 F 
ENDBRANCH  28  29
BRANCH  23  34
ATOM     33  N   UNL     1       7.903   3.322  10.966  0.00  0.00    +0.000 NA
ATOM     34  C   UNL     1       7.290   3.569  11.944  0.00  0.00    +0.000 C 
ENDBRANCH  23  34
ENDBRANCH   1  26
TORSDOF 4
ENDMDL
MODEL 2
REMARK VINA RESULT:      -7.2      8.308     11.853
REMARK  Name = 
REMARK  4 active torsions:
REMARK  status: ('A' for Active; 'I' for Inactive)
REMARK    1  A    between atoms: C_2  and  C_3
REMARK    2  A    between atoms: C_6  and  N_7
REMARK    3  A    between atoms: N_16  and  C_17
REMARK    4  A    between atoms: C_30  and  C_31
REMARK                            x       y       z     vdW  Elec       q    Type
REMARK                         _______ _______ _______ _____ _____    ______ ____
ROOT
ATOM      1  N   UNL     1      -1.375  12.377  19.760  0.00  0.00    +0.000 N 
ATOM      2  C   UNL     1      -0.825  11.185  19.364  0.00  0.00    +0.000 C 
ATOM      3  O   UNL     1      -1.447  10.146  19.175  0.00  0.00    +0.000 OA
ATOM      4  C   UNL     1       0.718  11.321  19.334  0.00  0.00    +0.000 C 
ATOM      5  C   UNL     1       1.344  10.717  18.073  0.00  0.00    +0.000 C 
ATOM      6  C   UNL     1       1.277   9.207  17.975  0.00  0.00    +0.000 C 
ATOM      7  C   UNL     1       1.808   8.548  19.245  0.00  0.00    +0.000 C 
ATOM      8  C   UNL     1       1.114   9.078  20.496  0.00  0.00    +0.000 C 
ATOM      9  C   UNL     1       1.231  10.605  20.610  0.00  0.00    +0.000 C 
ATOM     10  N   UNL     1       0.824  12.796  19.418  0.00  0.00    +0.000 N 
ATOM     11  C   UNL     1      -0.457  13.395  19.589  0.00  0.00    +0.000 C 
ATOM     12  S   UNL     1      -0.862  15.027  19.463  0.00  0.00    +0.000 S 
ENDROOT
BRANCH  10  13
ATOM     13  C   UNL     1       2.068  13.467  19.639  0.00  0.00    +0.000 A 
ATOM     14  C   UNL     1       2.530  13.715  20.944  0.00  0.00    +0.000 A 
ATOM     15  C   UNL     1       3.743  14.351  21.201  0.00  0.00    +0.000 A 
ATOM     16  C   UNL     1       4.506  14.696  20.111  0.00  0.00    +0.000 A 
ATOM     17  C   UNL     1       4.114  14.458  18.827  0.00  0.00    +0.000 A 
ATOM     18  C   UNL     1       2.902  13.844  18.587  0.00  0.00    +0.000 A 
ATOM     19  C   UNL     1       5.148  14.949  17.897  0.00  0.00    +0.000 C 
ATOM     20  O   UNL     1       6.177  15.438  18.784  0.00  0.00    +0.000 OA
ATOM     21  C   UNL     1       5.824  15.312  20.099  0.00  0.00    +0.000 C 
ATOM     22  O   UNL     1       6.481  15.639  21.066  0.00  0.00    +0.000 OA
ENDBRANCH  10  13
BRANCH   1  26
ATOM     23  C   UNL     1      -5.127  12.758  21.610  0.00  0.00    +0.000 A 
ATOM     24  N   UNL     1      -5.062  12.563  20.263  0.00  0.00    +0.000 NA
ATOM     25  C   UNL     1      -3.840  12.417  19.686  0.00  0.00    +0.000 A 
ATOM     26  C   UNL     1      -2.644  12.476  20.386  0.00  0.00    +0.000 A 
ATOM     27  C   UNL     1      -2.738  12.649  21.777  0.00  0.00    +0.000 A 
ATOM     28  C   UNL     1      -3.989  12.822  22.412  0.00  0.00    +0.000 A 
BRANCH  28  29
ATOM     29  C   UNL     1      -4.059  13.090  23.888  0.00  0.00    +0.000 C 
ATOM     30  F   UNL     1      -4.508  12.032  24.614  0.00  0.00    +0.000 F 
ATOM     31  F   UNL     1      -2.839  13.404  24.408  0.00  0.00    +0.000 F 
ATOM     32  F   UNL     1      -4.874  14.127  24.222  0.00  0.00    +0.000 F 
ENDBRANCH  28  29
BRANCH  23  34
ATOM     33  N   UNL     1      -7.573  13.004  22.498  0.00  0.00    +0.000 NA
ATOM     34  C   UNL     1      -6.464  12.891  22.106  0.00  0.00    +0.000 C 
ENDBRANCH  23  34
ENDBRANCH   1  26
TORSDOF 4
ENDMDL
MODEL 3
REMARK VINA RESULT:      -7.0      0.531      1.266
REMARK  Name = 
REMARK  4 active torsions:
REMARK  status: ('A' for Active; 'I' for Inactive)
REMARK    1  A    between atoms: C_2  and  C_3
REMARK    2  A    between atoms: C_6  and  N_7
REMARK    3  A    between atoms: N_16  and  C_17
REMARK    4  A    between atoms: C_30  and  C_31
REMARK                            x       y       z     vdW  Elec       q    Type
REMARK                         _______ _______ _______ _____ _____    ______ ____
ROOT
ATOM      1  N   UNL     1       4.757   4.953  17.006  0.00  0.00    +0.000 N 
ATOM      2  C   UNL     1       4.139   3.948  17.706  0.00  0.00    +0.000 C 
ATOM      3  O   UNL     1       4.354   2.750  17.563  0.00  0.00    +0.000 OA
ATOM      4  C   UNL     1       3.031   4.557  18.601  0.00  0.00    +0.000 C 
ATOM      5  C   UNL     1       3.035   3.990  20.024  0.00  0.00    +0.000 C 
ATOM      6  C   UNL     1       2.613   2.540  20.145  0.00  0.00    +0.000 C 
ATOM      7  C   UNL     1       1.283   2.291  19.438  0.00  0.00    +0.000 C 
ATOM      8  C   UNL     1       1.310   2.767  17.989  0.00  0.00    +0.000 C 
ATOM      9  C   UNL     1       1.692   4.251  17.882  0.00  0.00    +0.000 C 
ATOM     10  N   UNL     1       3.418   5.984  18.515  0.00  0.00    +0.000 N 
ATOM     11  C   UNL     1       4.507   6.168  17.615  0.00  0.00    +0.000 C 
ATOM     12  S   UNL     1       5.453   7.548  17.403  0.00  0.00    +0.000 S 
ENDROOT
BRANCH  10  13
ATOM     13  C   UNL     1       2.586   7.039  19.005  0.00  0.00    +0.000 A 
ATOM     14  C   UNL     1       2.153   7.052  20.344  0.00  0.00    +0.000 A 
ATOM     15  C   UNL     1       1.355   8.069  20.863  0.00  0.00    +0.000 A 
ATOM     16  C   UNL     1       1.035   9.101  20.014  0.00  0.00    +0.000 A 
ATOM     17  C   UNL     1       1.447   9.148  18.715  0.00  0.00    +0.000 A 
ATOM     18  C   UNL     1       2.221   8.124  18.209  0.00  0.00    +0.000 A 
ATOM     19  C   UNL     1       0.935  10.376  18.079  0.00  0.00    +0.000 C 
ATOM     20  O   UNL     1       0.239  11.035  19.159  0.00  0.00    +0.000 OA
ATOM     21  C   UNL     1       0.272  10.304  20.313  0.00  0.00    +0.000 C 
ATOM     22  O   UNL     1      -0.228  10.600  21.380  0.00  0.00    +0.000 OA
ENDBRANCH  10  13
BRANCH   1  26
ATOM     23  C   UNL     1       6.663   4.412  13.303  0.00  0.00    +0.000 A 
ATOM     24  N   UNL     1       7.343   5.005  14.325  0.00  0.00    +0.000 NA
ATOM     25  C   UNL     1       6.717   5.148  15.523  0.00  0.00    +0.000 A 
ATOM     26  C   UNL     1       5.412   4.745  15.766  0.00  0.00    +0.000 A 
ATOM     27  C   UNL     1       4.743   4.111  14.706  0.00  0.00    +0.000 A 
ATOM     28  C   UNL     1       5.353   3.959  13.440  0.00  0.00    +0.000 A 
BRANCH  28  29
ATOM     29  C   UNL     1       4.587   3.355  12.297  0.00  0.00    +0.000 C 
ATOM     30  F   UNL     1       4.457   4.184  11.229  0.00  0.00    +0.000 F 
ATOM     31  F   UNL     1       5.187   2.228  11.820  0.00  0.00    +0.000 F 
ATOM     32  F   UNL     1       3.320   2.981  12.620  0.00  0.00    +0.000 F 
ENDBRANCH  28  29
BRANCH  23  34
ATOM     33  N   UNL     1       8.036   4.216  11.087  0.00  0.00    +0.000 NA
ATOM     34  C   UNL     1       7.424   4.309  12.093  0.00  0.00    +0.000 C 
ENDBRANCH  23  34
ENDBRANCH   1  26
TORSDOF 4
ENDMDL
MODEL 4
REMARK VINA RESULT:      -7.0      8.317     11.802
REMARK  Name = 
REMARK  4 active torsions:
REMARK  status: ('A' for Active; 'I' for Inactive)
REMARK    1  A    between atoms: C_2  and  C_3
REMARK    2  A    between atoms: C_6  and  N_7
REMARK    3  A    between atoms: N_16  and  C_17
REMARK    4  A    between atoms: C_30  and  C_31
REMARK                            x       y       z     vdW  Elec       q    Type
REMARK                         _______ _______ _______ _____ _____    ______ ____
ROOT
ATOM      1  N   UNL     1      -1.361  12.392  19.797  0.00  0.00    +0.000 N 
ATOM      2  C   UNL     1      -0.815  11.203  19.384  0.00  0.00    +0.000 C 
ATOM      3  O   UNL     1      -1.443  10.175  19.162  0.00  0.00    +0.000 OA
ATOM      4  C   UNL     1       0.729  11.326  19.381  0.00  0.00    +0.000 C 
ATOM      5  C   UNL     1       1.370  10.744  18.116  0.00  0.00    +0.000 C 
ATOM      6  C   UNL     1       1.291   9.237  17.984  0.00  0.00    +0.000 C 
ATOM      7  C   UNL     1       1.795   8.545  19.247  0.00  0.00    +0.000 C 
ATOM      8  C   UNL     1       1.087   9.054  20.498  0.00  0.00    +0.000 C 
ATOM      9  C   UNL     1       1.216  10.577  20.648  0.00  0.00    +0.000 C 
ATOM     10  N   UNL     1       0.848  12.797  19.499  0.00  0.00    +0.000 N 
ATOM     11  C   UNL     1      -0.431  13.405  19.664  0.00  0.00    +0.000 C 
ATOM     12  S   UNL     1      -0.819  15.043  19.567  0.00  0.00    +0.000 S 
ENDROOT
BRANCH  10  13
ATOM     13  C   UNL     1       2.093  13.452  19.754  0.00  0.00    +0.000 A 
ATOM     14  C   UNL     1       2.890  13.921  18.693  0.00  0.00    +0.000 A 
ATOM     15  C   UNL     1       4.102  14.578  18.900  0.00  0.00    +0.000 A 
ATOM     16  C   UNL     1       4.476  14.791  20.205  0.00  0.00    +0.000 A 
ATOM     17  C   UNL     1       3.730  14.377  21.268  0.00  0.00    +0.000 A 
ATOM     18  C   UNL     1       2.542  13.711  21.048  0.00  0.00    +0.000 A 
ATOM     19  C   UNL     1       4.407  14.754  22.523  0.00  0.00    +0.000 C 
ATOM     20  O   UNL     1       5.577  15.463  22.060  0.00  0.00    +0.000 OA
ATOM     21  C   UNL     1       5.653  15.494  20.696  0.00  0.00    +0.000 C 
ATOM     22  O   UNL     1       6.521  16.012  20.024  0.00  0.00    +0.000 OA
ENDBRANCH  10  13
BRANCH   1  26
ATOM     23  C   UNL     1      -5.138  12.767  21.595  0.00  0.00    +0.000 A 
ATOM     24  N   UNL     1      -5.055  12.563  20.250  0.00  0.00    +0.000 NA
ATOM     25  C   UNL     1      -3.825  12.419  19.691  0.00  0.00    +0.000 A 
ATOM     26  C   UNL     1      -2.638  12.489  20.406  0.00  0.00    +0.000 A 
ATOM     27  C   UNL     1      -2.752  12.670  21.794  0.00  0.00    +0.000 A 
ATOM     28  C   UNL     1      -4.012  12.841  22.411  0.00  0.00    +0.000 A 
BRANCH  28  29
ATOM     29  C   UNL     1      -4.103  13.119  23.885  0.00  0.00    +0.000 C 
ATOM     30  F   UNL     1      -4.635  12.094  24.601  0.00  0.00    +0.000 F 
ATOM     31  F   UNL     1      -2.880  13.359  24.435  0.00  0.00    +0.000 F 
ATOM     32  F   UNL     1      -4.860  14.206  24.195  0.00  0.00    +0.000 F 
ENDBRANCH  28  29
BRANCH  23  34
ATOM     33  N   UNL     1      -7.593  12.984  22.465  0.00  0.00    +0.000 NA
ATOM     34  C   UNL     1      -6.483  12.896  22.072  0.00  0.00    +0.000 C 
ENDBRANCH  23  34
ENDBRANCH   1  26
TORSDOF 4
ENDMDL
MODEL 5
REMARK VINA RESULT:      -6.9      7.356     12.276
REMARK  Name = 
REMARK  4 active torsions:
REMARK  status: ('A' for Active; 'I' for Inactive)
REMARK    1  A    between atoms: C_2  and  C_3
REMARK    2  A    between atoms: C_6  and  N_7
REMARK    3  A    between atoms: N_16  and  C_17
REMARK    4  A    between atoms: C_30  and  C_31
REMARK                            x       y       z     vdW  Elec       q    Type
REMARK                         _______ _______ _______ _____ _____    ______ ____
ROOT
ATOM      1  N   UNL     1      -1.582  12.381  22.145  0.00  0.00    +0.000 N 
ATOM      2  C   UNL     1      -0.849  13.302  21.441  0.00  0.00    +0.000 C 
ATOM      3  O   UNL     1      -1.084  14.504  21.390  0.00  0.00    +0.000 OA
ATOM      4  C   UNL     1       0.232  12.566  20.611  0.00  0.00    +0.000 C 
ATOM      5  C   UNL     1       1.608  13.236  20.698  0.00  0.00    +0.000 C 
ATOM      6  C   UNL     1       1.717  14.583  20.015  0.00  0.00    +0.000 C 
ATOM      7  C   UNL     1       1.207  14.516  18.578  0.00  0.00    +0.000 C 
ATOM      8  C   UNL     1      -0.203  13.941  18.499  0.00  0.00    +0.000 C 
ATOM      9  C   UNL     1      -0.291  12.553  19.152  0.00  0.00    +0.000 C 
ATOM     10  N   UNL     1       0.162  11.237  21.261  0.00  0.00    +0.000 N 
ATOM     11  C   UNL     1      -0.881  11.193  22.230  0.00  0.00    +0.000 C 
ATOM     12  S   UNL     1      -1.163  10.007  23.395  0.00  0.00    +0.000 S 
ENDROOT
BRANCH  10  13
ATOM     13  C   UNL     1       0.825  10.086  20.733  0.00  0.00    +0.000 A 
ATOM     14  C   UNL     1       1.090   8.970  21.548  0.00  0.00    +0.000 A 
ATOM     15  C   UNL     1       1.719   7.823  21.068  0.00  0.00    +0.000 A 
ATOM     16  C   UNL     1       2.039   7.805  19.731  0.00  0.00    +0.000 A 
ATOM     17  C   UNL     1       1.785   8.851  18.894  0.00  0.00    +0.000 A 
ATOM     18  C   UNL     1       1.179   9.987  19.388  0.00  0.00    +0.000 A 
ATOM     19  C   UNL     1       2.252   8.519  17.535  0.00  0.00    +0.000 C 
ATOM     20  O   UNL     1       2.746   7.170  17.682  0.00  0.00    +0.000 OA
ATOM     21  C   UNL     1       2.644   6.723  18.969  0.00  0.00    +0.000 C 
ATOM     22  O   UNL     1       2.980   5.636  19.394  0.00  0.00    +0.000 OA
ENDBRANCH  10  13
BRANCH   1  26
ATOM     23  C   UNL     1      -5.544  12.973  23.406  0.00  0.00    +0.000 A 
ATOM     24  N   UNL     1      -4.533  13.049  24.318  0.00  0.00    +0.000 NA
ATOM     25  C   UNL     1      -3.256  12.879  23.886  0.00  0.00    +0.000 A 
ATOM     26  C   UNL     1      -2.916  12.610  22.568  0.00  0.00    +0.000 A 
ATOM     27  C   UNL     1      -3.972  12.567  21.644  0.00  0.00    +0.000 A 
ATOM     28  C   UNL     1      -5.315  12.721  22.056  0.00  0.00    +0.000 A 
BRANCH  28  29
ATOM     29  C   UNL     1      -6.434  12.585  21.062  0.00  0.00    +0.000 C 
ATOM     30  F   UNL     1      -7.180  13.712  20.924  0.00  0.00    +0.000 F 
ATOM     31  F   UNL     1      -5.974  12.290  19.814  0.00  0.00    +0.000 F 
ATOM     32  F   UNL     1      -7.322  11.600  21.363  0.00  0.00    +0.000 F 
ENDBRANCH  28  29
BRANCH  23  34
ATOM     33  N   UNL     1      -7.916  13.359  24.435  0.00  0.00    +0.000 NA
ATOM     34  C   UNL     1      -6.844  13.176  23.975  0.00  0.00    +0.000 C 
ENDBRANCH  23  34
ENDBRANCH   1  26
TORSDOF 4
ENDMDL
MODEL 6
REMARK VINA RESULT:      -6.9      6.942     11.811
REMARK  Name = 
REMARK  4 active torsions:
REMARK  status: ('A' for Active; 'I' for Inactive)
REMARK    1  A    between atoms: C_2  and  C_3
REMARK    2  A    between atoms: C_6  and  N_7
REMARK    3  A    between atoms: N_16  and  C_17
REMARK    4  A    between atoms: C_30  and  C_31
REMARK                            x       y       z     vdW  Elec       q    Type
REMARK                         _______ _______ _______ _____ _____    ______ ____
ROOT
ATOM      1  N   UNL     1      -1.035  12.026  21.786  0.00  0.00    +0.000 N 
ATOM      2  C   UNL     1      -0.236  12.942  21.150  0.00  0.00    +0.000 C 
ATOM      3  O   UNL     1      -0.368  14.158  21.209  0.00  0.00    +0.000 OA
ATOM      4  C   UNL     1       0.767  12.194  20.237  0.00  0.00    +0.000 C 
ATOM      5  C   UNL     1       2.196  12.735  20.353  0.00  0.00    +0.000 C 
ATOM      6  C   UNL     1       2.411  14.124  19.788  0.00  0.00    +0.000 C 
ATOM      7  C   UNL     1       1.877  14.228  18.362  0.00  0.00    +0.000 C 
ATOM      8  C   UNL     1       0.422  13.783  18.263  0.00  0.00    +0.000 C 
ATOM      9  C   UNL     1       0.225  12.355  18.793  0.00  0.00    +0.000 C 
ATOM     10  N   UNL     1       0.592  10.823  20.769  0.00  0.00    +0.000 N 
ATOM     11  C   UNL     1      -0.438  10.781  21.753  0.00  0.00    +0.000 C 
ATOM     12  S   UNL     1      -0.804   9.524  22.815  0.00  0.00    +0.000 S 
ENDROOT
BRANCH  10  13
ATOM     13  C   UNL     1       1.147   9.672  20.128  0.00  0.00    +0.000 A 
ATOM     14  C   UNL     1       1.634   9.746  18.810  0.00  0.00    +0.000 A 
ATOM     15  C   UNL     1       2.196   8.650  18.156  0.00  0.00    +0.000 A 
ATOM     16  C   UNL     1       2.299   7.485  18.876  0.00  0.00    +0.000 A 
ATOM     17  C   UNL     1       1.864   7.366  20.163  0.00  0.00    +0.000 A 
ATOM     18  C   UNL     1       1.292   8.454  20.791  0.00  0.00    +0.000 A 
ATOM     19  C   UNL     1       2.113   5.995  20.644  0.00  0.00    +0.000 C 
ATOM     20  O   UNL     1       2.775   5.372  19.521  0.00  0.00    +0.000 OA
ATOM     21  C   UNL     1       2.891   6.222  18.457  0.00  0.00    +0.000 C 
ATOM     22  O   UNL     1       3.395   5.980  17.380  0.00  0.00    +0.000 OA
ENDBRANCH  10  13
BRANCH   1  26
ATOM     23  C   UNL     1      -4.914  12.835  23.179  0.00  0.00    +0.000 A 
ATOM     24  N   UNL     1      -3.885  12.763  24.070  0.00  0.00    +0.000 NA
ATOM     25  C   UNL     1      -2.633  12.526  23.597  0.00  0.00    +0.000 A 
ATOM     26  C   UNL     1      -2.339  12.328  22.256  0.00  0.00    +0.000 A 
ATOM     27  C   UNL     1      -3.411  12.437  21.355  0.00  0.00    +0.000 A 
ATOM     28  C   UNL     1      -4.730  12.665  21.809  0.00  0.00    +0.000 A 
BRANCH  28  29
ATOM     29  C   UNL     1      -5.873  12.692  20.834  0.00  0.00    +0.000 C 
ATOM     30  F   UNL     1      -6.545  13.873  20.814  0.00  0.00    +0.000 F 
ATOM     31  F   UNL     1      -5.457  12.481  19.554  0.00  0.00    +0.000 F 
ATOM     32  F   UNL     1      -6.820  11.744  21.069  0.00  0.00    +0.000 F 
ENDBRANCH  28  29
BRANCH  23  34
ATOM     33  N   UNL     1      -7.226  13.300  24.307  0.00  0.00    +0.000 NA
ATOM     34  C   UNL     1      -6.183  13.097  23.791  0.00  0.00    +0.000 C 
ENDBRANCH  23  34
ENDBRANCH   1  26
TORSDOF 4
ENDMDL
MODEL 7
REMARK VINA RESULT:      -6.9      8.604     10.362
REMARK  Name = 
REMARK  4 active torsions:
REMARK  status: ('A' for Active; 'I' for Inactive)
REMARK    1  A    between atoms: C_2  and  C_3
REMARK    2  A    between atoms: C_6  and  N_7
REMARK    3  A    between atoms: N_16  and  C_17
REMARK    4  A    between atoms: C_30  and  C_31
REMARK                            x       y       z     vdW  Elec       q    Type
REMARK                         _______ _______ _______ _____ _____    ______ ____
ROOT
ATOM      1  N   UNL     1       0.828  13.108  20.425  0.00  0.00    +0.000 N 
ATOM      2  C   UNL     1       0.793  11.959  21.173  0.00  0.00    +0.000 C 
ATOM      3  O   UNL     1       1.762  11.432  21.706  0.00  0.00    +0.000 OA
ATOM      4  C   UNL     1      -0.634  11.359  21.118  0.00  0.00    +0.000 C 
ATOM      5  C   UNL     1      -1.143  10.907  22.491  0.00  0.00    +0.000 C 
ATOM      6  C   UNL     1      -0.442   9.699  23.077  0.00  0.00    +0.000 C 
ATOM      7  C   UNL     1      -0.403   8.545  22.077  0.00  0.00    +0.000 C 
ATOM      8  C   UNL     1       0.196   8.970  20.740  0.00  0.00    +0.000 C 
ATOM      9  C   UNL     1      -0.553  10.165  20.132  0.00  0.00    +0.000 C 
ATOM     10  N   UNL     1      -1.356  12.523  20.556  0.00  0.00    +0.000 N 
ATOM     11  C   UNL     1      -0.456  13.579  20.232  0.00  0.00    +0.000 C 
ATOM     12  S   UNL     1      -0.832  15.173  19.830  0.00  0.00    +0.000 S 
ENDROOT
BRANCH  10  13
ATOM     13  C   UNL     1      -2.708  12.442  20.098  0.00  0.00    +0.000 A 
ATOM     14  C   UNL     1      -3.769  12.905  20.899  0.00  0.00    +0.000 A 
ATOM     15  C   UNL     1      -5.099  12.859  20.481  0.00  0.00    +0.000 A 
ATOM     16  C   UNL     1      -5.335  12.374  19.217  0.00  0.00    +0.000 A 
ATOM     17  C   UNL     1      -4.341  11.934  18.393  0.00  0.00    +0.000 A 
ATOM     18  C   UNL     1      -3.032  11.968  18.827  0.00  0.00    +0.000 A 
ATOM     19  C   UNL     1      -4.924  11.477  17.118  0.00  0.00    +0.000 C 
ATOM     20  O   UNL     1      -6.332  11.750  17.289  0.00  0.00    +0.000 OA
ATOM     21  C   UNL     1      -6.609  12.271  18.522  0.00  0.00    +0.000 C 
ATOM     22  O   UNL     1      -7.698  12.593  18.951  0.00  0.00    +0.000 OA
ENDBRANCH  10  13
BRANCH   1  26
ATOM     23  C   UNL     1       4.386  14.539  18.711  0.00  0.00    +0.000 A 
ATOM     24  N   UNL     1       3.604  13.673  18.006  0.00  0.00    +0.000 NA
ATOM     25  C   UNL     1       2.444  13.242  18.567  0.00  0.00    +0.000 A 
ATOM     26  C   UNL     1       2.013  13.613  19.833  0.00  0.00    +0.000 A 
ATOM     27  C   UNL     1       2.821  14.528  20.527  0.00  0.00    +0.000 A 
ATOM     28  C   UNL     1       4.043  14.987  19.985  0.00  0.00    +0.000 A 
BRANCH  28  29
ATOM     29  C   UNL     1       4.932  15.899  20.782  0.00  0.00    +0.000 C 
ATOM     30  F   UNL     1       5.153  17.101  20.189  0.00  0.00    +0.000 F 
ATOM     31  F   UNL     1       4.404  16.182  22.006  0.00  0.00    +0.000 F 
ATOM     32  F   UNL     1       6.167  15.387  21.031  0.00  0.00    +0.000 F 
ENDBRANCH  28  29
BRANCH  23  34
ATOM     33  N   UNL     1       6.567  15.238  17.452  0.00  0.00    +0.000 NA
ATOM     34  C   UNL     1       5.576  14.931  18.017  0.00  0.00    +0.000 C 
ENDBRANCH  23  34
ENDBRANCH   1  26
TORSDOF 4
ENDMDL
MODEL 8
REMARK VINA RESULT:      -6.9      7.525     11.097
REMARK  Name = 
REMARK  4 active torsions:
REMARK  status: ('A' for Active; 'I' for Inactive)
REMARK    1  A    between atoms: C_2  and  C_3
REMARK    2  A    between atoms: C_6  and  N_7
REMARK    3  A    between atoms: N_16  and  C_17
REMARK    4  A    between atoms: C_30  and  C_31
REMARK                            x       y       z     vdW  Elec       q    Type
REMARK                         _______ _______ _______ _____ _____    ______ ____
ROOT
ATOM      1  N   UNL     1      -1.365  12.197  19.273  0.00  0.00    +0.000 N 
ATOM      2  C   UNL     1      -0.756  10.997  19.005  0.00  0.00    +0.000 C 
ATOM      3  O   UNL     1      -1.337   9.943  18.779  0.00  0.00    +0.000 OA
ATOM      4  C   UNL     1       0.776  11.155  19.175  0.00  0.00    +0.000 C 
ATOM      5  C   UNL     1       1.571  10.509  18.036  0.00  0.00    +0.000 C 
ATOM      6  C   UNL     1       1.531   8.995  17.994  0.00  0.00    +0.000 C 
ATOM      7  C   UNL     1       1.893   8.396  19.351  0.00  0.00    +0.000 C 
ATOM      8  C   UNL     1       1.033   8.967  20.474  0.00  0.00    +0.000 C 
ATOM      9  C   UNL     1       1.120  10.499  20.538  0.00  0.00    +0.000 C 
ATOM     10  N   UNL     1       0.857  12.633  19.210  0.00  0.00    +0.000 N 
ATOM     11  C   UNL     1      -0.441  13.220  19.183  0.00  0.00    +0.000 C 
ATOM     12  S   UNL     1      -0.840  14.840  18.935  0.00  0.00    +0.000 S 
ENDROOT
BRANCH  10  13
ATOM     13  C   UNL     1       2.053  13.331  19.566  0.00  0.00    +0.000 A 
ATOM     14  C   UNL     1       2.396  13.529  20.916  0.00  0.00    +0.000 A 
ATOM     15  C   UNL     1       3.561  14.190  21.304  0.00  0.00    +0.000 A 
ATOM     16  C   UNL     1       4.400  14.609  20.299  0.00  0.00    +0.000 A 
ATOM     17  C   UNL     1       4.125  14.422  18.977  0.00  0.00    +0.000 A 
ATOM     18  C   UNL     1       2.959  13.784  18.608  0.00  0.00    +0.000 A 
ATOM     19  C   UNL     1       5.215  14.989  18.162  0.00  0.00    +0.000 C 
ATOM     20  O   UNL     1       6.149  15.466  19.154  0.00  0.00    +0.000 OA
ATOM     21  C   UNL     1       5.692  15.266  20.427  0.00  0.00    +0.000 C 
ATOM     22  O   UNL     1       6.254  15.566  21.461  0.00  0.00    +0.000 OA
ENDBRANCH  10  13
BRANCH   1  26
ATOM     23  C   UNL     1      -5.339  12.425  20.613  0.00  0.00    +0.000 A 
ATOM     24  N   UNL     1      -4.324  12.700  21.480  0.00  0.00    +0.000 NA
ATOM     25  C   UNL     1      -3.046  12.645  21.020  0.00  0.00    +0.000 A 
ATOM     26  C   UNL     1      -2.706  12.303  19.719  0.00  0.00    +0.000 A 
ATOM     27  C   UNL     1      -3.771  12.054  18.838  0.00  0.00    +0.000 A 
ATOM     28  C   UNL     1      -5.113  12.083  19.281  0.00  0.00    +0.000 A 
BRANCH  28  29
ATOM     29  C   UNL     1      -6.230  11.729  18.341  0.00  0.00    +0.000 C 
ATOM     30  F   UNL     1      -7.204  12.673  18.271  0.00  0.00    +0.000 F 
ATOM     31  F   UNL     1      -5.786  11.559  17.064  0.00  0.00    +0.000 F 
ATOM     32  F   UNL     1      -6.872  10.573  18.658  0.00  0.00    +0.000 F 
ENDBRANCH  28  29
BRANCH  23  34
ATOM     33  N   UNL     1      -7.720  12.597  21.677  0.00  0.00    +0.000 NA
ATOM     34  C   UNL     1      -6.640  12.521  21.205  0.00  0.00    +0.000 C 
ENDBRANCH  23  34
ENDBRANCH   1  26
TORSDOF 4
ENDMDL
MODEL 9
REMARK VINA RESULT:      -6.9      7.417     12.362
REMARK  Name = 
REMARK  4 active torsions:
REMARK  status: ('A' for Active; 'I' for Inactive)
REMARK    1  A    between atoms: C_2  and  C_3
REMARK    2  A    between atoms: C_6  and  N_7
REMARK    3  A    between atoms: N_16  and  C_17
REMARK    4  A    between atoms: C_30  and  C_31
REMARK                            x       y       z     vdW  Elec       q    Type
REMARK                         _______ _______ _______ _____ _____    ______ ____
ROOT
ATOM      1  N   UNL     1      -1.582  12.656  21.994  0.00  0.00    +0.000 N 
ATOM      2  C   UNL     1      -0.842  13.672  21.445  0.00  0.00    +0.000 C 
ATOM      3  O   UNL     1      -1.056  14.868  21.599  0.00  0.00    +0.000 OA
ATOM      4  C   UNL     1       0.218  13.070  20.488  0.00  0.00    +0.000 C 
ATOM      5  C   UNL     1       1.606  13.695  20.667  0.00  0.00    +0.000 C 
ATOM      6  C   UNL     1       1.730  15.136  20.219  0.00  0.00    +0.000 C 
ATOM      7  C   UNL     1       1.203  15.320  18.798  0.00  0.00    +0.000 C 
ATOM      8  C   UNL     1      -0.218  14.788  18.644  0.00  0.00    +0.000 C 
ATOM      9  C   UNL     1      -0.322  13.311  19.055  0.00  0.00    +0.000 C 
ATOM     10  N   UNL     1       0.132  11.652  20.905  0.00  0.00    +0.000 N 
ATOM     11  C   UNL     1      -0.901  11.461  21.868  0.00  0.00    +0.000 C 
ATOM     12  S   UNL     1      -1.190  10.100  22.820  0.00  0.00    +0.000 S 
ENDROOT
BRANCH  10  13
ATOM     13  C   UNL     1       0.769  10.596  20.182  0.00  0.00    +0.000 A 
ATOM     14  C   UNL     1       1.260  10.810  18.880  0.00  0.00    +0.000 A 
ATOM     15  C   UNL     1       1.902   9.811  18.148  0.00  0.00    +0.000 A 
ATOM     16  C   UNL     1       2.078   8.601  18.773  0.00  0.00    +0.000 A 
ATOM     17  C   UNL     1       1.641   8.349  20.041  0.00  0.00    +0.000 A 
ATOM     18  C   UNL     1       0.991   9.341  20.746  0.00  0.00    +0.000 A 
ATOM     19  C   UNL     1       1.980   6.963  20.413  0.00  0.00    +0.000 C 
ATOM     20  O   UNL     1       2.691   6.480  19.253  0.00  0.00    +0.000 OA
ATOM     21  C   UNL     1       2.757   7.419  18.263  0.00  0.00    +0.000 C 
ATOM     22  O   UNL     1       3.286   7.300  17.176  0.00  0.00    +0.000 OA
ENDBRANCH  10  13
BRANCH   1  26
ATOM     23  C   UNL     1      -5.513  13.087  23.409  0.00  0.00    +0.000 A 
ATOM     24  N   UNL     1      -4.470  13.238  24.274  0.00  0.00    +0.000 NA
ATOM     25  C   UNL     1      -3.205  13.120  23.791  0.00  0.00    +0.000 A 
ATOM     26  C   UNL     1      -2.907  12.831  22.468  0.00  0.00    +0.000 A 
ATOM     27  C   UNL     1      -3.998  12.710  21.591  0.00  0.00    +0.000 A 
ATOM     28  C   UNL     1      -5.328  12.808  22.057  0.00  0.00    +0.000 A 
BRANCH  28  29
ATOM     29  C   UNL     1      -6.479  12.590  21.116  0.00  0.00    +0.000 C 
ATOM     30  F   UNL     1      -6.097  12.264  19.854  0.00  0.00    +0.000 F 
ATOM     31  F   UNL     1      -7.291  11.576  21.530  0.00  0.00    +0.000 F 
ATOM     32  F   UNL     1      -7.292  13.671  20.979  0.00  0.00    +0.000 F 
ENDBRANCH  28  29
BRANCH  23  34
ATOM     33  N   UNL     1      -7.858  13.382  24.526  0.00  0.00    +0.000 NA
ATOM     34  C   UNL     1      -6.797  13.241  24.027  0.00  0.00    +0.000 C 
ENDBRANCH  23  34
ENDBRANCH   1  26
TORSDOF 4
ENDMDL
