MODEL 1
REMARK VINA RESULT:      -7.0      0.000      0.000
REMARK  Name = 
REMARK  5 active torsions:
REMARK  status: ('A' for Active; 'I' for Inactive)
REMARK    1  A    between atoms: C_1  and  C_2
REMARK    2  A    between atoms: C_8  and  C_9
REMARK    3  A    between atoms: N_13  and  C_14
REMARK    4  A    between atoms: C_14  and  C_15
REMARK    5  A    between atoms: C_23  and  C_24
REMARK                            x       y       z     vdW  Elec       q    Type
REMARK                         _______ _______ _______ _____ _____    ______ ____
ROOT
ATOM      1  C   UNL     1       3.890   0.772  18.287  0.00  0.00    +0.000 C 
ATOM      2  C   UNL     1       3.502   2.153  18.668  0.00  0.00    +0.000 A 
ATOM      3  O   UNL     1       2.645   2.268  19.689  0.00  0.00    +0.000 OA
ATOM      4  C   UNL     1       2.385   3.583  19.847  0.00  0.00    +0.000 A 
ATOM      5  C   UNL     1       1.506   4.007  20.831  0.00  0.00    +0.000 A 
ATOM      6  C   UNL     1       1.260   5.362  20.921  0.00  0.00    +0.000 A 
ATOM      7  C   UNL     1       1.855   6.277  20.043  0.00  0.00    +0.000 A 
ATOM      8  C   UNL     1       1.520   7.717  20.195  0.00  0.00    +0.000 A 
ATOM      9  C   UNL     1       0.669   8.292  21.296  0.00  0.00    +0.000 C 
ATOM     10  C   UNL     1       1.999   8.581  19.298  0.00  0.00    +0.000 A 
ATOM     11  C   UNL     1       2.862   8.184  18.189  0.00  0.00    +0.000 A 
ATOM     12  O   UNL     1       3.225   9.080  17.421  0.00  0.00    +0.000 OA
ATOM     13  N   UNL     1       3.245   6.852  18.104  0.00  0.00    +0.000 N 
ATOM     14  C   UNL     1       2.764   5.823  19.002  0.00  0.00    +0.000 A 
ATOM     15  C   UNL     1       3.067   4.393  18.923  0.00  0.00    +0.000 A 
ATOM     16  C   UNL     1       3.851   3.397  18.157  0.00  0.00    +0.000 A 
ATOM     17  C   UNL     1       4.828   3.400  17.030  0.00  0.00    +0.000 C 
ENDROOT
BRANCH  13  18
ATOM     18  C   UNL     1       4.211   6.593  17.068  0.00  0.00    +0.000 C 
BRANCH  18  19
ATOM     19  C   UNL     1       5.672   6.707  17.462  0.00  0.00    +0.000 A 
ATOM     20  C   UNL     1       6.394   7.819  16.993  0.00  0.00    +0.000 A 
ATOM     21  C   UNL     1       7.672   8.101  17.478  0.00  0.00    +0.000 A 
ATOM     22  C   UNL     1       8.248   7.278  18.443  0.00  0.00    +0.000 A 
ATOM     23  C   UNL     1       7.568   6.149  18.886  0.00  0.00    +0.000 A 
ATOM     24  C   UNL     1       6.298   5.854  18.383  0.00  0.00    +0.000 A 
ENDBRANCH  18  19
ENDBRANCH  13  18
TORSDOF 2
ENDMDL
MODEL 2
REMARK VINA RESULT:      -6.9      6.328     10.559
REMARK  Name = 
REMARK  5 active torsions:
REMARK  status: ('A' for Active; 'I' for Inactive)
REMARK    1  A    between atoms: C_1  and  C_2
REMARK    2  A    between atoms: C_8  and  C_9
REMARK    3  A    between atoms: N_13  and  C_14
REMARK    4  A    between atoms: C_14  and  C_15
REMARK    5  A    between atoms: C_23  and  C_24
REMARK                            x       y       z     vdW  Elec       q    Type
REMARK                         _______ _______ _______ _____ _____    ______ ____
ROOT
ATOM      1  C   UNL     1      -7.166  12.158  18.423  0.00  0.00    +0.000 C 
ATOM      2  C   UNL     1      -5.699  11.947  18.507  0.00  0.00    +0.000 A 
ATOM      3  O   UNL     1      -5.205  10.927  17.796  0.00  0.00    +0.000 OA
ATOM      4  C   UNL     1      -3.879  10.874  18.040  0.00  0.00    +0.000 A 
ATOM      5  C   UNL     1      -3.099   9.895  17.445  0.00  0.00    +0.000 A 
ATOM      6  C   UNL     1      -1.754   9.877  17.758  0.00  0.00    +0.000 A 
ATOM      7  C   UNL     1      -1.198  10.796  18.657  0.00  0.00    +0.000 A 
ATOM      8  C   UNL     1       0.255  10.695  18.957  0.00  0.00    +0.000 A 
ATOM      9  C   UNL     1       1.209   9.744  18.283  0.00  0.00    +0.000 C 
ATOM     10  C   UNL     1       0.771  11.497  19.889  0.00  0.00    +0.000 A 
ATOM     11  C   UNL     1      -0.017  12.492  20.611  0.00  0.00    +0.000 A 
ATOM     12  O   UNL     1       0.579  13.162  21.461  0.00  0.00    +0.000 OA
ATOM     13  N   UNL     1      -1.353  12.645  20.263  0.00  0.00    +0.000 N 
ATOM     14  C   UNL     1      -2.026  11.811  19.289  0.00  0.00    +0.000 A 
ATOM     15  C   UNL     1      -3.444  11.868  18.933  0.00  0.00    +0.000 A 
ATOM     16  C   UNL     1      -4.697  12.609  19.205  0.00  0.00    +0.000 A 
ATOM     17  C   UNL     1      -5.122  13.788  20.015  0.00  0.00    +0.000 C 
ENDROOT
BRANCH  13  18
ATOM     18  C   UNL     1      -2.000  13.747  20.926  0.00  0.00    +0.000 C 
BRANCH  18  19
ATOM     19  C   UNL     1      -2.495  13.490  22.338  0.00  0.00    +0.000 A 
ATOM     20  C   UNL     1      -2.465  14.559  23.250  0.00  0.00    +0.000 A 
ATOM     21  C   UNL     1      -3.091  14.459  24.494  0.00  0.00    +0.000 A 
ATOM     22  C   UNL     1      -3.760  13.289  24.845  0.00  0.00    +0.000 A 
ATOM     23  C   UNL     1      -3.761  12.204  23.974  0.00  0.00    +0.000 A 
ATOM     24  C   UNL     1      -3.116  12.296  22.739  0.00  0.00    +0.000 A 
ENDBRANCH  18  19
ENDBRANCH  13  18
TORSDOF 2
ENDMDL
MODEL 3
REMARK VINA RESULT:      -6.9      7.441     10.112
REMARK  Name = 
REMARK  5 active torsions:
REMARK  status: ('A' for Active; 'I' for Inactive)
REMARK    1  A    between atoms: C_1  and  C_2
REMARK    2  A    between atoms: C_8  and  C_9
REMARK    3  A    between atoms: N_13  and  C_14
REMARK    4  A    between atoms: C_14  and  C_15
REMARK    5  A    between atoms: C_23  and  C_24
REMARK                            x       y       z     vdW  Elec       q    Type
REMARK                         _______ _______ _______ _____ _____    ______ ____
ROOT
ATOM      1  C   UNL     1      -5.747  14.087  22.595  0.00  0.00    +0.000 C 
ATOM      2  C   UNL     1      -5.177  13.454  21.380  0.00  0.00    +0.000 A 
ATOM      3  O   UNL     1      -6.004  13.324  20.335  0.00  0.00    +0.000 OA
ATOM      4  C   UNL     1      -5.319  12.692  19.359  0.00  0.00    +0.000 A 
ATOM      5  C   UNL     1      -5.933  12.403  18.151  0.00  0.00    +0.000 A 
ATOM      6  C   UNL     1      -5.188  11.729  17.205  0.00  0.00    +0.000 A 
ATOM      7  C   UNL     1      -3.869  11.332  17.456  0.00  0.00    +0.000 A 
ATOM      8  C   UNL     1      -3.142  10.591  16.392  0.00  0.00    +0.000 A 
ATOM      9  C   UNL     1      -3.677  10.326  15.009  0.00  0.00    +0.000 C 
ATOM     10  C   UNL     1      -1.924  10.118  16.661  0.00  0.00    +0.000 A 
ATOM     11  C   UNL     1      -1.257  10.317  17.944  0.00  0.00    +0.000 A 
ATOM     12  O   UNL     1      -0.136   9.815  18.071  0.00  0.00    +0.000 OA
ATOM     13  N   UNL     1      -1.902  11.087  18.904  0.00  0.00    +0.000 N 
ATOM     14  C   UNL     1      -3.236  11.625  18.733  0.00  0.00    +0.000 A 
ATOM     15  C   UNL     1      -4.001  12.376  19.728  0.00  0.00    +0.000 A 
ATOM     16  C   UNL     1      -3.918  12.941  21.095  0.00  0.00    +0.000 A 
ATOM     17  C   UNL     1      -2.896  13.056  22.176  0.00  0.00    +0.000 C 
ENDROOT
BRANCH  13  18
ATOM     18  C   UNL     1      -1.101  11.346  20.072  0.00  0.00    +0.000 C 
BRANCH  18  19
ATOM     19  C   UNL     1      -0.167  12.540  19.999  0.00  0.00    +0.000 A 
ATOM     20  C   UNL     1       1.012  12.501  20.764  0.00  0.00    +0.000 A 
ATOM     21  C   UNL     1       2.012  13.459  20.592  0.00  0.00    +0.000 A 
ATOM     22  C   UNL     1       1.852  14.471  19.647  0.00  0.00    +0.000 A 
ATOM     23  C   UNL     1       0.674  14.552  18.913  0.00  0.00    +0.000 A 
ATOM     24  C   UNL     1      -0.337  13.606  19.102  0.00  0.00    +0.000 A 
ENDBRANCH  18  19
ENDBRANCH  13  18
TORSDOF 2
ENDMDL
MODEL 4
REMARK VINA RESULT:      -6.9      6.226     10.049
REMARK  Name = 
REMARK  5 active torsions:
REMARK  status: ('A' for Active; 'I' for Inactive)
REMARK    1  A    between atoms: C_1  and  C_2
REMARK    2  A    between atoms: C_8  and  C_9
REMARK    3  A    between atoms: N_13  and  C_14
REMARK    4  A    between atoms: C_14  and  C_15
REMARK    5  A    between atoms: C_23  and  C_24
REMARK                            x       y       z     vdW  Elec       q    Type
REMARK                         _______ _______ _______ _____ _____    ______ ____
ROOT
ATOM      1  C   UNL     1      -6.868  12.284  17.799  0.00  0.00    +0.000 C 
ATOM      2  C   UNL     1      -5.442  11.915  17.979  0.00  0.00    +0.000 A 
ATOM      3  O   UNL     1      -4.900  11.156  17.018  0.00  0.00    +0.000 OA
ATOM      4  C   UNL     1      -3.628  10.894  17.386  0.00  0.00    +0.000 A 
ATOM      5  C   UNL     1      -2.819  10.107  16.583  0.00  0.00    +0.000 A 
ATOM      6  C   UNL     1      -1.538   9.850  17.029  0.00  0.00    +0.000 A 
ATOM      7  C   UNL     1      -1.074  10.347  18.254  0.00  0.00    +0.000 A 
ATOM      8  C   UNL     1       0.312  10.007  18.671  0.00  0.00    +0.000 A 
ATOM      9  C   UNL     1       1.306   9.256  17.825  0.00  0.00    +0.000 C 
ATOM     10  C   UNL     1       0.724  10.387  19.881  0.00  0.00    +0.000 A 
ATOM     11  C   UNL     1      -0.111  11.146  20.808  0.00  0.00    +0.000 A 
ATOM     12  O   UNL     1       0.386  11.422  21.904  0.00  0.00    +0.000 OA
ATOM     13  N   UNL     1      -1.372  11.539  20.378  0.00  0.00    +0.000 N 
ATOM     14  C   UNL     1      -1.935  11.159  19.099  0.00  0.00    +0.000 A 
ATOM     15  C   UNL     1      -3.281  11.473  18.617  0.00  0.00    +0.000 A 
ATOM     16  C   UNL     1      -4.522  12.196  18.981  0.00  0.00    +0.000 A 
ATOM     17  C   UNL     1      -5.002  13.062  20.097  0.00  0.00    +0.000 C 
ENDROOT
BRANCH  13  18
ATOM     18  C   UNL     1      -2.054  12.405  21.304  0.00  0.00    +0.000 C 
BRANCH  18  19
ATOM     19  C   UNL     1      -1.721  13.883  21.217  0.00  0.00    +0.000 A 
ATOM     20  C   UNL     1      -1.817  14.649  22.392  0.00  0.00    +0.000 A 
ATOM     21  C   UNL     1      -1.331  15.957  22.438  0.00  0.00    +0.000 A 
ATOM     22  C   UNL     1      -0.738  16.520  21.310  0.00  0.00    +0.000 A 
ATOM     23  C   UNL     1      -0.674  15.793  20.126  0.00  0.00    +0.000 A 
ATOM     24  C   UNL     1      -1.182  14.493  20.073  0.00  0.00    +0.000 A 
ENDBRANCH  18  19
ENDBRANCH  13  18
TORSDOF 2
ENDMDL
MODEL 5
REMARK VINA RESULT:      -6.9      7.513     10.323
REMARK  Name = 
REMARK  5 active torsions:
REMARK  status: ('A' for Active; 'I' for Inactive)
REMARK    1  A    between atoms: C_1  and  C_2
REMARK    2  A    between atoms: C_8  and  C_9
REMARK    3  A    between atoms: N_13  and  C_14
REMARK    4  A    between atoms: C_14  and  C_15
REMARK    5  A    between atoms: C_23  and  C_24
REMARK                            x       y       z     vdW  Elec       q    Type
REMARK                         _______ _______ _______ _____ _____    ______ ____
ROOT
ATOM      1  C   UNL     1      -3.061  10.805  15.329  0.00  0.00    +0.000 C 
ATOM      2  C   UNL     1      -3.677  11.115  16.644  0.00  0.00    +0.000 A 
ATOM      3  O   UNL     1      -4.992  10.895  16.749  0.00  0.00    +0.000 OA
ATOM      4  C   UNL     1      -5.364  11.278  17.988  0.00  0.00    +0.000 A 
ATOM      5  C   UNL     1      -6.689  11.179  18.381  0.00  0.00    +0.000 A 
ATOM      6  C   UNL     1      -7.010  11.615  19.651  0.00  0.00    +0.000 A 
ATOM      7  C   UNL     1      -6.043  12.155  20.508  0.00  0.00    +0.000 A 
ATOM      8  C   UNL     1      -6.475  12.620  21.851  0.00  0.00    +0.000 A 
ATOM      9  C   UNL     1      -7.862  12.457  22.414  0.00  0.00    +0.000 C 
ATOM     10  C   UNL     1      -5.582  13.232  22.632  0.00  0.00    +0.000 A 
ATOM     11  C   UNL     1      -4.191  13.440  22.242  0.00  0.00    +0.000 A 
ATOM     12  O   UNL     1      -3.471  14.033  23.051  0.00  0.00    +0.000 OA
ATOM     13  N   UNL     1      -3.770  12.924  21.023  0.00  0.00    +0.000 N 
ATOM     14  C   UNL     1      -4.656  12.270  20.083  0.00  0.00    +0.000 A 
ATOM     15  C   UNL     1      -4.295  11.772  18.755  0.00  0.00    +0.000 A 
ATOM     16  C   UNL     1      -3.151  11.614  17.829  0.00  0.00    +0.000 A 
ATOM     17  C   UNL     1      -1.681  11.872  17.844  0.00  0.00    +0.000 C 
ENDROOT
BRANCH  13  18
ATOM     18  C   UNL     1      -2.353  13.052  20.799  0.00  0.00    +0.000 C 
BRANCH  18  19
ATOM     19  C   UNL     1      -1.479  11.940  21.349  0.00  0.00    +0.000 A 
ATOM     20  C   UNL     1      -1.638  11.585  22.699  0.00  0.00    +0.000 A 
ATOM     21  C   UNL     1      -1.025  10.444  23.219  0.00  0.00    +0.000 A 
ATOM     22  C   UNL     1      -0.245   9.636  22.394  0.00  0.00    +0.000 A 
ATOM     23  C   UNL     1      -0.039   9.996  21.067  0.00  0.00    +0.000 A 
ATOM     24  C   UNL     1      -0.634  11.150  20.553  0.00  0.00    +0.000 A 
ENDBRANCH  18  19
ENDBRANCH  13  18
TORSDOF 2
ENDMDL
MODEL 6
REMARK VINA RESULT:      -6.8      8.882     11.010
REMARK  Name = 
REMARK  5 active torsions:
REMARK  status: ('A' for Active; 'I' for Inactive)
REMARK    1  A    between atoms: C_1  and  C_2
REMARK    2  A    between atoms: C_8  and  C_9
REMARK    3  A    between atoms: N_13  and  C_14
REMARK    4  A    between atoms: C_14  and  C_15
REMARK    5  A    between atoms: C_23  and  C_24
REMARK                            x       y       z     vdW  Elec       q    Type
REMARK                         _______ _______ _______ _____ _____    ______ ____
ROOT
ATOM      1  C   UNL     1       7.639  11.720  23.602  0.00  0.00    +0.000 C 
ATOM      2  C   UNL     1       8.296  12.174  22.351  0.00  0.00    +0.000 A 
ATOM      3  O   UNL     1       9.189  11.335  21.812  0.00  0.00    +0.000 OA
ATOM      4  C   UNL     1       9.702  11.943  20.722  0.00  0.00    +0.000 A 
ATOM      5  C   UNL     1      10.674  11.311  19.963  0.00  0.00    +0.000 A 
ATOM      6  C   UNL     1      11.178  11.998  18.877  0.00  0.00    +0.000 A 
ATOM      7  C   UNL     1      10.744  13.291  18.561  0.00  0.00    +0.000 A 
ATOM      8  C   UNL     1      11.354  13.970  17.387  0.00  0.00    +0.000 A 
ATOM      9  C   UNL     1      12.331  13.332  16.435  0.00  0.00    +0.000 C 
ATOM     10  C   UNL     1      11.023  15.239  17.141  0.00  0.00    +0.000 A 
ATOM     11  C   UNL     1      10.068  15.987  17.954  0.00  0.00    +0.000 A 
ATOM     12  O   UNL     1       9.860  17.159  17.629  0.00  0.00    +0.000 OA
ATOM     13  N   UNL     1       9.433  15.320  18.995  0.00  0.00    +0.000 N 
ATOM     14  C   UNL     1       9.735  13.955  19.371  0.00  0.00    +0.000 A 
ATOM     15  C   UNL     1       9.161  13.221  20.500  0.00  0.00    +0.000 A 
ATOM     16  C   UNL     1       8.178  13.337  21.601  0.00  0.00    +0.000 A 
ATOM     17  C   UNL     1       7.186  14.340  22.088  0.00  0.00    +0.000 C 
ENDROOT
BRANCH  13  18
ATOM     18  C   UNL     1       8.406  16.098  19.638  0.00  0.00    +0.000 C 
BRANCH  18  19
ATOM     19  C   UNL     1       7.026  16.045  19.009  0.00  0.00    +0.000 A 
ATOM     20  C   UNL     1       6.701  14.922  18.229  0.00  0.00    +0.000 A 
ATOM     21  C   UNL     1       5.393  14.703  17.794  0.00  0.00    +0.000 A 
ATOM     22  C   UNL     1       4.386  15.604  18.135  0.00  0.00    +0.000 A 
ATOM     23  C   UNL     1       4.697  16.745  18.868  0.00  0.00    +0.000 A 
ATOM     24  C   UNL     1       6.010  16.975  19.284  0.00  0.00    +0.000 A 
ENDBRANCH  18  19
ENDBRANCH  13  18
TORSDOF 2
ENDMDL
MODEL 7
REMARK VINA RESULT:      -6.8      7.004      9.981
REMARK  Name = 
REMARK  5 active torsions:
REMARK  status: ('A' for Active; 'I' for Inactive)
REMARK    1  A    between atoms: C_1  and  C_2
REMARK    2  A    between atoms: C_8  and  C_9
REMARK    3  A    between atoms: N_13  and  C_14
REMARK    4  A    between atoms: C_14  and  C_15
REMARK    5  A    between atoms: C_23  and  C_24
REMARK                            x       y       z     vdW  Elec       q    Type
REMARK                         _______ _______ _______ _____ _____    ______ ____
ROOT
ATOM      1  C   UNL     1      -3.145  11.083  16.055  0.00  0.00    +0.000 C 
ATOM      2  C   UNL     1      -3.493  11.444  17.452  0.00  0.00    +0.000 A 
ATOM      3  O   UNL     1      -4.796  11.440  17.759  0.00  0.00    +0.000 OA
ATOM      4  C   UNL     1      -4.904  11.835  19.045  0.00  0.00    +0.000 A 
ATOM      5  C   UNL     1      -6.152  11.942  19.638  0.00  0.00    +0.000 A 
ATOM      6  C   UNL     1      -6.198  12.380  20.946  0.00  0.00    +0.000 A 
ATOM      7  C   UNL     1      -5.034  12.723  21.646  0.00  0.00    +0.000 A 
ATOM      8  C   UNL     1      -5.172  13.206  23.045  0.00  0.00    +0.000 A 
ATOM      9  C   UNL     1      -6.465  13.253  23.816  0.00  0.00    +0.000 C 
ATOM     10  C   UNL     1      -4.081  13.635  23.683  0.00  0.00    +0.000 A 
ATOM     11  C   UNL     1      -2.751  13.625  23.082  0.00  0.00    +0.000 A 
ATOM     12  O   UNL     1      -1.826  14.063  23.774  0.00  0.00    +0.000 OA
ATOM     13  N   UNL     1      -2.613  13.089  21.808  0.00  0.00    +0.000 N 
ATOM     14  C   UNL     1      -3.729  12.623  21.012  0.00  0.00    +0.000 A 
ATOM     15  C   UNL     1      -3.664  12.120  19.639  0.00  0.00    +0.000 A 
ATOM     16  C   UNL     1      -2.717  11.808  18.544  0.00  0.00    +0.000 A 
ATOM     17  C   UNL     1      -1.239  11.820  18.333  0.00  0.00    +0.000 C 
ENDROOT
BRANCH  13  18
ATOM     18  C   UNL     1      -1.246  12.991  21.367  0.00  0.00    +0.000 C 
BRANCH  18  19
ATOM     19  C   UNL     1      -0.504  11.721  21.744  0.00  0.00    +0.000 A 
ATOM     20  C   UNL     1      -1.047  10.921  22.765  0.00  0.00    +0.000 A 
ATOM     21  C   UNL     1      -0.542   9.646  23.023  0.00  0.00    +0.000 A 
ATOM     22  C   UNL     1       0.514   9.148  22.262  0.00  0.00    +0.000 A 
ATOM     23  C   UNL     1       1.093   9.942  21.278  0.00  0.00    +0.000 A 
ATOM     24  C   UNL     1       0.602  11.227  21.035  0.00  0.00    +0.000 A 
ENDBRANCH  18  19
ENDBRANCH  13  18
TORSDOF 2
ENDMDL
MODEL 8
REMARK VINA RESULT:      -6.8      7.241     10.132
REMARK  Name = 
REMARK  5 active torsions:
REMARK  status: ('A' for Active; 'I' for Inactive)
REMARK    1  A    between atoms: C_1  and  C_2
REMARK    2  A    between atoms: C_8  and  C_9
REMARK    3  A    between atoms: N_13  and  C_14
REMARK    4  A    between atoms: C_14  and  C_15
REMARK    5  A    between atoms: C_23  and  C_24
REMARK                            x       y       z     vdW  Elec       q    Type
REMARK                         _______ _______ _______ _____ _____    ______ ____
ROOT
ATOM      1  C   UNL     1      -3.009  10.831  15.335  0.00  0.00    +0.000 C 
ATOM      2  C   UNL     1      -3.596  11.152  16.660  0.00  0.00    +0.000 A 
ATOM      3  O   UNL     1      -4.929  11.082  16.751  0.00  0.00    +0.000 OA
ATOM      4  C   UNL     1      -5.264  11.450  18.006  0.00  0.00    +0.000 A 
ATOM      5  C   UNL     1      -6.595  11.489  18.389  0.00  0.00    +0.000 A 
ATOM      6  C   UNL     1      -6.874  11.902  19.677  0.00  0.00    +0.000 A 
ATOM      7  C   UNL     1      -5.857  12.288  20.560  0.00  0.00    +0.000 A 
ATOM      8  C   UNL     1      -6.244  12.741  21.922  0.00  0.00    +0.000 A 
ATOM      9  C   UNL     1      -7.645  12.714  22.472  0.00  0.00    +0.000 C 
ATOM     10  C   UNL     1      -5.293  13.209  22.732  0.00  0.00    +0.000 A 
ATOM     11  C   UNL     1      -3.883  13.272  22.355  0.00  0.00    +0.000 A 
ATOM     12  O   UNL     1      -3.106  13.741  23.192  0.00  0.00    +0.000 OA
ATOM     13  N   UNL     1      -3.515  12.764  21.116  0.00  0.00    +0.000 N 
ATOM     14  C   UNL     1      -4.464  12.260  20.145  0.00  0.00    +0.000 A 
ATOM     15  C   UNL     1      -4.152  11.783  18.797  0.00  0.00    +0.000 A 
ATOM     16  C   UNL     1      -3.026  11.533  17.868  0.00  0.00    +0.000 A 
ATOM     17  C   UNL     1      -1.536  11.618  17.900  0.00  0.00    +0.000 C 
ENDROOT
BRANCH  13  18
ATOM     18  C   UNL     1      -2.091  12.737  20.902  0.00  0.00    +0.000 C 
BRANCH  18  19
ATOM     19  C   UNL     1      -1.351  11.523  21.434  0.00  0.00    +0.000 A 
ATOM     20  C   UNL     1      -0.462  10.863  20.568  0.00  0.00    +0.000 A 
ATOM     21  C   UNL     1       0.403   9.876  21.042  0.00  0.00    +0.000 A 
ATOM     22  C   UNL     1       0.395   9.534  22.393  0.00  0.00    +0.000 A 
ATOM     23  C   UNL     1      -0.509  10.144  23.257  0.00  0.00    +0.000 A 
ATOM     24  C   UNL     1      -1.390  11.116  22.777  0.00  0.00    +0.000 A 
ENDBRANCH  18  19
ENDBRANCH  13  18
TORSDOF 2
ENDMDL
MODEL 9
REMARK VINA RESULT:      -6.7      6.016      9.649
REMARK  Name = 
REMARK  5 active torsions:
REMARK  status: ('A' for Active; 'I' for Inactive)
REMARK    1  A    between atoms: C_1  and  C_2
REMARK    2  A    between atoms: C_8  and  C_9
REMARK    3  A    between atoms: N_13  and  C_14
REMARK    4  A    between atoms: C_14  and  C_15
REMARK    5  A    between atoms: C_23  and  C_24
REMARK                            x       y       z     vdW  Elec       q    Type
REMARK                         _______ _______ _______ _____ _____    ______ ____
ROOT
ATOM      1  C   UNL     1      -1.168  14.504  23.997  0.00  0.00    +0.000 C 
ATOM      2  C   UNL     1      -1.930  13.980  22.836  0.00  0.00    +0.000 A 
ATOM      3  O   UNL     1      -3.264  14.026  22.933  0.00  0.00    +0.000 OA
ATOM      4  C   UNL     1      -3.766  13.468  21.811  0.00  0.00    +0.000 A 
ATOM      5  C   UNL     1      -5.136  13.362  21.637  0.00  0.00    +0.000 A 
ATOM      6  C   UNL     1      -5.585  12.755  20.482  0.00  0.00    +0.000 A 
ATOM      7  C   UNL     1      -4.696  12.245  19.527  0.00  0.00    +0.000 A 
ATOM      8  C   UNL     1      -5.262  11.587  18.321  0.00  0.00    +0.000 A 
ATOM      9  C   UNL     1      -6.728  11.519  17.984  0.00  0.00    +0.000 C 
ATOM     10  C   UNL     1      -4.424  11.006  17.459  0.00  0.00    +0.000 A 
ATOM     11  C   UNL     1      -2.974  11.011  17.630  0.00  0.00    +0.000 A 
ATOM     12  O   UNL     1      -2.312  10.425  16.768  0.00  0.00    +0.000 OA
ATOM     13  N   UNL     1      -2.446  11.705  18.711  0.00  0.00    +0.000 N 
ATOM     14  C   UNL     1      -3.258  12.346  19.724  0.00  0.00    +0.000 A 
ATOM     15  C   UNL     1      -2.770  13.026  20.924  0.00  0.00    +0.000 A 
ATOM     16  C   UNL     1      -1.529  13.422  21.629  0.00  0.00    +0.000 A 
ATOM     17  C   UNL     1      -0.058  13.343  21.392  0.00  0.00    +0.000 C 
ENDROOT
BRANCH  13  18
ATOM     18  C   UNL     1      -1.007  11.774  18.706  0.00  0.00    +0.000 C 
BRANCH  18  19
ATOM     19  C   UNL     1      -0.270  10.531  19.171  0.00  0.00    +0.000 A 
ATOM     20  C   UNL     1       0.738  10.014  18.339  0.00  0.00    +0.000 A 
ATOM     21  C   UNL     1       1.594   9.007  18.787  0.00  0.00    +0.000 A 
ATOM     22  C   UNL     1       1.457   8.502  20.078  0.00  0.00    +0.000 A 
ATOM     23  C   UNL     1       0.437   8.968  20.901  0.00  0.00    +0.000 A 
ATOM     24  C   UNL     1      -0.433   9.960  20.443  0.00  0.00    +0.000 A 
ENDBRANCH  18  19
ENDBRANCH  13  18
TORSDOF 2
ENDMDL
