MODEL 1
REMARK VINA RESULT:      -7.6      0.000      0.000
REMARK  Name = 
REMARK  16 active torsions:
REMARK  status: ('A' for Active; 'I' for Inactive)
REMARK    1  A    between atoms: C_1  and  N_2
REMARK    2  A    between atoms: N_2  and  C_3
REMARK    3  A    between atoms: C_3  and  C_4
REMARK    4  A    between atoms: C_4  and  C_5
REMARK    5  A    between atoms: C_11  and  C_13
REMARK    6  A    between atoms: C_13  and  C_14
REMARK    7  A    between atoms: C_17  and  O_18
REMARK    8  A    between atoms: O_18  and  C_19
REMARK    9  A    between atoms: C_19  and  C_20
REMARK   10  A    between atoms: C_20  and  O_21
REMARK   11  A    between atoms: O_21  and  C_22
REMARK   12  A    between atoms: C_25  and  C_26
REMARK   13  A    between atoms: C_26  and  C_27
REMARK   14  A    between atoms: C_27  and  C_28
REMARK   15  A    between atoms: C_28  and  C_29
REMARK   16  A    between atoms: C_29  and  O_31
REMARK                            x       y       z     vdW  Elec       q    Type
REMARK                         _______ _______ _______ _____ _____    ______ ____
ROOT
ATOM      1  C   UNL     1       2.725   7.226  18.301  0.00  0.00    +0.000 A 
ATOM      2  C   UNL     1       2.458   6.943  19.642  0.00  0.00    +0.000 A 
ATOM      3  C   UNL     1       1.731   7.839  20.422  0.00  0.00    +0.000 A 
ATOM      4  C   UNL     1       1.244   9.027  19.878  0.00  0.00    +0.000 A 
ATOM      5  C   UNL     1       1.486   9.304  18.532  0.00  0.00    +0.000 A 
ATOM      6  C   UNL     1       2.222   8.408  17.743  0.00  0.00    +0.000 A 
ENDROOT
BRANCH   1   7
ATOM      7  C   UNL     1       3.515   6.235  17.477  0.00  0.00    +0.000 C 
BRANCH   7  10
ATOM      8  C   UNL     1       7.202   5.428  17.966  0.00  0.00    +0.000 C 
ATOM      9  N   UNL     1       5.756   5.251  17.966  0.00  0.00    +0.000 N 
ATOM     10  C   UNL     1       5.025   6.390  17.598  0.00  0.00    +0.000 C 
ATOM     11  O   UNL     1       5.590   7.466  17.391  0.00  0.00    +0.000 OA
BRANCH   9  12
ATOM     12  C   UNL     1       5.180   3.897  18.056  0.00  0.00    +0.000 C 
BRANCH  12  13
ATOM     13  C   UNL     1       4.749   3.460  19.465  0.00  0.00    +0.000 C 
BRANCH  13  14
ATOM     14  C   UNL     1       3.256   3.290  19.588  0.00  0.00    +0.000 A 
ATOM     15  C   UNL     1       2.502   2.819  18.502  0.00  0.00    +0.000 A 
ATOM     16  C   UNL     1       1.120   2.668  18.614  0.00  0.00    +0.000 A 
ATOM     17  C   UNL     1       0.478   2.989  19.808  0.00  0.00    +0.000 A 
ATOM     18  C   UNL     1       1.219   3.455  20.894  0.00  0.00    +0.000 A 
ATOM     19  C   UNL     1       2.602   3.606  20.785  0.00  0.00    +0.000 A 
ENDBRANCH  13  14
ENDBRANCH  12  13
ENDBRANCH   9  12
ENDBRANCH   7  10
ENDBRANCH   1   7
BRANCH   4  20
ATOM     20  O   UNL     1       0.531   9.976  20.566  0.00  0.00    +0.000 OA
BRANCH  20  21
ATOM     21  C   UNL     1       1.157  11.252  20.733  0.00  0.00    +0.000 C 
BRANCH  21  22
ATOM     22  C   UNL     1       0.125  12.381  20.725  0.00  0.00    +0.000 C 
BRANCH  22  23
ATOM     23  O   UNL     1      -0.951  12.024  21.592  0.00  0.00    +0.000 OA
BRANCH  23  24
ATOM     24  C   UNL     1      -2.207  12.193  21.077  0.00  0.00    +0.000 A 
ATOM     25  C   UNL     1      -3.169  12.595  22.001  0.00  0.00    +0.000 A 
ATOM     26  C   UNL     1      -4.489  12.808  21.602  0.00  0.00    +0.000 A 
ATOM     27  C   UNL     1      -4.859  12.653  20.260  0.00  0.00    +0.000 A 
ATOM     28  C   UNL     1      -3.887  12.255  19.334  0.00  0.00    +0.000 A 
ATOM     29  C   UNL     1      -2.566  12.029  19.739  0.00  0.00    +0.000 A 
BRANCH  27  30
ATOM     30  C   UNL     1      -6.281  12.895  19.818  0.00  0.00    +0.000 C 
BRANCH  30  31
ATOM     31  C   UNL     1      -7.052  11.617  19.469  0.00  0.00    +0.000 C 
BRANCH  31  32
ATOM     32  C   UNL     1      -7.634  10.898  20.687  0.00  0.00    +0.000 C 
BRANCH  32  33
ATOM     33  C   UNL     1      -7.627   9.404  20.488  0.00  0.00    +0.000 C 
ATOM     34  O   UNL     1      -7.681   8.566  21.380  0.00  0.00    +0.000 OA
BRANCH  33  35
ATOM     35  O   UNL     1      -7.550   9.050  19.183  0.00  0.00    +0.000 OA
ATOM     36  H   UNL     1      -6.867   9.545  18.690  0.00  0.00    +0.000 HD
ENDBRANCH  33  35
ENDBRANCH  32  33
ENDBRANCH  31  32
ENDBRANCH  30  31
ENDBRANCH  27  30
ENDBRANCH  23  24
ENDBRANCH  22  23
ENDBRANCH  21  22
ENDBRANCH  20  21
ENDBRANCH   4  20
TORSDOF 15
ENDMDL
MODEL 2
REMARK VINA RESULT:      -7.2      2.608      3.555
REMARK  Name = 
REMARK  16 active torsions:
REMARK  status: ('A' for Active; 'I' for Inactive)
REMARK    1  A    between atoms: C_1  and  N_2
REMARK    2  A    between atoms: N_2  and  C_3
REMARK    3  A    between atoms: C_3  and  C_4
REMARK    4  A    between atoms: C_4  and  C_5
REMARK    5  A    between atoms: C_11  and  C_13
REMARK    6  A    between atoms: C_13  and  C_14
REMARK    7  A    between atoms: C_17  and  O_18
REMARK    8  A    between atoms: O_18  and  C_19
REMARK    9  A    between atoms: C_19  and  C_20
REMARK   10  A    between atoms: C_20  and  O_21
REMARK   11  A    between atoms: O_21  and  C_22
REMARK   12  A    between atoms: C_25  and  C_26
REMARK   13  A    between atoms: C_26  and  C_27
REMARK   14  A    between atoms: C_27  and  C_28
REMARK   15  A    between atoms: C_28  and  C_29
REMARK   16  A    between atoms: C_29  and  O_31
REMARK                            x       y       z     vdW  Elec       q    Type
REMARK                         _______ _______ _______ _____ _____    ______ ____
ROOT
ATOM      1  C   UNL     1       3.213   7.268  17.953  0.00  0.00    +0.000 A 
ATOM      2  C   UNL     1       2.873   6.737  19.200  0.00  0.00    +0.000 A 
ATOM      3  C   UNL     1       2.000   7.418  20.044  0.00  0.00    +0.000 A 
ATOM      4  C   UNL     1       1.435   8.633  19.657  0.00  0.00    +0.000 A 
ATOM      5  C   UNL     1       1.751   9.156  18.402  0.00  0.00    +0.000 A 
ATOM      6  C   UNL     1       2.634   8.478  17.551  0.00  0.00    +0.000 A 
ENDROOT
BRANCH   1   7
ATOM      7  C   UNL     1       4.163   6.507  17.057  0.00  0.00    +0.000 C 
BRANCH   7  10
ATOM      8  C   UNL     1       7.489   5.310  18.465  0.00  0.00    +0.000 C 
ATOM      9  N   UNL     1       6.077   5.300  18.109  0.00  0.00    +0.000 N 
ATOM     10  C   UNL     1       5.604   6.494  17.547  0.00  0.00    +0.000 C 
ATOM     11  O   UNL     1       6.331   7.487  17.464  0.00  0.00    +0.000 OA
BRANCH   9  12
ATOM     12  C   UNL     1       5.334   4.026  18.081  0.00  0.00    +0.000 C 
BRANCH  12  13
ATOM     13  C   UNL     1       4.866   3.510  19.450  0.00  0.00    +0.000 C 
BRANCH  13  14
ATOM     14  C   UNL     1       3.371   3.320  19.518  0.00  0.00    +0.000 A 
ATOM     15  C   UNL     1       2.720   3.250  20.758  0.00  0.00    +0.000 A 
ATOM     16  C   UNL     1       1.338   3.068  20.821  0.00  0.00    +0.000 A 
ATOM     17  C   UNL     1       0.596   2.950  19.648  0.00  0.00    +0.000 A 
ATOM     18  C   UNL     1       1.235   3.021  18.410  0.00  0.00    +0.000 A 
ATOM     19  C   UNL     1       2.617   3.204  18.344  0.00  0.00    +0.000 A 
ENDBRANCH  13  14
ENDBRANCH  12  13
ENDBRANCH   9  12
ENDBRANCH   7  10
ENDBRANCH   1   7
BRANCH   4  20
ATOM     20  O   UNL     1       0.577   9.383  20.420  0.00  0.00    +0.000 OA
BRANCH  20  21
ATOM     21  C   UNL     1       0.048   8.758  21.594  0.00  0.00    +0.000 C 
BRANCH  21  22
ATOM     22  C   UNL     1       0.069   9.715  22.788  0.00  0.00    +0.000 C 
BRANCH  22  23
ATOM     23  O   UNL     1       0.112  11.055  22.300  0.00  0.00    +0.000 OA
BRANCH  23  24
ATOM     24  C   UNL     1      -1.097  11.686  22.196  0.00  0.00    +0.000 A 
ATOM     25  C   UNL     1      -1.880  11.644  23.348  0.00  0.00    +0.000 A 
ATOM     26  C   UNL     1      -3.134  12.254  23.375  0.00  0.00    +0.000 A 
ATOM     27  C   UNL     1      -3.610  12.948  22.256  0.00  0.00    +0.000 A 
ATOM     28  C   UNL     1      -2.817  12.995  21.103  0.00  0.00    +0.000 A 
ATOM     29  C   UNL     1      -1.565  12.369  21.073  0.00  0.00    +0.000 A 
BRANCH  27  30
ATOM     30  C   UNL     1      -4.959  13.624  22.283  0.00  0.00    +0.000 C 
BRANCH  30  31
ATOM     31  C   UNL     1      -5.144  14.600  23.449  0.00  0.00    +0.000 C 
BRANCH  31  32
ATOM     32  C   UNL     1      -4.462  15.952  23.233  0.00  0.00    +0.000 C 
BRANCH  32  33
ATOM     33  C   UNL     1      -4.016  16.550  24.543  0.00  0.00    +0.000 C 
ATOM     34  O   UNL     1      -2.866  16.862  24.830  0.00  0.00    +0.000 OA
BRANCH  33  35
ATOM     35  O   UNL     1      -5.037  16.718  25.416  0.00  0.00    +0.000 OA
ATOM     36  H   UNL     1      -5.426  15.875  25.720  0.00  0.00    +0.000 HD
ENDBRANCH  33  35
ENDBRANCH  32  33
ENDBRANCH  31  32
ENDBRANCH  30  31
ENDBRANCH  27  30
ENDBRANCH  23  24
ENDBRANCH  22  23
ENDBRANCH  21  22
ENDBRANCH  20  21
ENDBRANCH   4  20
TORSDOF 15
ENDMDL
MODEL 3
REMARK VINA RESULT:      -7.1      1.944      3.088
REMARK  Name = 
REMARK  16 active torsions:
REMARK  status: ('A' for Active; 'I' for Inactive)
REMARK    1  A    between atoms: C_1  and  N_2
REMARK    2  A    between atoms: N_2  and  C_3
REMARK    3  A    between atoms: C_3  and  C_4
REMARK    4  A    between atoms: C_4  and  C_5
REMARK    5  A    between atoms: C_11  and  C_13
REMARK    6  A    between atoms: C_13  and  C_14
REMARK    7  A    between atoms: C_17  and  O_18
REMARK    8  A    between atoms: O_18  and  C_19
REMARK    9  A    between atoms: C_19  and  C_20
REMARK   10  A    between atoms: C_20  and  O_21
REMARK   11  A    between atoms: O_21  and  C_22
REMARK   12  A    between atoms: C_25  and  C_26
REMARK   13  A    between atoms: C_26  and  C_27
REMARK   14  A    between atoms: C_27  and  C_28
REMARK   15  A    between atoms: C_28  and  C_29
REMARK   16  A    between atoms: C_29  and  O_31
REMARK                            x       y       z     vdW  Elec       q    Type
REMARK                         _______ _______ _______ _____ _____    ______ ____
ROOT
ATOM      1  C   UNL     1       4.443   5.992  18.727  0.00  0.00    +0.000 A 
ATOM      2  C   UNL     1       3.410   5.901  19.663  0.00  0.00    +0.000 A 
ATOM      3  C   UNL     1       2.346   6.799  19.633  0.00  0.00    +0.000 A 
ATOM      4  C   UNL     1       2.283   7.798  18.661  0.00  0.00    +0.000 A 
ATOM      5  C   UNL     1       3.300   7.879  17.708  0.00  0.00    +0.000 A 
ATOM      6  C   UNL     1       4.375   6.981  17.737  0.00  0.00    +0.000 A 
ENDROOT
BRANCH   1   7
ATOM      7  C   UNL     1       5.584   5.003  18.782  0.00  0.00    +0.000 C 
BRANCH   7  10
ATOM      8  C   UNL     1       5.890   3.590  15.262  0.00  0.00    +0.000 C 
ATOM      9  N   UNL     1       5.346   3.831  16.592  0.00  0.00    +0.000 N 
ATOM     10  C   UNL     1       6.149   4.629  17.419  0.00  0.00    +0.000 C 
ATOM     11  O   UNL     1       7.266   5.001  17.051  0.00  0.00    +0.000 OA
BRANCH   9  12
ATOM     12  C   UNL     1       3.940   3.497  16.884  0.00  0.00    +0.000 C 
BRANCH  12  13
ATOM     13  C   UNL     1       3.729   2.245  17.750  0.00  0.00    +0.000 C 
BRANCH  13  14
ATOM     14  C   UNL     1       2.871   2.515  18.960  0.00  0.00    +0.000 A 
ATOM     15  C   UNL     1       3.413   2.421  20.251  0.00  0.00    +0.000 A 
ATOM     16  C   UNL     1       2.618   2.665  21.371  0.00  0.00    +0.000 A 
ATOM     17  C   UNL     1       1.275   3.001  21.213  0.00  0.00    +0.000 A 
ATOM     18  C   UNL     1       0.728   3.100  19.934  0.00  0.00    +0.000 A 
ATOM     19  C   UNL     1       1.522   2.858  18.812  0.00  0.00    +0.000 A 
ENDBRANCH  13  14
ENDBRANCH  12  13
ENDBRANCH   9  12
ENDBRANCH   7  10
ENDBRANCH   1   7
BRANCH   4  20
ATOM     20  O   UNL     1       1.288   8.735  18.556  0.00  0.00    +0.000 OA
BRANCH  20  21
ATOM     21  C   UNL     1       1.682  10.047  18.142  0.00  0.00    +0.000 C 
BRANCH  21  22
ATOM     22  C   UNL     1       1.018  11.123  19.003  0.00  0.00    +0.000 C 
BRANCH  22  23
ATOM     23  O   UNL     1       1.165  10.765  20.376  0.00  0.00    +0.000 OA
BRANCH  23  24
ATOM     24  C   UNL     1       0.230  11.289  21.227  0.00  0.00    +0.000 A 
ATOM     25  C   UNL     1      -0.111  12.616  20.976  0.00  0.00    +0.000 A 
ATOM     26  C   UNL     1      -1.057  13.267  21.769  0.00  0.00    +0.000 A 
ATOM     27  C   UNL     1      -1.703  12.585  22.808  0.00  0.00    +0.000 A 
ATOM     28  C   UNL     1      -1.361  11.249  23.052  0.00  0.00    +0.000 A 
ATOM     29  C   UNL     1      -0.402  10.603  22.264  0.00  0.00    +0.000 A 
BRANCH  27  30
ATOM     30  C   UNL     1      -2.737  13.277  23.660  0.00  0.00    +0.000 C 
BRANCH  30  31
ATOM     31  C   UNL     1      -3.968  13.754  22.882  0.00  0.00    +0.000 C 
BRANCH  31  32
ATOM     32  C   UNL     1      -4.604  12.667  22.013  0.00  0.00    +0.000 C 
BRANCH  32  33
ATOM     33  C   UNL     1      -6.072  12.934  21.801  0.00  0.00    +0.000 C 
ATOM     34  O   UNL     1      -6.575  14.032  21.591  0.00  0.00    +0.000 OA
BRANCH  33  35
ATOM     35  O   UNL     1      -6.824  11.810  21.868  0.00  0.00    +0.000 OA
ATOM     36  H   UNL     1      -6.429  11.053  21.392  0.00  0.00    +0.000 HD
ENDBRANCH  33  35
ENDBRANCH  32  33
ENDBRANCH  31  32
ENDBRANCH  30  31
ENDBRANCH  27  30
ENDBRANCH  23  24
ENDBRANCH  22  23
ENDBRANCH  21  22
ENDBRANCH  20  21
ENDBRANCH   4  20
TORSDOF 15
ENDMDL
MODEL 4
REMARK VINA RESULT:      -7.1      1.742      2.517
REMARK  Name = 
REMARK  16 active torsions:
REMARK  status: ('A' for Active; 'I' for Inactive)
REMARK    1  A    between atoms: C_1  and  N_2
REMARK    2  A    between atoms: N_2  and  C_3
REMARK    3  A    between atoms: C_3  and  C_4
REMARK    4  A    between atoms: C_4  and  C_5
REMARK    5  A    between atoms: C_11  and  C_13
REMARK    6  A    between atoms: C_13  and  C_14
REMARK    7  A    between atoms: C_17  and  O_18
REMARK    8  A    between atoms: O_18  and  C_19
REMARK    9  A    between atoms: C_19  and  C_20
REMARK   10  A    between atoms: C_20  and  O_21
REMARK   11  A    between atoms: O_21  and  C_22
REMARK   12  A    between atoms: C_25  and  C_26
REMARK   13  A    between atoms: C_26  and  C_27
REMARK   14  A    between atoms: C_27  and  C_28
REMARK   15  A    between atoms: C_28  and  C_29
REMARK   16  A    between atoms: C_29  and  O_31
REMARK                            x       y       z     vdW  Elec       q    Type
REMARK                         _______ _______ _______ _____ _____    ______ ____
ROOT
ATOM      1  C   UNL     1       3.242   7.264  17.847  0.00  0.00    +0.000 A 
ATOM      2  C   UNL     1       3.038   6.550  19.030  0.00  0.00    +0.000 A 
ATOM      3  C   UNL     1       2.207   7.055  20.027  0.00  0.00    +0.000 A 
ATOM      4  C   UNL     1       1.550   8.273  19.858  0.00  0.00    +0.000 A 
ATOM      5  C   UNL     1       1.729   8.980  18.668  0.00  0.00    +0.000 A 
ATOM      6  C   UNL     1       2.569   8.479  17.664  0.00  0.00    +0.000 A 
ENDROOT
BRANCH   1   7
ATOM      7  C   UNL     1       4.149   6.692  16.782  0.00  0.00    +0.000 C 
BRANCH   7  10
ATOM      8  C   UNL     1       7.274   4.832  17.902  0.00  0.00    +0.000 C 
ATOM      9  N   UNL     1       5.881   5.067  17.549  0.00  0.00    +0.000 N 
ATOM     10  C   UNL     1       5.565   6.403  17.260  0.00  0.00    +0.000 C 
ATOM     11  O   UNL     1       6.403   7.296  17.399  0.00  0.00    +0.000 OA
BRANCH   9  12
ATOM     12  C   UNL     1       4.997   3.927  17.241  0.00  0.00    +0.000 C 
BRANCH  12  13
ATOM     13  C   UNL     1       4.757   2.951  18.403  0.00  0.00    +0.000 C 
BRANCH  13  14
ATOM     14  C   UNL     1       3.361   3.050  18.964  0.00  0.00    +0.000 A 
ATOM     15  C   UNL     1       3.150   3.033  20.351  0.00  0.00    +0.000 A 
ATOM     16  C   UNL     1       1.858   3.119  20.870  0.00  0.00    +0.000 A 
ATOM     17  C   UNL     1       0.766   3.218  20.010  0.00  0.00    +0.000 A 
ATOM     18  C   UNL     1       0.966   3.238  18.630  0.00  0.00    +0.000 A 
ATOM     19  C   UNL     1       2.257   3.154  18.108  0.00  0.00    +0.000 A 
ENDBRANCH  13  14
ENDBRANCH  12  13
ENDBRANCH   9  12
ENDBRANCH   7  10
ENDBRANCH   1   7
BRANCH   4  20
ATOM     20  O   UNL     1       0.723   8.859  20.783  0.00  0.00    +0.000 OA
BRANCH  20  21
ATOM     21  C   UNL     1      -0.019  10.003  20.348  0.00  0.00    +0.000 C 
BRANCH  21  22
ATOM     22  C   UNL     1       0.560  11.293  20.931  0.00  0.00    +0.000 C 
BRANCH  22  23
ATOM     23  O   UNL     1       0.246  11.347  22.322  0.00  0.00    +0.000 OA
BRANCH  23  24
ATOM     24  C   UNL     1      -0.808  12.150  22.660  0.00  0.00    +0.000 A 
ATOM     25  C   UNL     1      -1.936  11.473  23.120  0.00  0.00    +0.000 A 
ATOM     26  C   UNL     1      -3.078  12.177  23.501  0.00  0.00    +0.000 A 
ATOM     27  C   UNL     1      -3.096  13.577  23.461  0.00  0.00    +0.000 A 
ATOM     28  C   UNL     1      -1.958  14.253  23.006  0.00  0.00    +0.000 A 
ATOM     29  C   UNL     1      -0.818  13.544  22.609  0.00  0.00    +0.000 A 
BRANCH  27  30
ATOM     30  C   UNL     1      -4.323  14.346  23.886  0.00  0.00    +0.000 C 
BRANCH  30  31
ATOM     31  C   UNL     1      -5.546  14.111  22.993  0.00  0.00    +0.000 C 
BRANCH  31  32
ATOM     32  C   UNL     1      -5.275  14.346  21.506  0.00  0.00    +0.000 C 
BRANCH  32  33
ATOM     33  C   UNL     1      -5.434  13.071  20.719  0.00  0.00    +0.000 C 
ATOM     34  O   UNL     1      -5.893  12.019  21.150  0.00  0.00    +0.000 OA
BRANCH  33  35
ATOM     35  O   UNL     1      -5.003  13.187  19.441  0.00  0.00    +0.000 OA
ATOM     36  H   UNL     1      -5.299  14.012  19.008  0.00  0.00    +0.000 HD
ENDBRANCH  33  35
ENDBRANCH  32  33
ENDBRANCH  31  32
ENDBRANCH  30  31
ENDBRANCH  27  30
ENDBRANCH  23  24
ENDBRANCH  22  23
ENDBRANCH  21  22
ENDBRANCH  20  21
ENDBRANCH   4  20
TORSDOF 15
ENDMDL
MODEL 5
REMARK VINA RESULT:      -7.0      3.792     10.276
REMARK  Name = 
REMARK  16 active torsions:
REMARK  status: ('A' for Active; 'I' for Inactive)
REMARK    1  A    between atoms: C_1  and  N_2
REMARK    2  A    between atoms: N_2  and  C_3
REMARK    3  A    between atoms: C_3  and  C_4
REMARK    4  A    between atoms: C_4  and  C_5
REMARK    5  A    between atoms: C_11  and  C_13
REMARK    6  A    between atoms: C_13  and  C_14
REMARK    7  A    between atoms: C_17  and  O_18
REMARK    8  A    between atoms: O_18  and  C_19
REMARK    9  A    between atoms: C_19  and  C_20
REMARK   10  A    between atoms: C_20  and  O_21
REMARK   11  A    between atoms: O_21  and  C_22
REMARK   12  A    between atoms: C_25  and  C_26
REMARK   13  A    between atoms: C_26  and  C_27
REMARK   14  A    between atoms: C_27  and  C_28
REMARK   15  A    between atoms: C_28  and  C_29
REMARK   16  A    between atoms: C_29  and  O_31
REMARK                            x       y       z     vdW  Elec       q    Type
REMARK                         _______ _______ _______ _____ _____    ______ ____
ROOT
ATOM      1  C   UNL     1       1.957   7.688  18.734  0.00  0.00    +0.000 A 
ATOM      2  C   UNL     1       1.964   7.310  20.079  0.00  0.00    +0.000 A 
ATOM      3  C   UNL     1       1.885   5.967  20.437  0.00  0.00    +0.000 A 
ATOM      4  C   UNL     1       1.813   4.972  19.462  0.00  0.00    +0.000 A 
ATOM      5  C   UNL     1       1.832   5.341  18.116  0.00  0.00    +0.000 A 
ATOM      6  C   UNL     1       1.905   6.692  17.750  0.00  0.00    +0.000 A 
ENDROOT
BRANCH   1   7
ATOM      7  C   UNL     1       2.045   9.153  18.374  0.00  0.00    +0.000 C 
BRANCH   7  10
ATOM      8  C   UNL     1      -0.732  11.754  18.331  0.00  0.00    +0.000 C 
ATOM      9  N   UNL     1       0.540  11.124  18.656  0.00  0.00    +0.000 N 
ATOM     10  C   UNL     1       0.695   9.822  18.157  0.00  0.00    +0.000 C 
ATOM     11  O   UNL     1      -0.231   9.252  17.577  0.00  0.00    +0.000 OA
BRANCH   9  12
ATOM     12  C   UNL     1       1.646  11.934  19.199  0.00  0.00    +0.000 C 
BRANCH  12  13
ATOM     13  C   UNL     1       1.394  12.538  20.589  0.00  0.00    +0.000 C 
BRANCH  13  14
ATOM     14  C   UNL     1       0.614  11.614  21.490  0.00  0.00    +0.000 A 
ATOM     15  C   UNL     1      -0.580  12.046  22.088  0.00  0.00    +0.000 A 
ATOM     16  C   UNL     1      -1.299  11.194  22.926  0.00  0.00    +0.000 A 
ATOM     17  C   UNL     1      -0.832   9.906  23.177  0.00  0.00    +0.000 A 
ATOM     18  C   UNL     1       0.352   9.466  22.585  0.00  0.00    +0.000 A 
ATOM     19  C   UNL     1       1.073  10.316  21.745  0.00  0.00    +0.000 A 
ENDBRANCH  13  14
ENDBRANCH  12  13
ENDBRANCH   9  12
ENDBRANCH   7  10
ENDBRANCH   1   7
BRANCH   4  20
ATOM     20  O   UNL     1       1.720   3.627  19.712  0.00  0.00    +0.000 OA
BRANCH  20  21
ATOM     21  C   UNL     1       1.921   2.750  18.598  0.00  0.00    +0.000 C 
BRANCH  21  22
ATOM     22  C   UNL     1       3.171   1.889  18.789  0.00  0.00    +0.000 C 
BRANCH  22  23
ATOM     23  O   UNL     1       4.081   2.161  17.723  0.00  0.00    +0.000 OA
BRANCH  23  24
ATOM     24  C   UNL     1       4.620   3.418  17.713  0.00  0.00    +0.000 A 
ATOM     25  C   UNL     1       4.603   4.053  16.473  0.00  0.00    +0.000 A 
ATOM     26  C   UNL     1       5.118   5.341  16.329  0.00  0.00    +0.000 A 
ATOM     27  C   UNL     1       5.630   6.029  17.436  0.00  0.00    +0.000 A 
ATOM     28  C   UNL     1       5.639   5.390  18.682  0.00  0.00    +0.000 A 
ATOM     29  C   UNL     1       5.134   4.092  18.821  0.00  0.00    +0.000 A 
BRANCH  27  30
ATOM     30  C   UNL     1       6.176   7.429  17.291  0.00  0.00    +0.000 C 
BRANCH  30  31
ATOM     31  C   UNL     1       7.705   7.497  17.219  0.00  0.00    +0.000 C 
BRANCH  31  32
ATOM     32  C   UNL     1       8.364   7.917  18.534  0.00  0.00    +0.000 C 
BRANCH  32  33
ATOM     33  C   UNL     1       8.625   9.402  18.558  0.00  0.00    +0.000 C 
ATOM     34  O   UNL     1       8.258  10.204  17.708  0.00  0.00    +0.000 OA
BRANCH  33  35
ATOM     35  O   UNL     1       9.334   9.791  19.643  0.00  0.00    +0.000 OA
ATOM     36  H   UNL     1       8.775   9.969  20.425  0.00  0.00    +0.000 HD
ENDBRANCH  33  35
ENDBRANCH  32  33
ENDBRANCH  31  32
ENDBRANCH  30  31
ENDBRANCH  27  30
ENDBRANCH  23  24
ENDBRANCH  22  23
ENDBRANCH  21  22
ENDBRANCH  20  21
ENDBRANCH   4  20
TORSDOF 15
ENDMDL
MODEL 6
REMARK VINA RESULT:      -6.9      2.108      3.822
REMARK  Name = 
REMARK  16 active torsions:
REMARK  status: ('A' for Active; 'I' for Inactive)
REMARK    1  A    between atoms: C_1  and  N_2
REMARK    2  A    between atoms: N_2  and  C_3
REMARK    3  A    between atoms: C_3  and  C_4
REMARK    4  A    between atoms: C_4  and  C_5
REMARK    5  A    between atoms: C_11  and  C_13
REMARK    6  A    between atoms: C_13  and  C_14
REMARK    7  A    between atoms: C_17  and  O_18
REMARK    8  A    between atoms: O_18  and  C_19
REMARK    9  A    between atoms: C_19  and  C_20
REMARK   10  A    between atoms: C_20  and  O_21
REMARK   11  A    between atoms: O_21  and  C_22
REMARK   12  A    between atoms: C_25  and  C_26
REMARK   13  A    between atoms: C_26  and  C_27
REMARK   14  A    between atoms: C_27  and  C_28
REMARK   15  A    between atoms: C_28  and  C_29
REMARK   16  A    between atoms: C_29  and  O_31
REMARK                            x       y       z     vdW  Elec       q    Type
REMARK                         _______ _______ _______ _____ _____    ______ ____
ROOT
ATOM      1  C   UNL     1       1.795   4.977  19.885  0.00  0.00    +0.000 A 
ATOM      2  C   UNL     1       1.891   5.245  18.518  0.00  0.00    +0.000 A 
ATOM      3  C   UNL     1       1.966   6.557  18.057  0.00  0.00    +0.000 A 
ATOM      4  C   UNL     1       1.960   7.628  18.951  0.00  0.00    +0.000 A 
ATOM      5  C   UNL     1       1.889   7.366  20.320  0.00  0.00    +0.000 A 
ATOM      6  C   UNL     1       1.809   6.047  20.788  0.00  0.00    +0.000 A 
ENDROOT
BRANCH   1   7
ATOM      7  C   UNL     1       1.717   3.543  20.357  0.00  0.00    +0.000 C 
BRANCH   7  10
ATOM      8  C   UNL     1       3.697   1.260  18.043  0.00  0.00    +0.000 C 
ATOM      9  N   UNL     1       3.419   2.324  18.999  0.00  0.00    +0.000 N 
ATOM     10  C   UNL     1       2.060   2.517  19.286  0.00  0.00    +0.000 C 
ATOM     11  O   UNL     1       1.190   1.883  18.685  0.00  0.00    +0.000 OA
BRANCH   9  12
ATOM     12  C   UNL     1       4.519   2.908  19.790  0.00  0.00    +0.000 C 
BRANCH  12  13
ATOM     13  C   UNL     1       4.933   4.331  19.387  0.00  0.00    +0.000 C 
BRANCH  13  14
ATOM     14  C   UNL     1       5.539   4.389  18.007  0.00  0.00    +0.000 A 
ATOM     15  C   UNL     1       6.919   4.580  17.845  0.00  0.00    +0.000 A 
ATOM     16  C   UNL     1       7.479   4.639  16.569  0.00  0.00    +0.000 A 
ATOM     17  C   UNL     1       6.667   4.513  15.444  0.00  0.00    +0.000 A 
ATOM     18  C   UNL     1       5.294   4.320  15.595  0.00  0.00    +0.000 A 
ATOM     19  C   UNL     1       4.731   4.258  16.871  0.00  0.00    +0.000 A 
ENDBRANCH  13  14
ENDBRANCH  12  13
ENDBRANCH   9  12
ENDBRANCH   7  10
ENDBRANCH   1   7
BRANCH   4  20
ATOM     20  O   UNL     1       2.016   8.951  18.597  0.00  0.00    +0.000 OA
BRANCH  20  21
ATOM     21  C   UNL     1       1.094   9.830  19.250  0.00  0.00    +0.000 C 
BRANCH  21  22
ATOM     22  C   UNL     1      -0.147  10.070  18.389  0.00  0.00    +0.000 C 
BRANCH  22  23
ATOM     23  O   UNL     1      -0.641  11.383  18.653  0.00  0.00    +0.000 OA
BRANCH  23  24
ATOM     24  C   UNL     1      -1.988  11.552  18.490  0.00  0.00    +0.000 A 
ATOM     25  C   UNL     1      -2.509  11.005  17.319  0.00  0.00    +0.000 A 
ATOM     26  C   UNL     1      -3.871  11.105  17.036  0.00  0.00    +0.000 A 
ATOM     27  C   UNL     1      -4.741  11.727  17.940  0.00  0.00    +0.000 A 
ATOM     28  C   UNL     1      -4.214  12.269  19.118  0.00  0.00    +0.000 A 
ATOM     29  C   UNL     1      -2.845  12.180  19.394  0.00  0.00    +0.000 A 
BRANCH  27  30
ATOM     30  C   UNL     1      -6.218  11.826  17.647  0.00  0.00    +0.000 C 
BRANCH  30  31
ATOM     31  C   UNL     1      -7.114  11.301  18.775  0.00  0.00    +0.000 C 
BRANCH  31  32
ATOM     32  C   UNL     1      -6.908   9.816  19.082  0.00  0.00    +0.000 C 
BRANCH  32  33
ATOM     33  C   UNL     1      -7.268   9.505  20.512  0.00  0.00    +0.000 C 
ATOM     34  O   UNL     1      -7.464   8.385  20.970  0.00  0.00    +0.000 OA
BRANCH  33  35
ATOM     35  O   UNL     1      -7.366  10.615  21.281  0.00  0.00    +0.000 OA
ATOM     36  H   UNL     1      -7.392  11.442  20.762  0.00  0.00    +0.000 HD
ENDBRANCH  33  35
ENDBRANCH  32  33
ENDBRANCH  31  32
ENDBRANCH  30  31
ENDBRANCH  27  30
ENDBRANCH  23  24
ENDBRANCH  22  23
ENDBRANCH  21  22
ENDBRANCH  20  21
ENDBRANCH   4  20
TORSDOF 15
ENDMDL
MODEL 7
REMARK VINA RESULT:      -6.8      1.816      3.557
REMARK  Name = 
REMARK  16 active torsions:
REMARK  status: ('A' for Active; 'I' for Inactive)
REMARK    1  A    between atoms: C_1  and  N_2
REMARK    2  A    between atoms: N_2  and  C_3
REMARK    3  A    between atoms: C_3  and  C_4
REMARK    4  A    between atoms: C_4  and  C_5
REMARK    5  A    between atoms: C_11  and  C_13
REMARK    6  A    between atoms: C_13  and  C_14
REMARK    7  A    between atoms: C_17  and  O_18
REMARK    8  A    between atoms: O_18  and  C_19
REMARK    9  A    between atoms: C_19  and  C_20
REMARK   10  A    between atoms: C_20  and  O_21
REMARK   11  A    between atoms: O_21  and  C_22
REMARK   12  A    between atoms: C_25  and  C_26
REMARK   13  A    between atoms: C_26  and  C_27
REMARK   14  A    between atoms: C_27  and  C_28
REMARK   15  A    between atoms: C_28  and  C_29
REMARK   16  A    between atoms: C_29  and  O_31
REMARK                            x       y       z     vdW  Elec       q    Type
REMARK                         _______ _______ _______ _____ _____    ______ ____
ROOT
ATOM      1  C   UNL     1       2.435   6.653  19.723  0.00  0.00    +0.000 A 
ATOM      2  C   UNL     1       1.767   7.073  20.875  0.00  0.00    +0.000 A 
ATOM      3  C   UNL     1       1.112   8.302  20.905  0.00  0.00    +0.000 A 
ATOM      4  C   UNL     1       1.096   9.129  19.783  0.00  0.00    +0.000 A 
ATOM      5  C   UNL     1       1.741   8.704  18.619  0.00  0.00    +0.000 A 
ATOM      6  C   UNL     1       2.406   7.471  18.586  0.00  0.00    +0.000 A 
ENDROOT
BRANCH   1   7
ATOM      7  C   UNL     1       3.136   5.314  19.718  0.00  0.00    +0.000 C 
BRANCH   7  10
ATOM      8  C   UNL     1       1.975   2.039  18.167  0.00  0.00    +0.000 C 
ATOM      9  N   UNL     1       2.831   3.181  18.460  0.00  0.00    +0.000 N 
ATOM     10  C   UNL     1       2.252   4.151  19.291  0.00  0.00    +0.000 C 
ATOM     11  O   UNL     1       1.076   4.058  19.649  0.00  0.00    +0.000 OA
BRANCH   9  12
ATOM     12  C   UNL     1       4.269   3.126  18.137  0.00  0.00    +0.000 C 
BRANCH  12  13
ATOM     13  C   UNL     1       4.694   3.934  16.902  0.00  0.00    +0.000 C 
BRANCH  13  14
ATOM     14  C   UNL     1       5.676   5.029  17.236  0.00  0.00    +0.000 A 
ATOM     15  C   UNL     1       6.820   4.750  17.998  0.00  0.00    +0.000 A 
ATOM     16  C   UNL     1       7.725   5.765  18.312  0.00  0.00    +0.000 A 
ATOM     17  C   UNL     1       7.493   7.066  17.872  0.00  0.00    +0.000 A 
ATOM     18  C   UNL     1       6.361   7.353  17.111  0.00  0.00    +0.000 A 
ATOM     19  C   UNL     1       5.454   6.340  16.794  0.00  0.00    +0.000 A 
ENDBRANCH  13  14
ENDBRANCH  12  13
ENDBRANCH   9  12
ENDBRANCH   7  10
ENDBRANCH   1   7
BRANCH   4  20
ATOM     20  O   UNL     1       0.492  10.359  19.717  0.00  0.00    +0.000 OA
BRANCH  20  21
ATOM     21  C   UNL     1       1.213  11.460  20.281  0.00  0.00    +0.000 C 
BRANCH  21  22
ATOM     22  C   UNL     1       1.312  12.622  19.291  0.00  0.00    +0.000 C 
BRANCH  22  23
ATOM     23  O   UNL     1       0.168  13.459  19.452  0.00  0.00    +0.000 OA
BRANCH  23  24
ATOM     24  C   UNL     1      -1.032  12.889  19.128  0.00  0.00    +0.000 A 
ATOM     25  C   UNL     1      -2.029  13.036  20.089  0.00  0.00    +0.000 A 
ATOM     26  C   UNL     1      -3.301  12.503  19.878  0.00  0.00    +0.000 A 
ATOM     27  C   UNL     1      -3.605  11.843  18.681  0.00  0.00    +0.000 A 
ATOM     28  C   UNL     1      -2.602  11.705  17.714  0.00  0.00    +0.000 A 
ATOM     29  C   UNL     1      -1.322  12.227  17.935  0.00  0.00    +0.000 A 
BRANCH  27  30
ATOM     30  C   UNL     1      -4.983  11.278  18.439  0.00  0.00    +0.000 C 
BRANCH  30  31
ATOM     31  C   UNL     1      -6.123  12.214  18.857  0.00  0.00    +0.000 C 
BRANCH  31  32
ATOM     32  C   UNL     1      -7.390  11.480  19.298  0.00  0.00    +0.000 C 
BRANCH  32  33
ATOM     33  C   UNL     1      -7.205  10.844  20.652  0.00  0.00    +0.000 C 
ATOM     34  O   UNL     1      -7.531   9.701  20.954  0.00  0.00    +0.000 OA
BRANCH  33  35
ATOM     35  O   UNL     1      -6.626  11.678  21.547  0.00  0.00    +0.000 OA
ATOM     36  H   UNL     1      -7.130  12.504  21.686  0.00  0.00    +0.000 HD
ENDBRANCH  33  35
ENDBRANCH  32  33
ENDBRANCH  31  32
ENDBRANCH  30  31
ENDBRANCH  27  30
ENDBRANCH  23  24
ENDBRANCH  22  23
ENDBRANCH  21  22
ENDBRANCH  20  21
ENDBRANCH   4  20
TORSDOF 15
ENDMDL
MODEL 8
REMARK VINA RESULT:      -6.7      2.197      2.729
REMARK  Name = 
REMARK  16 active torsions:
REMARK  status: ('A' for Active; 'I' for Inactive)
REMARK    1  A    between atoms: C_1  and  N_2
REMARK    2  A    between atoms: N_2  and  C_3
REMARK    3  A    between atoms: C_3  and  C_4
REMARK    4  A    between atoms: C_4  and  C_5
REMARK    5  A    between atoms: C_11  and  C_13
REMARK    6  A    between atoms: C_13  and  C_14
REMARK    7  A    between atoms: C_17  and  O_18
REMARK    8  A    between atoms: O_18  and  C_19
REMARK    9  A    between atoms: C_19  and  C_20
REMARK   10  A    between atoms: C_20  and  O_21
REMARK   11  A    between atoms: O_21  and  C_22
REMARK   12  A    between atoms: C_25  and  C_26
REMARK   13  A    between atoms: C_26  and  C_27
REMARK   14  A    between atoms: C_27  and  C_28
REMARK   15  A    between atoms: C_28  and  C_29
REMARK   16  A    between atoms: C_29  and  O_31
REMARK                            x       y       z     vdW  Elec       q    Type
REMARK                         _______ _______ _______ _____ _____    ______ ____
ROOT
ATOM      1  C   UNL     1       3.993   6.981  18.233  0.00  0.00    +0.000 A 
ATOM      2  C   UNL     1       3.326   6.621  19.407  0.00  0.00    +0.000 A 
ATOM      3  C   UNL     1       2.168   7.289  19.796  0.00  0.00    +0.000 A 
ATOM      4  C   UNL     1       1.643   8.320  19.017  0.00  0.00    +0.000 A 
ATOM      5  C   UNL     1       2.290   8.668  17.830  0.00  0.00    +0.000 A 
ATOM      6  C   UNL     1       3.459   8.002  17.436  0.00  0.00    +0.000 A 
ENDROOT
BRANCH   1   7
ATOM      7  C   UNL     1       5.247   6.238  17.834  0.00  0.00    +0.000 C 
BRANCH   7  10
ATOM      8  C   UNL     1       5.066   4.291  14.570  0.00  0.00    +0.000 C 
ATOM      9  N   UNL     1       5.089   4.550  16.003  0.00  0.00    +0.000 N 
ATOM     10  C   UNL     1       5.318   5.888  16.354  0.00  0.00    +0.000 C 
ATOM     11  O   UNL     1       5.571   6.734  15.495  0.00  0.00    +0.000 OA
BRANCH   9  12
ATOM     12  C   UNL     1       4.608   3.522  16.945  0.00  0.00    +0.000 C 
BRANCH  12  13
ATOM     13  C   UNL     1       3.081   3.378  17.034  0.00  0.00    +0.000 C 
BRANCH  13  14
ATOM     14  C   UNL     1       2.586   3.319  18.458  0.00  0.00    +0.000 A 
ATOM     15  C   UNL     1       1.280   3.720  18.773  0.00  0.00    +0.000 A 
ATOM     16  C   UNL     1       0.824   3.670  20.091  0.00  0.00    +0.000 A 
ATOM     17  C   UNL     1       1.670   3.225  21.105  0.00  0.00    +0.000 A 
ATOM     18  C   UNL     1       2.970   2.821  20.800  0.00  0.00    +0.000 A 
ATOM     19  C   UNL     1       3.428   2.869  19.483  0.00  0.00    +0.000 A 
ENDBRANCH  13  14
ENDBRANCH  12  13
ENDBRANCH   9  12
ENDBRANCH   7  10
ENDBRANCH   1   7
BRANCH   4  20
ATOM     20  O   UNL     1       0.519   9.045  19.320  0.00  0.00    +0.000 OA
BRANCH  20  21
ATOM     21  C   UNL     1       0.298   9.338  20.703  0.00  0.00    +0.000 C 
BRANCH  21  22
ATOM     22  C   UNL     1       0.549  10.817  21.004  0.00  0.00    +0.000 C 
BRANCH  22  23
ATOM     23  O   UNL     1      -0.378  11.600  20.253  0.00  0.00    +0.000 OA
BRANCH  23  24
ATOM     24  C   UNL     1      -1.263  12.337  20.991  0.00  0.00    +0.000 A 
ATOM     25  C   UNL     1      -2.015  13.254  20.259  0.00  0.00    +0.000 A 
ATOM     26  C   UNL     1      -2.957  14.064  20.893  0.00  0.00    +0.000 A 
ATOM     27  C   UNL     1      -3.186  13.943  22.270  0.00  0.00    +0.000 A 
ATOM     28  C   UNL     1      -2.434  13.015  22.999  0.00  0.00    +0.000 A 
ATOM     29  C   UNL     1      -1.478  12.214  22.363  0.00  0.00    +0.000 A 
BRANCH  27  30
ATOM     30  C   UNL     1      -4.214  14.805  22.960  0.00  0.00    +0.000 C 
BRANCH  30  31
ATOM     31  C   UNL     1      -5.664  14.431  22.630  0.00  0.00    +0.000 C 
BRANCH  31  32
ATOM     32  C   UNL     1      -6.484  14.015  23.852  0.00  0.00    +0.000 C 
BRANCH  32  33
ATOM     33  C   UNL     1      -6.335  12.540  24.127  0.00  0.00    +0.000 C 
ATOM     34  O   UNL     1      -5.401  12.017  24.725  0.00  0.00    +0.000 OA
BRANCH  33  35
ATOM     35  O   UNL     1      -7.361  11.809  23.633  0.00  0.00    +0.000 OA
ATOM     36  H   UNL     1      -8.015  11.554  24.313  0.00  0.00    +0.000 HD
ENDBRANCH  33  35
ENDBRANCH  32  33
ENDBRANCH  31  32
ENDBRANCH  30  31
ENDBRANCH  27  30
ENDBRANCH  23  24
ENDBRANCH  22  23
ENDBRANCH  21  22
ENDBRANCH  20  21
ENDBRANCH   4  20
TORSDOF 15
ENDMDL
MODEL 9
REMARK VINA RESULT:      -6.7      3.451     10.827
REMARK  Name = 
REMARK  16 active torsions:
REMARK  status: ('A' for Active; 'I' for Inactive)
REMARK    1  A    between atoms: C_1  and  N_2
REMARK    2  A    between atoms: N_2  and  C_3
REMARK    3  A    between atoms: C_3  and  C_4
REMARK    4  A    between atoms: C_4  and  C_5
REMARK    5  A    between atoms: C_11  and  C_13
REMARK    6  A    between atoms: C_13  and  C_14
REMARK    7  A    between atoms: C_17  and  O_18
REMARK    8  A    between atoms: O_18  and  C_19
REMARK    9  A    between atoms: C_19  and  C_20
REMARK   10  A    between atoms: C_20  and  O_21
REMARK   11  A    between atoms: O_21  and  C_22
REMARK   12  A    between atoms: C_25  and  C_26
REMARK   13  A    between atoms: C_26  and  C_27
REMARK   14  A    between atoms: C_27  and  C_28
REMARK   15  A    between atoms: C_28  and  C_29
REMARK   16  A    between atoms: C_29  and  O_31
REMARK                            x       y       z     vdW  Elec       q    Type
REMARK                         _______ _______ _______ _____ _____    ______ ____
ROOT
ATOM      1  C   UNL     1      -2.430  12.345  20.641  0.00  0.00    +0.000 A 
ATOM      2  C   UNL     1      -1.374  11.985  21.482  0.00  0.00    +0.000 A 
ATOM      3  C   UNL     1      -0.192  11.473  20.954  0.00  0.00    +0.000 A 
ATOM      4  C   UNL     1      -0.032  11.324  19.576  0.00  0.00    +0.000 A 
ATOM      5  C   UNL     1      -1.073  11.706  18.729  0.00  0.00    +0.000 A 
ATOM      6  C   UNL     1      -2.267  12.216  19.256  0.00  0.00    +0.000 A 
ENDROOT
BRANCH   1   7
ATOM      7  C   UNL     1      -3.701  12.900  21.242  0.00  0.00    +0.000 C 
BRANCH   7  10
ATOM      8  C   UNL     1      -3.279  14.375  24.724  0.00  0.00    +0.000 C 
ATOM      9  N   UNL     1      -3.197  14.257  23.275  0.00  0.00    +0.000 N 
ATOM     10  C   UNL     1      -3.663  13.039  22.757  0.00  0.00    +0.000 C 
ATOM     11  O   UNL     1      -4.017  12.127  23.506  0.00  0.00    +0.000 OA
BRANCH   9  12
ATOM     12  C   UNL     1      -2.926  15.451  22.452  0.00  0.00    +0.000 C 
BRANCH  12  13
ATOM     13  C   UNL     1      -1.499  16.009  22.557  0.00  0.00    +0.000 C 
BRANCH  13  14
ATOM     14  C   UNL     1      -0.628  15.595  21.398  0.00  0.00    +0.000 A 
ATOM     15  C   UNL     1       0.662  15.091  21.622  0.00  0.00    +0.000 A 
ATOM     16  C   UNL     1       1.469  14.714  20.548  0.00  0.00    +0.000 A 
ATOM     17  C   UNL     1       0.998  14.841  19.243  0.00  0.00    +0.000 A 
ATOM     18  C   UNL     1      -0.283  15.338  19.011  0.00  0.00    +0.000 A 
ATOM     19  C   UNL     1      -1.094  15.715  20.082  0.00  0.00    +0.000 A 
ENDBRANCH  13  14
ENDBRANCH  12  13
ENDBRANCH   9  12
ENDBRANCH   7  10
ENDBRANCH   1   7
BRANCH   4  20
ATOM     20  O   UNL     1       1.086  10.819  18.962  0.00  0.00    +0.000 OA
BRANCH  20  21
ATOM     21  C   UNL     1       1.252   9.398  18.998  0.00  0.00    +0.000 C 
BRANCH  21  22
ATOM     22  C   UNL     1       2.028   8.899  17.778  0.00  0.00    +0.000 C 
BRANCH  22  23
ATOM     23  O   UNL     1       3.024   7.976  18.216  0.00  0.00    +0.000 OA
BRANCH  23  24
ATOM     24  C   UNL     1       2.555   6.784  18.697  0.00  0.00    +0.000 A 
ATOM     25  C   UNL     1       2.176   5.866  17.720  0.00  0.00    +0.000 A 
ATOM     26  C   UNL     1       1.686   4.611  18.080  0.00  0.00    +0.000 A 
ATOM     27  C   UNL     1       1.599   4.242  19.428  0.00  0.00    +0.000 A 
ATOM     28  C   UNL     1       1.988   5.165  20.406  0.00  0.00    +0.000 A 
ATOM     29  C   UNL     1       2.466   6.429  20.043  0.00  0.00    +0.000 A 
BRANCH  27  30
ATOM     30  C   UNL     1       1.083   2.880  19.824  0.00  0.00    +0.000 C 
BRANCH  30  31
ATOM     31  C   UNL     1       2.125   1.762  19.710  0.00  0.00    +0.000 C 
BRANCH  31  32
ATOM     32  C   UNL     1       3.320   2.124  18.826  0.00  0.00    +0.000 C 
BRANCH  32  33
ATOM     33  C   UNL     1       4.551   2.376  19.658  0.00  0.00    +0.000 C 
ATOM     34  O   UNL     1       4.825   1.819  20.715  0.00  0.00    +0.000 OA
BRANCH  33  35
ATOM     35  O   UNL     1       5.364   3.315  19.118  0.00  0.00    +0.000 OA
ATOM     36  H   UNL     1       6.145   3.512  19.671  0.00  0.00    +0.000 HD
ENDBRANCH  33  35
ENDBRANCH  32  33
ENDBRANCH  31  32
ENDBRANCH  30  31
ENDBRANCH  27  30
ENDBRANCH  23  24
ENDBRANCH  22  23
ENDBRANCH  21  22
ENDBRANCH  20  21
ENDBRANCH   4  20
TORSDOF 15
ENDMDL
