MODEL 1
REMARK VINA RESULT:      -8.1      0.000      0.000
REMARK  Name = 
REMARK  6 active torsions:
REMARK  status: ('A' for Active; 'I' for Inactive)
REMARK    1  A    between atoms: C_2  and  C_3
REMARK    2  A    between atoms: C_3  and  N_4
REMARK    3  A    between atoms: N_6  and  C_7
REMARK    4  A    between atoms: C_7  and  C_8
REMARK    5  A    between atoms: C_10  and  C_11
REMARK    6  A    between atoms: C_14  and  O_15
REMARK                            x       y       z     vdW  Elec       q    Type
REMARK                         _______ _______ _______ _____ _____    ______ ____
ROOT
ATOM      1  N   UNL     1       3.353   5.317  18.294  0.00  0.00    +0.000 N 
ATOM      2  C   UNL     1       4.023   4.417  17.490  0.00  0.00    +0.000 A 
ATOM      3  N   UNL     1       4.831   4.816  16.474  0.00  0.00    +0.000 N 
ATOM      4  N   UNL     1       3.772   3.183  17.866  0.00  0.00    +0.000 NA
ATOM      5  C   UNL     1       2.845   3.272  18.866  0.00  0.00    +0.000 A 
ATOM      6  C   UNL     1       2.197   2.246  19.570  0.00  0.00    +0.000 A 
ATOM      7  C   UNL     1       1.283   2.590  20.574  0.00  0.00    +0.000 A 
ATOM      8  C   UNL     1       1.028   3.928  20.877  0.00  0.00    +0.000 A 
ATOM      9  C   UNL     1       1.667   4.964  20.186  0.00  0.00    +0.000 A 
ATOM     10  C   UNL     1       2.565   4.597  19.174  0.00  0.00    +0.000 A 
ATOM     11  H   UNL     1       4.339   5.194  15.668  0.00  0.00    +0.000 HD
ENDROOT
BRANCH   1  12
ATOM     12  C   UNL     1       3.548   6.758  18.362  0.00  0.00    +0.000 C 
BRANCH  12  14
ATOM     13  C   UNL     1       2.238   8.862  17.874  0.00  0.00    +0.000 C 
ATOM     14  C   UNL     1       2.353   7.526  17.866  0.00  0.00    +0.000 C 
ENDBRANCH  12  14
ENDBRANCH   1  12
BRANCH   3  15
ATOM     15  C   UNL     1       5.865   3.881  16.008  0.00  0.00    +0.000 C 
BRANCH  15  16
ATOM     16  C   UNL     1       6.251   4.032  14.552  0.00  0.00    +0.000 A 
ATOM     17  C   UNL     1       5.667   3.185  13.590  0.00  0.00    +0.000 A 
ATOM     18  C   UNL     1       6.021   3.251  12.235  0.00  0.00    +0.000 A 
ATOM     19  C   UNL     1       5.394   2.328  11.233  0.00  0.00    +0.000 C 
ATOM     20  C   UNL     1       6.990   4.174  11.832  0.00  0.00    +0.000 A 
ATOM     21  C   UNL     1       7.584   5.022  12.769  0.00  0.00    +0.000 A 
ATOM     22  C   UNL     1       7.212   4.949  14.115  0.00  0.00    +0.000 A 
BRANCH  22  23
ATOM     23  O   UNL     1       7.815   5.770  15.028  0.00  0.00    +0.000 OA
ATOM     24  H   UNL     1       8.760   5.825  14.808  0.00  0.00    +0.000 HD
ENDBRANCH  22  23
ENDBRANCH  15  16
ENDBRANCH   3  15
TORSDOF 5
ENDMDL
MODEL 2
REMARK VINA RESULT:      -7.6      1.636      3.996
REMARK  Name = 
REMARK  6 active torsions:
REMARK  status: ('A' for Active; 'I' for Inactive)
REMARK    1  A    between atoms: C_2  and  C_3
REMARK    2  A    between atoms: C_3  and  N_4
REMARK    3  A    between atoms: N_6  and  C_7
REMARK    4  A    between atoms: C_7  and  C_8
REMARK    5  A    between atoms: C_10  and  C_11
REMARK    6  A    between atoms: C_14  and  O_15
REMARK                            x       y       z     vdW  Elec       q    Type
REMARK                         _______ _______ _______ _____ _____    ______ ____
ROOT
ATOM      1  N   UNL     1       2.557   5.721  19.986  0.00  0.00    +0.000 N 
ATOM      2  C   UNL     1       3.179   5.241  18.852  0.00  0.00    +0.000 A 
ATOM      3  N   UNL     1       3.778   4.021  18.816  0.00  0.00    +0.000 N 
ATOM      4  N   UNL     1       3.084   6.106  17.869  0.00  0.00    +0.000 NA
ATOM      5  C   UNL     1       2.479   7.214  18.395  0.00  0.00    +0.000 A 
ATOM      6  C   UNL     1       2.194   8.444  17.785  0.00  0.00    +0.000 A 
ATOM      7  C   UNL     1       1.548   9.435  18.534  0.00  0.00    +0.000 A 
ATOM      8  C   UNL     1       1.182   9.200  19.860  0.00  0.00    +0.000 A 
ATOM      9  C   UNL     1       1.456   7.977  20.483  0.00  0.00    +0.000 A 
ATOM     10  C   UNL     1       2.120   7.006  19.720  0.00  0.00    +0.000 A 
ATOM     11  H   UNL     1       4.648   3.964  19.337  0.00  0.00    +0.000 HD
ENDROOT
BRANCH   1  12
ATOM     12  C   UNL     1       2.235   4.982  21.199  0.00  0.00    +0.000 C 
BRANCH  12  14
ATOM     13  C   UNL     1       1.415   2.617  21.534  0.00  0.00    +0.000 C 
ATOM     14  C   UNL     1       1.323   3.815  20.939  0.00  0.00    +0.000 C 
ENDBRANCH  12  14
ENDBRANCH   1  12
BRANCH   3  15
ATOM     15  C   UNL     1       3.962   3.384  17.505  0.00  0.00    +0.000 C 
BRANCH  15  16
ATOM     16  C   UNL     1       5.158   3.879  16.719  0.00  0.00    +0.000 A 
ATOM     17  C   UNL     1       5.106   3.882  15.312  0.00  0.00    +0.000 A 
ATOM     18  C   UNL     1       6.200   4.287  14.534  0.00  0.00    +0.000 A 
ATOM     19  C   UNL     1       6.123   4.269  13.035  0.00  0.00    +0.000 C 
ATOM     20  C   UNL     1       7.377   4.685  15.174  0.00  0.00    +0.000 A 
ATOM     21  C   UNL     1       7.451   4.686  16.567  0.00  0.00    +0.000 A 
ATOM     22  C   UNL     1       6.348   4.288  17.328  0.00  0.00    +0.000 A 
BRANCH  22  23
ATOM     23  O   UNL     1       6.438   4.273  18.693  0.00  0.00    +0.000 OA
ATOM     24  H   UNL     1       7.348   4.504  18.939  0.00  0.00    +0.000 HD
ENDBRANCH  22  23
ENDBRANCH  15  16
ENDBRANCH   3  15
TORSDOF 5
ENDMDL
MODEL 3
REMARK VINA RESULT:      -7.6      4.088      8.102
REMARK  Name = 
REMARK  6 active torsions:
REMARK  status: ('A' for Active; 'I' for Inactive)
REMARK    1  A    between atoms: C_2  and  C_3
REMARK    2  A    between atoms: C_3  and  N_4
REMARK    3  A    between atoms: N_6  and  C_7
REMARK    4  A    between atoms: C_7  and  C_8
REMARK    5  A    between atoms: C_10  and  C_11
REMARK    6  A    between atoms: C_14  and  O_15
REMARK                            x       y       z     vdW  Elec       q    Type
REMARK                         _______ _______ _______ _____ _____    ______ ____
ROOT
ATOM      1  N   UNL     1       2.451   6.110  18.835  0.00  0.00    +0.000 N 
ATOM      2  C   UNL     1       1.982   6.432  20.093  0.00  0.00    +0.000 A 
ATOM      3  N   UNL     1       2.072   7.689  20.599  0.00  0.00    +0.000 N 
ATOM      4  N   UNL     1       1.451   5.380  20.673  0.00  0.00    +0.000 NA
ATOM      5  C   UNL     1       1.665   4.329  19.825  0.00  0.00    +0.000 A 
ATOM      6  C   UNL     1       1.350   2.973  19.993  0.00  0.00    +0.000 A 
ATOM      7  C   UNL     1       1.661   2.075  18.965  0.00  0.00    +0.000 A 
ATOM      8  C   UNL     1       2.264   2.522  17.788  0.00  0.00    +0.000 A 
ATOM      9  C   UNL     1       2.584   3.871  17.603  0.00  0.00    +0.000 A 
ATOM     10  C   UNL     1       2.280   4.750  18.652  0.00  0.00    +0.000 A 
ATOM     11  H   UNL     1       3.013   7.972  20.860  0.00  0.00    +0.000 HD
ENDROOT
BRANCH   1  12
ATOM     12  C   UNL     1       2.885   7.027  17.791  0.00  0.00    +0.000 C 
BRANCH  12  14
ATOM     13  C   UNL     1       4.890   6.563  16.327  0.00  0.00    +0.000 C 
ATOM     14  C   UNL     1       4.358   6.921  17.504  0.00  0.00    +0.000 C 
ENDBRANCH  12  14
ENDBRANCH   1  12
BRANCH   3  15
ATOM     15  C   UNL     1       1.143   8.067  21.674  0.00  0.00    +0.000 C 
BRANCH  15  16
ATOM     16  C   UNL     1       0.327   9.313  21.401  0.00  0.00    +0.000 A 
ATOM     17  C   UNL     1       0.037   9.671  20.070  0.00  0.00    +0.000 A 
ATOM     18  C   UNL     1      -0.675  10.837  19.758  0.00  0.00    +0.000 A 
ATOM     19  C   UNL     1      -0.961  11.203  18.331  0.00  0.00    +0.000 C 
ATOM     20  C   UNL     1      -1.095  11.674  20.796  0.00  0.00    +0.000 A 
ATOM     21  C   UNL     1      -0.816  11.340  22.122  0.00  0.00    +0.000 A 
ATOM     22  C   UNL     1      -0.112  10.168  22.416  0.00  0.00    +0.000 A 
BRANCH  22  23
ATOM     23  O   UNL     1       0.175   9.861  23.718  0.00  0.00    +0.000 OA
ATOM     24  H   UNL     1       0.579   8.978  23.739  0.00  0.00    +0.000 HD
ENDBRANCH  22  23
ENDBRANCH  15  16
ENDBRANCH   3  15
TORSDOF 5
ENDMDL
MODEL 4
REMARK VINA RESULT:      -7.6      4.609      8.225
REMARK  Name = 
REMARK  6 active torsions:
REMARK  status: ('A' for Active; 'I' for Inactive)
REMARK    1  A    between atoms: C_2  and  C_3
REMARK    2  A    between atoms: C_3  and  N_4
REMARK    3  A    between atoms: N_6  and  C_7
REMARK    4  A    between atoms: C_7  and  C_8
REMARK    5  A    between atoms: C_10  and  C_11
REMARK    6  A    between atoms: C_14  and  O_15
REMARK                            x       y       z     vdW  Elec       q    Type
REMARK                         _______ _______ _______ _____ _____    ______ ____
ROOT
ATOM      1  N   UNL     1       2.518   6.255  18.998  0.00  0.00    +0.000 N 
ATOM      2  C   UNL     1       1.880   6.455  20.206  0.00  0.00    +0.000 A 
ATOM      3  N   UNL     1       1.898   7.655  20.844  0.00  0.00    +0.000 N 
ATOM      4  N   UNL     1       1.277   5.357  20.600  0.00  0.00    +0.000 NA
ATOM      5  C   UNL     1       1.608   4.394  19.688  0.00  0.00    +0.000 A 
ATOM      6  C   UNL     1       1.275   3.031  19.674  0.00  0.00    +0.000 A 
ATOM      7  C   UNL     1       1.727   2.237  18.614  0.00  0.00    +0.000 A 
ATOM      8  C   UNL     1       2.484   2.791  17.581  0.00  0.00    +0.000 A 
ATOM      9  C   UNL     1       2.824   4.149  17.578  0.00  0.00    +0.000 A 
ATOM     10  C   UNL     1       2.376   4.922  18.658  0.00  0.00    +0.000 A 
ATOM     11  H   UNL     1       2.793   7.899  21.258  0.00  0.00    +0.000 HD
ENDROOT
BRANCH   1  12
ATOM     12  C   UNL     1       3.088   7.267  18.120  0.00  0.00    +0.000 C 
BRANCH  12  14
ATOM     13  C   UNL     1       2.026   9.532  17.777  0.00  0.00    +0.000 C 
ATOM     14  C   UNL     1       2.050   8.207  17.573  0.00  0.00    +0.000 C 
ENDBRANCH  12  14
ENDBRANCH   1  12
BRANCH   3  15
ATOM     15  C   UNL     1       0.829   7.934  21.814  0.00  0.00    +0.000 C 
BRANCH  15  16
ATOM     16  C   UNL     1       0.126   9.261  21.621  0.00  0.00    +0.000 A 
ATOM     17  C   UNL     1      -0.216   9.680  20.321  0.00  0.00    +0.000 A 
ATOM     18  C   UNL     1      -0.827  10.919  20.081  0.00  0.00    +0.000 A 
ATOM     19  C   UNL     1      -1.169  11.347  18.684  0.00  0.00    +0.000 C 
ATOM     20  C   UNL     1      -1.090  11.765  21.161  0.00  0.00    +0.000 A 
ATOM     21  C   UNL     1      -0.757  11.372  22.458  0.00  0.00    +0.000 A 
ATOM     22  C   UNL     1      -0.156  10.129  22.681  0.00  0.00    +0.000 A 
BRANCH  22  23
ATOM     23  O   UNL     1       0.185   9.762  23.953  0.00  0.00    +0.000 OA
ATOM     24  H   UNL     1       1.057  10.139  24.154  0.00  0.00    +0.000 HD
ENDBRANCH  22  23
ENDBRANCH  15  16
ENDBRANCH   3  15
TORSDOF 5
ENDMDL
MODEL 5
REMARK VINA RESULT:      -7.5      2.567      3.963
REMARK  Name = 
REMARK  6 active torsions:
REMARK  status: ('A' for Active; 'I' for Inactive)
REMARK    1  A    between atoms: C_2  and  C_3
REMARK    2  A    between atoms: C_3  and  N_4
REMARK    3  A    between atoms: N_6  and  C_7
REMARK    4  A    between atoms: C_7  and  C_8
REMARK    5  A    between atoms: C_10  and  C_11
REMARK    6  A    between atoms: C_14  and  O_15
REMARK                            x       y       z     vdW  Elec       q    Type
REMARK                         _______ _______ _______ _____ _____    ______ ____
ROOT
ATOM      1  N   UNL     1       2.617   5.255  18.222  0.00  0.00    +0.000 N 
ATOM      2  C   UNL     1       3.786   4.821  17.631  0.00  0.00    +0.000 A 
ATOM      3  N   UNL     1       4.270   5.375  16.489  0.00  0.00    +0.000 N 
ATOM      4  N   UNL     1       4.325   3.849  18.331  0.00  0.00    +0.000 NA
ATOM      5  C   UNL     1       3.446   3.573  19.340  0.00  0.00    +0.000 A 
ATOM      6  C   UNL     1       3.512   2.584  20.332  0.00  0.00    +0.000 A 
ATOM      7  C   UNL     1       2.483   2.504  21.277  0.00  0.00    +0.000 A 
ATOM      8  C   UNL     1       1.413   3.401  21.241  0.00  0.00    +0.000 A 
ATOM      9  C   UNL     1       1.331   4.395  20.260  0.00  0.00    +0.000 A 
ATOM     10  C   UNL     1       2.364   4.445  19.314  0.00  0.00    +0.000 A 
ATOM     11  H   UNL     1       3.742   5.143  15.652  0.00  0.00    +0.000 HD
ENDROOT
BRANCH   1  12
ATOM     12  C   UNL     1       1.855   6.454  17.899  0.00  0.00    +0.000 C 
BRANCH  12  14
ATOM     13  C   UNL     1       2.393   8.921  17.881  0.00  0.00    +0.000 C 
ATOM     14  C   UNL     1       2.492   7.705  18.437  0.00  0.00    +0.000 C 
ENDBRANCH  12  14
ENDBRANCH   1  12
BRANCH   3  15
ATOM     15  C   UNL     1       5.704   5.228  16.206  0.00  0.00    +0.000 C 
BRANCH  15  16
ATOM     16  C   UNL     1       6.621   5.943  17.176  0.00  0.00    +0.000 A 
ATOM     17  C   UNL     1       6.849   7.324  17.021  0.00  0.00    +0.000 A 
ATOM     18  C   UNL     1       7.722   8.028  17.861  0.00  0.00    +0.000 A 
ATOM     19  C   UNL     1       7.958   9.497  17.666  0.00  0.00    +0.000 C 
ATOM     20  C   UNL     1       8.395   7.336  18.872  0.00  0.00    +0.000 A 
ATOM     21  C   UNL     1       8.186   5.966  19.043  0.00  0.00    +0.000 A 
ATOM     22  C   UNL     1       7.305   5.282  18.201  0.00  0.00    +0.000 A 
BRANCH  22  23
ATOM     23  O   UNL     1       7.123   3.936  18.363  0.00  0.00    +0.000 OA
ATOM     24  H   UNL     1       6.184   3.777  18.552  0.00  0.00    +0.000 HD
ENDBRANCH  22  23
ENDBRANCH  15  16
ENDBRANCH   3  15
TORSDOF 5
ENDMDL
MODEL 6
REMARK VINA RESULT:      -7.5      2.259      7.110
REMARK  Name = 
REMARK  6 active torsions:
REMARK  status: ('A' for Active; 'I' for Inactive)
REMARK    1  A    between atoms: C_2  and  C_3
REMARK    2  A    between atoms: C_3  and  N_4
REMARK    3  A    between atoms: N_6  and  C_7
REMARK    4  A    between atoms: C_7  and  C_8
REMARK    5  A    between atoms: C_10  and  C_11
REMARK    6  A    between atoms: C_14  and  O_15
REMARK                            x       y       z     vdW  Elec       q    Type
REMARK                         _______ _______ _______ _____ _____    ______ ____
ROOT
ATOM      1  N   UNL     1       6.556   4.891  15.996  0.00  0.00    +0.000 N 
ATOM      2  C   UNL     1       5.651   3.874  16.227  0.00  0.00    +0.000 A 
ATOM      3  N   UNL     1       5.167   3.603  17.467  0.00  0.00    +0.000 N 
ATOM      4  N   UNL     1       5.345   3.263  15.105  0.00  0.00    +0.000 NA
ATOM      5  C   UNL     1       6.137   3.820  14.140  0.00  0.00    +0.000 A 
ATOM      6  C   UNL     1       6.249   3.489  12.782  0.00  0.00    +0.000 A 
ATOM      7  C   UNL     1       7.132   4.220  11.979  0.00  0.00    +0.000 A 
ATOM      8  C   UNL     1       7.881   5.268  12.517  0.00  0.00    +0.000 A 
ATOM      9  C   UNL     1       7.781   5.613  13.869  0.00  0.00    +0.000 A 
ATOM     10  C   UNL     1       6.904   4.856  14.658  0.00  0.00    +0.000 A 
ATOM     11  H   UNL     1       5.838   3.170  18.096  0.00  0.00    +0.000 HD
ENDROOT
BRANCH   1  12
ATOM     12  C   UNL     1       6.959   5.943  16.919  0.00  0.00    +0.000 C 
BRANCH  12  14
ATOM     13  C   UNL     1       4.784   7.193  16.631  0.00  0.00    +0.000 C 
ATOM     14  C   UNL     1       5.796   6.766  17.400  0.00  0.00    +0.000 C 
ENDBRANCH  12  14
ENDBRANCH   1  12
BRANCH   3  15
ATOM     15  C   UNL     1       3.887   2.887  17.565  0.00  0.00    +0.000 C 
BRANCH  15  16
ATOM     16  C   UNL     1       2.902   3.477  18.553  0.00  0.00    +0.000 A 
ATOM     17  C   UNL     1       2.968   4.850  18.858  0.00  0.00    +0.000 A 
ATOM     18  C   UNL     1       2.111   5.439  19.798  0.00  0.00    +0.000 A 
ATOM     19  C   UNL     1       2.210   6.902  20.115  0.00  0.00    +0.000 C 
ATOM     20  C   UNL     1       1.177   4.637  20.459  0.00  0.00    +0.000 A 
ATOM     21  C   UNL     1       1.096   3.273  20.174  0.00  0.00    +0.000 A 
ATOM     22  C   UNL     1       1.952   2.704  19.227  0.00  0.00    +0.000 A 
BRANCH  22  23
ATOM     23  O   UNL     1       1.879   1.362  18.970  0.00  0.00    +0.000 OA
ATOM     24  H   UNL     1       2.555   1.143  18.308  0.00  0.00    +0.000 HD
ENDBRANCH  22  23
ENDBRANCH  15  16
ENDBRANCH   3  15
TORSDOF 5
ENDMDL
MODEL 7
REMARK VINA RESULT:      -7.5      1.965      7.119
REMARK  Name = 
REMARK  6 active torsions:
REMARK  status: ('A' for Active; 'I' for Inactive)
REMARK    1  A    between atoms: C_2  and  C_3
REMARK    2  A    between atoms: C_3  and  N_4
REMARK    3  A    between atoms: N_6  and  C_7
REMARK    4  A    between atoms: C_7  and  C_8
REMARK    5  A    between atoms: C_10  and  C_11
REMARK    6  A    between atoms: C_14  and  O_15
REMARK                            x       y       z     vdW  Elec       q    Type
REMARK                         _______ _______ _______ _____ _____    ______ ____
ROOT
ATOM      1  N   UNL     1       6.845   4.715  16.078  0.00  0.00    +0.000 N 
ATOM      2  C   UNL     1       5.781   3.860  16.286  0.00  0.00    +0.000 A 
ATOM      3  N   UNL     1       5.341   3.541  17.531  0.00  0.00    +0.000 N 
ATOM      4  N   UNL     1       5.289   3.445  15.140  0.00  0.00    +0.000 NA
ATOM      5  C   UNL     1       6.105   3.956  14.169  0.00  0.00    +0.000 A 
ATOM      6  C   UNL     1       6.058   3.768  12.780  0.00  0.00    +0.000 A 
ATOM      7  C   UNL     1       7.007   4.414  11.979  0.00  0.00    +0.000 A 
ATOM      8  C   UNL     1       7.976   5.240  12.549  0.00  0.00    +0.000 A 
ATOM      9  C   UNL     1       8.036   5.441  13.933  0.00  0.00    +0.000 A 
ATOM     10  C   UNL     1       7.087   4.771  14.717  0.00  0.00    +0.000 A 
ATOM     11  H   UNL     1       5.959   2.925  18.051  0.00  0.00    +0.000 HD
ENDROOT
BRANCH   1  12
ATOM     12  C   UNL     1       7.502   5.565  17.061  0.00  0.00    +0.000 C 
BRANCH  12  14
ATOM     13  C   UNL     1       7.566   8.049  17.509  0.00  0.00    +0.000 C 
ATOM     14  C   UNL     1       6.912   6.947  17.116  0.00  0.00    +0.000 C 
ENDBRANCH  12  14
ENDBRANCH   1  12
BRANCH   3  15
ATOM     15  C   UNL     1       3.958   3.062  17.670  0.00  0.00    +0.000 C 
BRANCH  15  16
ATOM     16  C   UNL     1       3.166   3.719  18.780  0.00  0.00    +0.000 A 
ATOM     17  C   UNL     1       2.632   2.924  19.812  0.00  0.00    +0.000 A 
ATOM     18  C   UNL     1       1.853   3.473  20.840  0.00  0.00    +0.000 A 
ATOM     19  C   UNL     1       1.284   2.601  21.921  0.00  0.00    +0.000 C 
ATOM     20  C   UNL     1       1.588   4.845  20.831  0.00  0.00    +0.000 A 
ATOM     21  C   UNL     1       2.105   5.653  19.816  0.00  0.00    +0.000 A 
ATOM     22  C   UNL     1       2.888   5.090  18.804  0.00  0.00    +0.000 A 
BRANCH  22  23
ATOM     23  O   UNL     1       3.372   5.886  17.802  0.00  0.00    +0.000 OA
ATOM     24  H   UNL     1       4.182   5.477  17.456  0.00  0.00    +0.000 HD
ENDBRANCH  22  23
ENDBRANCH  15  16
ENDBRANCH   3  15
TORSDOF 5
ENDMDL
MODEL 8
REMARK VINA RESULT:      -7.4      2.682      7.719
REMARK  Name = 
REMARK  6 active torsions:
REMARK  status: ('A' for Active; 'I' for Inactive)
REMARK    1  A    between atoms: C_2  and  C_3
REMARK    2  A    between atoms: C_3  and  N_4
REMARK    3  A    between atoms: N_6  and  C_7
REMARK    4  A    between atoms: C_7  and  C_8
REMARK    5  A    between atoms: C_10  and  C_11
REMARK    6  A    between atoms: C_14  and  O_15
REMARK                            x       y       z     vdW  Elec       q    Type
REMARK                         _______ _______ _______ _____ _____    ______ ____
ROOT
ATOM      1  N   UNL     1       3.504   4.410  17.240  0.00  0.00    +0.000 N 
ATOM      2  C   UNL     1       3.475   5.491  18.099  0.00  0.00    +0.000 A 
ATOM      3  N   UNL     1       2.398   5.766  18.879  0.00  0.00    +0.000 N 
ATOM      4  N   UNL     1       4.606   6.156  18.045  0.00  0.00    +0.000 NA
ATOM      5  C   UNL     1       5.351   5.563  17.064  0.00  0.00    +0.000 A 
ATOM      6  C   UNL     1       6.612   5.920  16.566  0.00  0.00    +0.000 A 
ATOM      7  C   UNL     1       7.184   5.141  15.553  0.00  0.00    +0.000 A 
ATOM      8  C   UNL     1       6.517   4.022  15.054  0.00  0.00    +0.000 A 
ATOM      9  C   UNL     1       5.259   3.649  15.541  0.00  0.00    +0.000 A 
ATOM     10  C   UNL     1       4.698   4.453  16.542  0.00  0.00    +0.000 A 
ATOM     11  H   UNL     1       1.592   6.125  18.375  0.00  0.00    +0.000 HD
ENDROOT
BRANCH   1  12
ATOM     12  C   UNL     1       2.560   3.304  17.178  0.00  0.00    +0.000 C 
BRANCH  12  14
ATOM     13  C   UNL     1       1.864   2.037  19.249  0.00  0.00    +0.000 C 
ATOM     14  C   UNL     1       2.760   2.311  18.290  0.00  0.00    +0.000 C 
ENDBRANCH  12  14
ENDBRANCH   1  12
BRANCH   3  15
ATOM     15  C   UNL     1       2.611   6.581  20.083  0.00  0.00    +0.000 C 
BRANCH  15  16
ATOM     16  C   UNL     1       1.775   7.842  20.154  0.00  0.00    +0.000 A 
ATOM     17  C   UNL     1       1.056   8.129  21.330  0.00  0.00    +0.000 A 
ATOM     18  C   UNL     1       0.231   9.258  21.435  0.00  0.00    +0.000 A 
ATOM     19  C   UNL     1      -0.535   9.534  22.695  0.00  0.00    +0.000 C 
ATOM     20  C   UNL     1       0.110  10.112  20.336  0.00  0.00    +0.000 A 
ATOM     21  C   UNL     1       0.812   9.846  19.159  0.00  0.00    +0.000 A 
ATOM     22  C   UNL     1       1.637   8.720  19.075  0.00  0.00    +0.000 A 
BRANCH  22  23
ATOM     23  O   UNL     1       2.304   8.456  17.910  0.00  0.00    +0.000 OA
ATOM     24  H   UNL     1       3.145   8.026  18.134  0.00  0.00    +0.000 HD
ENDBRANCH  22  23
ENDBRANCH  15  16
ENDBRANCH   3  15
TORSDOF 5
ENDMDL
MODEL 9
REMARK VINA RESULT:      -7.4      2.971      7.322
REMARK  Name = 
REMARK  6 active torsions:
REMARK  status: ('A' for Active; 'I' for Inactive)
REMARK    1  A    between atoms: C_2  and  C_3
REMARK    2  A    between atoms: C_3  and  N_4
REMARK    3  A    between atoms: N_6  and  C_7
REMARK    4  A    between atoms: C_7  and  C_8
REMARK    5  A    between atoms: C_10  and  C_11
REMARK    6  A    between atoms: C_14  and  O_15
REMARK                            x       y       z     vdW  Elec       q    Type
REMARK                         _______ _______ _______ _____ _____    ______ ____
ROOT
ATOM      1  N   UNL     1       3.946   5.624  17.847  0.00  0.00    +0.000 N 
ATOM      2  C   UNL     1       2.885   6.486  18.045  0.00  0.00    +0.000 A 
ATOM      3  N   UNL     1       3.042   7.835  18.061  0.00  0.00    +0.000 N 
ATOM      4  N   UNL     1       1.765   5.816  18.189  0.00  0.00    +0.000 NA
ATOM      5  C   UNL     1       2.109   4.493  18.187  0.00  0.00    +0.000 A 
ATOM      6  C   UNL     1       1.298   3.363  18.367  0.00  0.00    +0.000 A 
ATOM      7  C   UNL     1       1.887   2.094  18.310  0.00  0.00    +0.000 A 
ATOM      8  C   UNL     1       3.253   1.953  18.067  0.00  0.00    +0.000 A 
ATOM      9  C   UNL     1       4.077   3.069  17.882  0.00  0.00    +0.000 A 
ATOM     10  C   UNL     1       3.470   4.330  17.961  0.00  0.00    +0.000 A 
ATOM     11  H   UNL     1       3.509   8.195  18.888  0.00  0.00    +0.000 HD
ENDROOT
BRANCH   1  12
ATOM     12  C   UNL     1       5.294   5.965  17.414  0.00  0.00    +0.000 C 
BRANCH  12  14
ATOM     13  C   UNL     1       5.600   5.134  15.049  0.00  0.00    +0.000 C 
ATOM     14  C   UNL     1       5.397   6.131  15.923  0.00  0.00    +0.000 C 
ENDBRANCH  12  14
ENDBRANCH   1  12
BRANCH   3  15
ATOM     15  C   UNL     1       1.865   8.668  17.775  0.00  0.00    +0.000 C 
BRANCH  15  16
ATOM     16  C   UNL     1       1.450   9.590  18.901  0.00  0.00    +0.000 A 
ATOM     17  C   UNL     1       0.915   9.041  20.083  0.00  0.00    +0.000 A 
ATOM     18  C   UNL     1       0.472   9.850  21.139  0.00  0.00    +0.000 A 
ATOM     19  C   UNL     1      -0.106   9.240  22.381  0.00  0.00    +0.000 C 
ATOM     20  C   UNL     1       0.552  11.239  21.008  0.00  0.00    +0.000 A 
ATOM     21  C   UNL     1       1.076  11.805  19.845  0.00  0.00    +0.000 A 
ATOM     22  C   UNL     1       1.521  10.984  18.805  0.00  0.00    +0.000 A 
BRANCH  22  23
ATOM     23  O   UNL     1       2.014  11.549  17.661  0.00  0.00    +0.000 OA
ATOM     24  H   UNL     1       2.798  12.072  17.895  0.00  0.00    +0.000 HD
ENDBRANCH  22  23
ENDBRANCH  15  16
ENDBRANCH   3  15
TORSDOF 5
ENDMDL
