MODEL 1
REMARK VINA RESULT:      -8.4      0.000      0.000
REMARK  Name = 
REMARK  4 active torsions:
REMARK  status: ('A' for Active; 'I' for Inactive)
REMARK    1  A    between atoms: C_4  and  O_5
REMARK    2  A    between atoms: O_5  and  C_6
REMARK    3  A    between atoms: C_8  and  N_9
REMARK    4  A    between atoms: C_20  and  C_21
REMARK                            x       y       z     vdW  Elec       q    Type
REMARK                         _______ _______ _______ _____ _____    ______ ____
ROOT
ATOM      1  C   UNL     1       2.933   6.827  18.354  0.00  0.00    +0.000 C 
ATOM      2  C   UNL     1       3.081   8.232  17.730  0.00  0.00    +0.000 C 
ATOM      3  C   UNL     1       1.642   8.511  18.198  0.00  0.00    +0.000 C 
ATOM      4  C   UNL     1       1.860   7.453  19.289  0.00  0.00    +0.000 C 
ENDROOT
BRANCH   3   5
ATOM      5  N   UNL     1       1.486   9.855  18.672  0.00  0.00    +0.000 N 
ATOM      6  C   UNL     1       0.277  10.450  18.775  0.00  0.00    +0.000 A 
ATOM      7  N   UNL     1      -0.084  11.407  19.599  0.00  0.00    +0.000 NA
ATOM      8  C   UNL     1      -1.422  11.615  19.349  0.00  0.00    +0.000 A 
ATOM      9  C   UNL     1      -2.327  12.496  19.955  0.00  0.00    +0.000 A 
ATOM     10  C   UNL     1      -3.655  12.512  19.501  0.00  0.00    +0.000 A 
ATOM     11  C   UNL     1      -4.073  11.669  18.467  0.00  0.00    +0.000 A 
ATOM     12  C   UNL     1      -3.188  10.779  17.856  0.00  0.00    +0.000 A 
ATOM     13  C   UNL     1      -1.877  10.785  18.329  0.00  0.00    +0.000 A 
ATOM     14  N   UNL     1      -0.769  10.063  17.982  0.00  0.00    +0.000 N 
ATOM     15  H   UNL     1       2.158  10.156  19.373  0.00  0.00    +0.000 HD
ATOM     16  H   UNL     1      -0.726   9.354  17.269  0.00  0.00    +0.000 HD
ENDBRANCH   3   5
BRANCH   1  17
ATOM     17  O   UNL     1       2.478   5.808  17.427  0.00  0.00    +0.000 OA
BRANCH  17  21
ATOM     18  C   UNL     1       2.688   1.952  18.834  0.00  0.00    +0.000 A 
ATOM     19  C   UNL     1       1.507   2.664  18.775  0.00  0.00    +0.000 A 
ATOM     20  N   UNL     1       1.425   3.925  18.315  0.00  0.00    +0.000 NA
ATOM     21  C   UNL     1       2.566   4.505  17.882  0.00  0.00    +0.000 A 
ATOM     22  C   UNL     1       3.812   3.874  17.871  0.00  0.00    +0.000 A 
ATOM     23  C   UNL     1       3.852   2.570  18.381  0.00  0.00    +0.000 A 
BRANCH  22  24
ATOM     24  C   UNL     1       5.058   4.531  17.307  0.00  0.00    +0.000 C 
ATOM     25  C   UNL     1       5.541   3.823  16.029  0.00  0.00    +0.000 C 
ATOM     26  C   UNL     1       6.821   4.465  15.513  0.00  0.00    +0.000 C 
ATOM     27  O   UNL     1       7.829   4.455  16.522  0.00  0.00    +0.000 OA
ATOM     28  C   UNL     1       7.449   5.206  17.674  0.00  0.00    +0.000 C 
ATOM     29  C   UNL     1       6.208   4.606  18.326  0.00  0.00    +0.000 C 
ENDBRANCH  22  24
ENDBRANCH  17  21
ENDBRANCH   1  17
TORSDOF 4
ENDMDL
MODEL 2
REMARK VINA RESULT:      -8.3      1.846      3.606
REMARK  Name = 
REMARK  4 active torsions:
REMARK  status: ('A' for Active; 'I' for Inactive)
REMARK    1  A    between atoms: C_4  and  O_5
REMARK    2  A    between atoms: O_5  and  C_6
REMARK    3  A    between atoms: C_8  and  N_9
REMARK    4  A    between atoms: C_20  and  C_21
REMARK                            x       y       z     vdW  Elec       q    Type
REMARK                         _______ _______ _______ _____ _____    ______ ____
ROOT
ATOM      1  C   UNL     1       2.941   8.229  18.190  0.00  0.00    +0.000 C 
ATOM      2  C   UNL     1       2.318   9.535  17.653  0.00  0.00    +0.000 C 
ATOM      3  C   UNL     1       1.032   9.144  18.402  0.00  0.00    +0.000 C 
ATOM      4  C   UNL     1       1.913   8.322  19.353  0.00  0.00    +0.000 C 
ENDROOT
BRANCH   3   5
ATOM      5  N   UNL     1       0.392  10.283  18.993  0.00  0.00    +0.000 N 
ATOM      6  C   UNL     1      -0.852  10.678  18.640  0.00  0.00    +0.000 A 
ATOM      7  N   UNL     1      -1.730  11.328  19.368  0.00  0.00    +0.000 NA
ATOM      8  C   UNL     1      -2.851  11.431  18.576  0.00  0.00    +0.000 A 
ATOM      9  C   UNL     1      -4.101  12.001  18.852  0.00  0.00    +0.000 A 
ATOM     10  C   UNL     1      -5.086  11.979  17.851  0.00  0.00    +0.000 A 
ATOM     11  C   UNL     1      -4.831  11.400  16.604  0.00  0.00    +0.000 A 
ATOM     12  C   UNL     1      -3.595  10.821  16.314  0.00  0.00    +0.000 A 
ATOM     13  C   UNL     1      -2.640  10.858  17.327  0.00  0.00    +0.000 A 
ATOM     14  N   UNL     1      -1.354  10.395  17.398  0.00  0.00    +0.000 N 
ATOM     15  H   UNL     1       0.623  10.464  19.967  0.00  0.00    +0.000 HD
ATOM     16  H   UNL     1      -0.859   9.914  16.666  0.00  0.00    +0.000 HD
ENDBRANCH   3   5
BRANCH   1  17
ATOM     17  O   UNL     1       2.813   7.095  17.294  0.00  0.00    +0.000 OA
BRANCH  17  21
ATOM     18  C   UNL     1       6.030   4.542  17.162  0.00  0.00    +0.000 A 
ATOM     19  C   UNL     1       6.100   5.856  16.746  0.00  0.00    +0.000 A 
ATOM     20  N   UNL     1       5.055   6.702  16.786  0.00  0.00    +0.000 NA
ATOM     21  C   UNL     1       3.888   6.226  17.273  0.00  0.00    +0.000 A 
ATOM     22  C   UNL     1       3.707   4.923  17.745  0.00  0.00    +0.000 A 
ATOM     23  C   UNL     1       4.817   4.073  17.661  0.00  0.00    +0.000 A 
BRANCH  22  24
ATOM     24  C   UNL     1       2.401   4.447  18.354  0.00  0.00    +0.000 C 
ATOM     25  C   UNL     1       2.372   4.674  19.876  0.00  0.00    +0.000 C 
ATOM     26  C   UNL     1       1.078   4.140  20.473  0.00  0.00    +0.000 C 
ATOM     27  O   UNL     1       0.911   2.760  20.153  0.00  0.00    +0.000 OA
ATOM     28  C   UNL     1       0.818   2.539  18.746  0.00  0.00    +0.000 C 
ATOM     29  C   UNL     1       2.100   2.971  18.044  0.00  0.00    +0.000 C 
ENDBRANCH  22  24
ENDBRANCH  17  21
ENDBRANCH   1  17
TORSDOF 4
ENDMDL
MODEL 3
REMARK VINA RESULT:      -8.2      1.659      2.026
REMARK  Name = 
REMARK  4 active torsions:
REMARK  status: ('A' for Active; 'I' for Inactive)
REMARK    1  A    between atoms: C_4  and  O_5
REMARK    2  A    between atoms: O_5  and  C_6
REMARK    3  A    between atoms: C_8  and  N_9
REMARK    4  A    between atoms: C_20  and  C_21
REMARK                            x       y       z     vdW  Elec       q    Type
REMARK                         _______ _______ _______ _____ _____    ______ ____
ROOT
ATOM      1  C   UNL     1       3.061   6.597  18.599  0.00  0.00    +0.000 C 
ATOM      2  C   UNL     1       2.443   7.971  18.938  0.00  0.00    +0.000 C 
ATOM      3  C   UNL     1       1.802   7.298  20.165  0.00  0.00    +0.000 C 
ATOM      4  C   UNL     1       2.940   6.269  20.114  0.00  0.00    +0.000 C 
ENDROOT
BRANCH   3   5
ATOM      5  N   UNL     1       1.808   8.161  21.309  0.00  0.00    +0.000 N 
ATOM      6  C   UNL     1       0.919   9.168  21.461  0.00  0.00    +0.000 A 
ATOM      7  N   UNL     1       0.478   9.694  22.580  0.00  0.00    +0.000 NA
ATOM      8  C   UNL     1      -0.450  10.636  22.196  0.00  0.00    +0.000 A 
ATOM      9  C   UNL     1      -1.256  11.478  22.974  0.00  0.00    +0.000 A 
ATOM     10  C   UNL     1      -2.127  12.365  22.322  0.00  0.00    +0.000 A 
ATOM     11  C   UNL     1      -2.195  12.412  20.926  0.00  0.00    +0.000 A 
ATOM     12  C   UNL     1      -1.405  11.575  20.135  0.00  0.00    +0.000 A 
ATOM     13  C   UNL     1      -0.552  10.706  20.811  0.00  0.00    +0.000 A 
ATOM     14  N   UNL     1       0.338   9.764  20.374  0.00  0.00    +0.000 N 
ATOM     15  H   UNL     1       2.101   7.732  22.184  0.00  0.00    +0.000 HD
ATOM     16  H   UNL     1       0.530   9.534  19.413  0.00  0.00    +0.000 HD
ENDBRANCH   3   5
BRANCH   1  17
ATOM     17  O   UNL     1       2.265   5.792  17.691  0.00  0.00    +0.000 OA
BRANCH  17  21
ATOM     18  C   UNL     1       2.570   1.728  18.218  0.00  0.00    +0.000 A 
ATOM     19  C   UNL     1       1.401   2.426  18.442  0.00  0.00    +0.000 A 
ATOM     20  N   UNL     1       1.288   3.756  18.272  0.00  0.00    +0.000 NA
ATOM     21  C   UNL     1       2.383   4.424  17.847  0.00  0.00    +0.000 A 
ATOM     22  C   UNL     1       3.610   3.819  17.564  0.00  0.00    +0.000 A 
ATOM     23  C   UNL     1       3.686   2.437  17.779  0.00  0.00    +0.000 A 
BRANCH  22  24
ATOM     24  C   UNL     1       4.796   4.592  17.017  0.00  0.00    +0.000 C 
ATOM     25  C   UNL     1       5.209   4.081  15.625  0.00  0.00    +0.000 C 
ATOM     26  C   UNL     1       6.432   4.832  15.120  0.00  0.00    +0.000 C 
ATOM     27  O   UNL     1       7.507   4.722  16.050  0.00  0.00    +0.000 OA
ATOM     28  C   UNL     1       7.187   5.297  17.317  0.00  0.00    +0.000 C 
ATOM     29  C   UNL     1       6.011   4.569  17.959  0.00  0.00    +0.000 C 
ENDBRANCH  22  24
ENDBRANCH  17  21
ENDBRANCH   1  17
TORSDOF 4
ENDMDL
MODEL 4
REMARK VINA RESULT:      -8.2      0.714      1.239
REMARK  Name = 
REMARK  4 active torsions:
REMARK  status: ('A' for Active; 'I' for Inactive)
REMARK    1  A    between atoms: C_4  and  O_5
REMARK    2  A    between atoms: O_5  and  C_6
REMARK    3  A    between atoms: C_8  and  N_9
REMARK    4  A    between atoms: C_20  and  C_21
REMARK                            x       y       z     vdW  Elec       q    Type
REMARK                         _______ _______ _______ _____ _____    ______ ____
ROOT
ATOM      1  C   UNL     1       3.467   6.770  18.193  0.00  0.00    +0.000 C 
ATOM      2  C   UNL     1       3.352   8.204  17.634  0.00  0.00    +0.000 C 
ATOM      3  C   UNL     1       1.887   8.193  18.106  0.00  0.00    +0.000 C 
ATOM      4  C   UNL     1       2.300   7.145  19.150  0.00  0.00    +0.000 C 
ENDROOT
BRANCH   3   5
ATOM      5  N   UNL     1       1.489   9.463  18.638  0.00  0.00    +0.000 N 
ATOM      6  C   UNL     1       0.256   9.979  18.433  0.00  0.00    +0.000 A 
ATOM      7  N   UNL     1      -0.406  10.813  19.200  0.00  0.00    +0.000 NA
ATOM      8  C   UNL     1      -1.627  10.979  18.584  0.00  0.00    +0.000 A 
ATOM      9  C   UNL     1      -2.740  11.735  18.975  0.00  0.00    +0.000 A 
ATOM     10  C   UNL     1      -3.876  11.736  18.150  0.00  0.00    +0.000 A 
ATOM     11  C   UNL     1      -3.903  10.998  16.962  0.00  0.00    +0.000 A 
ATOM     12  C   UNL     1      -2.807  10.232  16.561  0.00  0.00    +0.000 A 
ATOM     13  C   UNL     1      -1.696  10.251  17.401  0.00  0.00    +0.000 A 
ATOM     14  N   UNL     1      -0.478   9.632  17.331  0.00  0.00    +0.000 N 
ATOM     15  H   UNL     1       1.901   9.715  19.533  0.00  0.00    +0.000 HD
ATOM     16  H   UNL     1      -0.171   9.014  16.599  0.00  0.00    +0.000 HD
ENDBRANCH   3   5
BRANCH   1  17
ATOM     17  O   UNL     1       3.203   5.726  17.220  0.00  0.00    +0.000 OA
BRANCH  17  21
ATOM     18  C   UNL     1       2.151   2.095  18.830  0.00  0.00    +0.000 A 
ATOM     19  C   UNL     1       1.261   3.142  18.700  0.00  0.00    +0.000 A 
ATOM     20  N   UNL     1       1.593   4.334  18.173  0.00  0.00    +0.000 NA
ATOM     21  C   UNL     1       2.864   4.493  17.744  0.00  0.00    +0.000 A 
ATOM     22  C   UNL     1       3.842   3.497  17.801  0.00  0.00    +0.000 A 
ATOM     23  C   UNL     1       3.456   2.280  18.379  0.00  0.00    +0.000 A 
BRANCH  22  24
ATOM     24  C   UNL     1       5.239   3.687  17.240  0.00  0.00    +0.000 C 
ATOM     25  C   UNL     1       6.121   4.515  18.191  0.00  0.00    +0.000 C 
ATOM     26  C   UNL     1       7.499   4.740  17.584  0.00  0.00    +0.000 C 
ATOM     27  O   UNL     1       7.388   5.365  16.307  0.00  0.00    +0.000 OA
ATOM     28  C   UNL     1       6.671   4.559  15.371  0.00  0.00    +0.000 C 
ATOM     29  C   UNL     1       5.239   4.328  15.842  0.00  0.00    +0.000 C 
ENDBRANCH  22  24
ENDBRANCH  17  21
ENDBRANCH   1  17
TORSDOF 4
ENDMDL
MODEL 5
REMARK VINA RESULT:      -8.0      1.704      3.266
REMARK  Name = 
REMARK  4 active torsions:
REMARK  status: ('A' for Active; 'I' for Inactive)
REMARK    1  A    between atoms: C_4  and  O_5
REMARK    2  A    between atoms: O_5  and  C_6
REMARK    3  A    between atoms: C_8  and  N_9
REMARK    4  A    between atoms: C_20  and  C_21
REMARK                            x       y       z     vdW  Elec       q    Type
REMARK                         _______ _______ _______ _____ _____    ______ ____
ROOT
ATOM      1  C   UNL     1       3.252   7.171  18.520  0.00  0.00    +0.000 C 
ATOM      2  C   UNL     1       2.803   8.465  17.810  0.00  0.00    +0.000 C 
ATOM      3  C   UNL     1       1.469   8.330  18.565  0.00  0.00    +0.000 C 
ATOM      4  C   UNL     1       2.229   7.532  19.634  0.00  0.00    +0.000 C 
ENDROOT
BRANCH   3   5
ATOM      5  N   UNL     1       0.967   9.603  18.993  0.00  0.00    +0.000 N 
ATOM      6  C   UNL     1      -0.228  10.085  18.584  0.00  0.00    +0.000 A 
ATOM      7  N   UNL     1      -1.019  10.922  19.214  0.00  0.00    +0.000 NA
ATOM      8  C   UNL     1      -2.130  11.044  18.411  0.00  0.00    +0.000 A 
ATOM      9  C   UNL     1      -3.305  11.783  18.601  0.00  0.00    +0.000 A 
ATOM     10  C   UNL     1      -4.297  11.737  17.608  0.00  0.00    +0.000 A 
ATOM     11  C   UNL     1      -4.123  10.970  16.452  0.00  0.00    +0.000 A 
ATOM     12  C   UNL     1      -2.963  10.221  16.248  0.00  0.00    +0.000 A 
ATOM     13  C   UNL     1      -1.998  10.286  17.251  0.00  0.00    +0.000 A 
ATOM     14  N   UNL     1      -0.772   9.695  17.391  0.00  0.00    +0.000 N 
ATOM     15  H   UNL     1       1.229   9.886  19.935  0.00  0.00    +0.000 HD
ATOM     16  H   UNL     1      -0.342   9.067  16.732  0.00  0.00    +0.000 HD
ENDBRANCH   3   5
BRANCH   1  17
ATOM     17  O   UNL     1       2.996   5.957  17.768  0.00  0.00    +0.000 OA
BRANCH  17  21
ATOM     18  C   UNL     1       6.201   4.453  15.682  0.00  0.00    +0.000 A 
ATOM     19  C   UNL     1       5.839   5.784  15.640  0.00  0.00    +0.000 A 
ATOM     20  N   UNL     1       4.793   6.289  16.319  0.00  0.00    +0.000 NA
ATOM     21  C   UNL     1       4.080   5.436  17.086  0.00  0.00    +0.000 A 
ATOM     22  C   UNL     1       4.369   4.076  17.226  0.00  0.00    +0.000 A 
ATOM     23  C   UNL     1       5.452   3.592  16.481  0.00  0.00    +0.000 A 
BRANCH  22  24
ATOM     24  C   UNL     1       3.590   3.164  18.156  0.00  0.00    +0.000 C 
ATOM     25  C   UNL     1       2.097   3.121  17.784  0.00  0.00    +0.000 C 
ATOM     26  C   UNL     1       1.327   2.245  18.761  0.00  0.00    +0.000 C 
ATOM     27  O   UNL     1       1.513   2.704  20.099  0.00  0.00    +0.000 OA
ATOM     28  C   UNL     1       2.879   2.642  20.507  0.00  0.00    +0.000 C 
ATOM     29  C   UNL     1       3.745   3.548  19.637  0.00  0.00    +0.000 C 
ENDBRANCH  22  24
ENDBRANCH  17  21
ENDBRANCH   1  17
TORSDOF 4
ENDMDL
MODEL 6
REMARK VINA RESULT:      -7.9      4.282      7.429
REMARK  Name = 
REMARK  4 active torsions:
REMARK  status: ('A' for Active; 'I' for Inactive)
REMARK    1  A    between atoms: C_4  and  O_5
REMARK    2  A    between atoms: O_5  and  C_6
REMARK    3  A    between atoms: C_8  and  N_9
REMARK    4  A    between atoms: C_20  and  C_21
REMARK                            x       y       z     vdW  Elec       q    Type
REMARK                         _______ _______ _______ _____ _____    ______ ____
ROOT
ATOM      1  C   UNL     1       6.124   4.957  17.823  0.00  0.00    +0.000 C 
ATOM      2  C   UNL     1       7.275   5.718  17.131  0.00  0.00    +0.000 C 
ATOM      3  C   UNL     1       7.074   6.827  18.179  0.00  0.00    +0.000 C 
ATOM      4  C   UNL     1       6.489   5.754  19.108  0.00  0.00    +0.000 C 
ENDROOT
BRANCH   3   5
ATOM      5  N   UNL     1       8.322   7.389  18.605  0.00  0.00    +0.000 N 
ATOM      6  C   UNL     1       8.565   8.719  18.574  0.00  0.00    +0.000 A 
ATOM      7  N   UNL     1       9.382   9.408  19.336  0.00  0.00    +0.000 NA
ATOM      8  C   UNL     1       9.218  10.720  18.950  0.00  0.00    +0.000 A 
ATOM      9  C   UNL     1       9.815  11.887  19.443  0.00  0.00    +0.000 A 
ATOM     10  C   UNL     1       9.471  13.117  18.858  0.00  0.00    +0.000 A 
ATOM     11  C   UNL     1       8.552  13.182  17.806  0.00  0.00    +0.000 A 
ATOM     12  C   UNL     1       7.941  12.030  17.307  0.00  0.00    +0.000 A 
ATOM     13  C   UNL     1       8.302  10.826  17.908  0.00  0.00    +0.000 A 
ATOM     14  N   UNL     1       7.912   9.533  17.689  0.00  0.00    +0.000 N 
ATOM     15  H   UNL     1       8.791   6.900  19.363  0.00  0.00    +0.000 HD
ATOM     16  H   UNL     1       7.245   9.227  16.999  0.00  0.00    +0.000 HD
ENDBRANCH   3   5
BRANCH   1  17
ATOM     17  O   UNL     1       4.814   5.206  17.251  0.00  0.00    +0.000 OA
BRANCH  17  21
ATOM     18  C   UNL     1       1.802   2.713  18.515  0.00  0.00    +0.000 A 
ATOM     19  C   UNL     1       2.891   2.265  17.796  0.00  0.00    +0.000 A 
ATOM     20  N   UNL     1       3.884   3.071  17.378  0.00  0.00    +0.000 NA
ATOM     21  C   UNL     1       3.800   4.380  17.699  0.00  0.00    +0.000 A 
ATOM     22  C   UNL     1       2.759   4.941  18.443  0.00  0.00    +0.000 A 
ATOM     23  C   UNL     1       1.736   4.068  18.836  0.00  0.00    +0.000 A 
BRANCH  22  24
ATOM     24  C   UNL     1       2.736   6.403  18.847  0.00  0.00    +0.000 C 
ATOM     25  C   UNL     1       1.855   6.632  20.089  0.00  0.00    +0.000 C 
ATOM     26  C   UNL     1       1.804   8.111  20.444  0.00  0.00    +0.000 C 
ATOM     27  O   UNL     1       1.341   8.877  19.333  0.00  0.00    +0.000 OA
ATOM     28  C   UNL     1       2.208   8.772  18.204  0.00  0.00    +0.000 C 
ATOM     29  C   UNL     1       2.280   7.331  17.709  0.00  0.00    +0.000 C 
ENDBRANCH  22  24
ENDBRANCH  17  21
ENDBRANCH   1  17
TORSDOF 4
ENDMDL
MODEL 7
REMARK VINA RESULT:      -7.6      4.713      8.136
REMARK  Name = 
REMARK  4 active torsions:
REMARK  status: ('A' for Active; 'I' for Inactive)
REMARK    1  A    between atoms: C_4  and  O_5
REMARK    2  A    between atoms: O_5  and  C_6
REMARK    3  A    between atoms: C_8  and  N_9
REMARK    4  A    between atoms: C_20  and  C_21
REMARK                            x       y       z     vdW  Elec       q    Type
REMARK                         _______ _______ _______ _____ _____    ______ ____
ROOT
ATOM      1  C   UNL     1       6.550   5.815  17.924  0.00  0.00    +0.000 C 
ATOM      2  C   UNL     1       6.292   7.022  16.996  0.00  0.00    +0.000 C 
ATOM      3  C   UNL     1       7.099   7.870  17.996  0.00  0.00    +0.000 C 
ATOM      4  C   UNL     1       7.813   6.577  18.417  0.00  0.00    +0.000 C 
ENDROOT
BRANCH   3   5
ATOM      5  N   UNL     1       7.925   8.835  17.331  0.00  0.00    +0.000 N 
ATOM      6  C   UNL     1       8.697   9.715  18.008  0.00  0.00    +0.000 A 
ATOM      7  N   UNL     1       9.812  10.282  17.610  0.00  0.00    +0.000 NA
ATOM      8  C   UNL     1      10.235  11.038  18.680  0.00  0.00    +0.000 A 
ATOM      9  C   UNL     1      11.381  11.830  18.829  0.00  0.00    +0.000 A 
ATOM     10  C   UNL     1      11.574  12.513  20.041  0.00  0.00    +0.000 A 
ATOM     11  C   UNL     1      10.646  12.409  21.082  0.00  0.00    +0.000 A 
ATOM     12  C   UNL     1       9.502  11.618  20.955  0.00  0.00    +0.000 A 
ATOM     13  C   UNL     1       9.340  10.953  19.742  0.00  0.00    +0.000 A 
ATOM     14  N   UNL     1       8.369  10.109  19.277  0.00  0.00    +0.000 N 
ATOM     15  H   UNL     1       8.314   8.543  16.438  0.00  0.00    +0.000 HD
ATOM     16  H   UNL     1       7.552   9.813  19.785  0.00  0.00    +0.000 HD
ENDBRANCH   3   5
BRANCH   1  17
ATOM     17  O   UNL     1       5.505   5.582  18.903  0.00  0.00    +0.000 OA
BRANCH  17  21
ATOM     18  C   UNL     1       2.379   3.279  17.558  0.00  0.00    +0.000 A 
ATOM     19  C   UNL     1       3.665   2.795  17.684  0.00  0.00    +0.000 A 
ATOM     20  N   UNL     1       4.696   3.538  18.125  0.00  0.00    +0.000 NA
ATOM     21  C   UNL     1       4.438   4.819  18.468  0.00  0.00    +0.000 A 
ATOM     22  C   UNL     1       3.173   5.408  18.406  0.00  0.00    +0.000 A 
ATOM     23  C   UNL     1       2.135   4.602  17.919  0.00  0.00    +0.000 A 
BRANCH  22  24
ATOM     24  C   UNL     1       2.907   6.827  18.872  0.00  0.00    +0.000 C 
ATOM     25  C   UNL     1       1.967   6.855  20.090  0.00  0.00    +0.000 C 
ATOM     26  C   UNL     1       1.671   8.289  20.506  0.00  0.00    +0.000 C 
ATOM     27  O   UNL     1       1.123   9.025  19.414  0.00  0.00    +0.000 OA
ATOM     28  C   UNL     1       2.027   9.112  18.313  0.00  0.00    +0.000 C 
ATOM     29  C   UNL     1       2.341   7.726  17.760  0.00  0.00    +0.000 C 
ENDBRANCH  22  24
ENDBRANCH  17  21
ENDBRANCH   1  17
TORSDOF 4
ENDMDL
MODEL 8
REMARK VINA RESULT:      -7.6      1.729      2.075
REMARK  Name = 
REMARK  4 active torsions:
REMARK  status: ('A' for Active; 'I' for Inactive)
REMARK    1  A    between atoms: C_4  and  O_5
REMARK    2  A    between atoms: O_5  and  C_6
REMARK    3  A    between atoms: C_8  and  N_9
REMARK    4  A    between atoms: C_20  and  C_21
REMARK                            x       y       z     vdW  Elec       q    Type
REMARK                         _______ _______ _______ _____ _____    ______ ____
ROOT
ATOM      1  C   UNL     1       2.692   7.048  17.700  0.00  0.00    +0.000 C 
ATOM      2  C   UNL     1       1.257   7.600  17.832  0.00  0.00    +0.000 C 
ATOM      3  C   UNL     1       1.861   8.783  18.608  0.00  0.00    +0.000 C 
ATOM      4  C   UNL     1       3.177   8.517  17.863  0.00  0.00    +0.000 C 
ENDROOT
BRANCH   3   5
ATOM      5  N   UNL     1       1.214  10.021  18.284  0.00  0.00    +0.000 N 
ATOM      6  C   UNL     1       0.654  10.813  19.225  0.00  0.00    +0.000 A 
ATOM      7  N   UNL     1       0.484  12.114  19.188  0.00  0.00    +0.000 NA
ATOM      8  C   UNL     1      -0.070  12.442  20.405  0.00  0.00    +0.000 A 
ATOM      9  C   UNL     1      -0.432  13.692  20.925  0.00  0.00    +0.000 A 
ATOM     10  C   UNL     1      -0.990  13.749  22.211  0.00  0.00    +0.000 A 
ATOM     11  C   UNL     1      -1.183  12.586  22.965  0.00  0.00    +0.000 A 
ATOM     12  C   UNL     1      -0.821  11.333  22.467  0.00  0.00    +0.000 A 
ATOM     13  C   UNL     1      -0.269  11.310  21.188  0.00  0.00    +0.000 A 
ATOM     14  N   UNL     1       0.196  10.290  20.404  0.00  0.00    +0.000 N 
ATOM     15  H   UNL     1       1.603  10.528  17.493  0.00  0.00    +0.000 HD
ATOM     16  H   UNL     1       0.211   9.314  20.652  0.00  0.00    +0.000 HD
ENDBRANCH   3   5
BRANCH   1  17
ATOM     17  O   UNL     1       3.071   6.116  18.745  0.00  0.00    +0.000 OA
BRANCH  17  21
ATOM     18  C   UNL     1       2.274   2.149  18.024  0.00  0.00    +0.000 A 
ATOM     19  C   UNL     1       1.373   2.994  18.639  0.00  0.00    +0.000 A 
ATOM     20  N   UNL     1       1.621   4.294  18.878  0.00  0.00    +0.000 NA
ATOM     21  C   UNL     1       2.815   4.784  18.479  0.00  0.00    +0.000 A 
ATOM     22  C   UNL     1       3.794   4.030  17.827  0.00  0.00    +0.000 A 
ATOM     23  C   UNL     1       3.499   2.676  17.620  0.00  0.00    +0.000 A 
BRANCH  22  24
ATOM     24  C   UNL     1       5.093   4.632  17.326  0.00  0.00    +0.000 C 
ATOM     25  C   UNL     1       5.596   3.919  16.059  0.00  0.00    +0.000 C 
ATOM     26  C   UNL     1       6.926   4.503  15.606  0.00  0.00    +0.000 C 
ATOM     27  O   UNL     1       7.889   4.429  16.656  0.00  0.00    +0.000 OA
ATOM     28  C   UNL     1       7.496   5.183  17.803  0.00  0.00    +0.000 C 
ATOM     29  C   UNL     1       6.201   4.636  18.393  0.00  0.00    +0.000 C 
ENDBRANCH  22  24
ENDBRANCH  17  21
ENDBRANCH   1  17
TORSDOF 4
ENDMDL
MODEL 9
REMARK VINA RESULT:      -7.5      2.328      4.162
REMARK  Name = 
REMARK  4 active torsions:
REMARK  status: ('A' for Active; 'I' for Inactive)
REMARK    1  A    between atoms: C_4  and  O_5
REMARK    2  A    between atoms: O_5  and  C_6
REMARK    3  A    between atoms: C_8  and  N_9
REMARK    4  A    between atoms: C_20  and  C_21
REMARK                            x       y       z     vdW  Elec       q    Type
REMARK                         _______ _______ _______ _____ _____    ______ ____
ROOT
ATOM      1  C   UNL     1       2.213   8.567  17.496  0.00  0.00    +0.000 C 
ATOM      2  C   UNL     1       0.694   8.783  17.666  0.00  0.00    +0.000 C 
ATOM      3  C   UNL     1       1.039   9.921  18.643  0.00  0.00    +0.000 C 
ATOM      4  C   UNL     1       2.382  10.056  17.910  0.00  0.00    +0.000 C 
ENDROOT
BRANCH   3   5
ATOM      5  N   UNL     1       0.150  11.035  18.500  0.00  0.00    +0.000 N 
ATOM      6  C   UNL     1      -0.460  11.615  19.559  0.00  0.00    +0.000 A 
ATOM      7  N   UNL     1      -0.869  12.857  19.674  0.00  0.00    +0.000 NA
ATOM      8  C   UNL     1      -1.361  12.960  20.956  0.00  0.00    +0.000 A 
ATOM      9  C   UNL     1      -1.898  14.063  21.631  0.00  0.00    +0.000 A 
ATOM     10  C   UNL     1      -2.339  13.893  22.953  0.00  0.00    +0.000 A 
ATOM     11  C   UNL     1      -2.245  12.651  23.589  0.00  0.00    +0.000 A 
ATOM     12  C   UNL     1      -1.706  11.542  22.935  0.00  0.00    +0.000 A 
ATOM     13  C   UNL     1      -1.276  11.743  21.625  0.00  0.00    +0.000 A 
ATOM     14  N   UNL     1      -0.706  10.908  20.704  0.00  0.00    +0.000 N 
ATOM     15  H   UNL     1       0.366  11.679  17.743  0.00  0.00    +0.000 HD
ATOM     16  H   UNL     1      -0.489   9.935  20.845  0.00  0.00    +0.000 HD
ENDBRANCH   3   5
BRANCH   1  17
ATOM     17  O   UNL     1       2.778   7.573  18.389  0.00  0.00    +0.000 OA
BRANCH  17  21
ATOM     18  C   UNL     1       5.477   5.025  16.626  0.00  0.00    +0.000 A 
ATOM     19  C   UNL     1       5.648   6.395  16.653  0.00  0.00    +0.000 A 
ATOM     20  N   UNL     1       4.772   7.238  17.228  0.00  0.00    +0.000 NA
ATOM     21  C   UNL     1       3.682   6.699  17.816  0.00  0.00    +0.000 A 
ATOM     22  C   UNL     1       3.419   5.328  17.872  0.00  0.00    +0.000 A 
ATOM     23  C   UNL     1       4.346   4.491  17.239  0.00  0.00    +0.000 A 
BRANCH  22  24
ATOM     24  C   UNL     1       2.221   4.754  18.607  0.00  0.00    +0.000 C 
ATOM     25  C   UNL     1       2.474   4.674  20.123  0.00  0.00    +0.000 C 
ATOM     26  C   UNL     1       1.283   4.046  20.832  0.00  0.00    +0.000 C 
ATOM     27  O   UNL     1       0.997   2.759  20.287  0.00  0.00    +0.000 OA
ATOM     28  C   UNL     1       0.644   2.823  18.906  0.00  0.00    +0.000 C 
ATOM     29  C   UNL     1       1.801   3.373  18.077  0.00  0.00    +0.000 C 
ENDBRANCH  22  24
ENDBRANCH  17  21
ENDBRANCH   1  17
TORSDOF 4
ENDMDL
