MODEL 1
REMARK VINA RESULT:      -7.7      0.000      0.000
REMARK  Name = 
REMARK  6 active torsions:
REMARK  status: ('A' for Active; 'I' for Inactive)
REMARK    1  A    between atoms: C_2  and  C_15
REMARK    2  A    between atoms: N_3  and  C_4
REMARK    3  A    between atoms: C_7  and  O_8
REMARK    4  A    between atoms: O_8  and  C_9
REMARK    5  A    between atoms: C_18  and  S_19
REMARK    6  A    between atoms: S_19  and  N_22
REMARK                            x       y       z     vdW  Elec       q    Type
REMARK                         _______ _______ _______ _____ _____    ______ ____
ROOT
ATOM      1  O   UNL     1      -0.275  10.212  18.942  0.00  0.00    +0.000 OA
ATOM      2  C   UNL     1       0.642   9.768  19.630  0.00  0.00    +0.000 C 
ATOM      3  N   UNL     1       0.868  10.129  20.949  0.00  0.00    +0.000 N 
ATOM      4  H   UNL     1       1.768   9.877  21.341  0.00  0.00    +0.000 HD
ENDROOT
BRANCH   3   5
ATOM      5  C   UNL     1       0.026  10.990  21.696  0.00  0.00    +0.000 A 
ATOM      6  C   UNL     1      -0.842  10.522  22.687  0.00  0.00    +0.000 A 
ATOM      7  C   UNL     1      -1.693  11.393  23.371  0.00  0.00    +0.000 A 
ATOM      8  C   UNL     1      -1.675  12.757  23.099  0.00  0.00    +0.000 A 
ATOM      9  C   UNL     1      -0.820  13.236  22.108  0.00  0.00    +0.000 A 
ATOM     10  C   UNL     1       0.049  12.361  21.430  0.00  0.00    +0.000 A 
BRANCH   8  11
ATOM     11  O   UNL     1      -2.577  13.487  23.805  0.00  0.00    +0.000 OA
BRANCH  11  12
ATOM     12  C   UNL     1      -3.958  13.180  23.693  0.00  0.00    +0.000 C 
ATOM     13  F   UNL     1      -4.313  12.627  22.514  0.00  0.00    +0.000 F 
ATOM     14  F   UNL     1      -4.303  12.334  24.688  0.00  0.00    +0.000 F 
ATOM     15  F   UNL     1      -4.668  14.321  23.845  0.00  0.00    +0.000 F 
ENDBRANCH  11  12
ENDBRANCH   8  11
ENDBRANCH   3   5
BRANCH   2  16
ATOM     16  C   UNL     1       1.594   8.848  19.040  0.00  0.00    +0.000 A 
ATOM     17  C   UNL     1       2.243   8.976  17.831  0.00  0.00    +0.000 A 
ATOM     18  C   UNL     1       3.006   7.811  17.654  0.00  0.00    +0.000 A 
ATOM     19  C   UNL     1       2.804   7.001  18.764  0.00  0.00    +0.000 A 
ATOM     20  O   UNL     1       1.942   7.664  19.632  0.00  0.00    +0.000 OA
BRANCH  19  21
ATOM     21  S   UNL     1       3.516   5.397  19.137  0.00  0.00    +0.000 S 
ATOM     22  O   UNL     1       4.949   5.599  19.036  0.00  0.00    +0.000 OA
ATOM     23  O   UNL     1       2.905   5.015  20.388  0.00  0.00    +0.000 OA
BRANCH  21  24
ATOM     24  N   UNL     1       3.076   4.280  17.928  0.00  0.00    +0.000 NA
ATOM     25  C   UNL     1       1.643   3.870  17.862  0.00  0.00    +0.000 C 
ATOM     26  C   UNL     1       1.287   2.871  18.969  0.00  0.00    +0.000 C 
ATOM     27  O   UNL     1       2.144   1.721  18.935  0.00  0.00    +0.000 OA
ATOM     28  C   UNL     1       3.533   2.078  19.023  0.00  0.00    +0.000 C 
ATOM     29  C   UNL     1       3.931   3.046  17.901  0.00  0.00    +0.000 C 
ENDBRANCH  21  24
ENDBRANCH  19  21
ENDBRANCH   2  16
TORSDOF 6
ENDMDL
MODEL 2
REMARK VINA RESULT:      -7.7      5.774     10.287
REMARK  Name = 
REMARK  6 active torsions:
REMARK  status: ('A' for Active; 'I' for Inactive)
REMARK    1  A    between atoms: C_2  and  C_15
REMARK    2  A    between atoms: N_3  and  C_4
REMARK    3  A    between atoms: C_7  and  O_8
REMARK    4  A    between atoms: O_8  and  C_9
REMARK    5  A    between atoms: C_18  and  S_19
REMARK    6  A    between atoms: S_19  and  N_22
REMARK                            x       y       z     vdW  Elec       q    Type
REMARK                         _______ _______ _______ _____ _____    ______ ____
ROOT
ATOM      1  O   UNL     1       2.174   8.464  18.356  0.00  0.00    +0.000 OA
ATOM      2  C   UNL     1       1.992   7.935  19.451  0.00  0.00    +0.000 C 
ATOM      3  N   UNL     1       2.421   6.657  19.776  0.00  0.00    +0.000 N 
ATOM      4  H   UNL     1       2.026   6.246  20.614  0.00  0.00    +0.000 HD
ENDROOT
BRANCH   3   5
ATOM      5  C   UNL     1       3.193   5.833  18.921  0.00  0.00    +0.000 A 
ATOM      6  C   UNL     1       4.590   5.873  18.894  0.00  0.00    +0.000 A 
ATOM      7  C   UNL     1       5.318   5.081  18.004  0.00  0.00    +0.000 A 
ATOM      8  C   UNL     1       4.666   4.208  17.139  0.00  0.00    +0.000 A 
ATOM      9  C   UNL     1       3.272   4.164  17.149  0.00  0.00    +0.000 A 
ATOM     10  C   UNL     1       2.540   4.950  18.057  0.00  0.00    +0.000 A 
BRANCH   8  11
ATOM     11  O   UNL     1       5.487   3.524  16.300  0.00  0.00    +0.000 OA
BRANCH  11  12
ATOM     12  C   UNL     1       6.054   4.195  15.185  0.00  0.00    +0.000 C 
ATOM     13  F   UNL     1       5.398   5.314  14.814  0.00  0.00    +0.000 F 
ATOM     14  F   UNL     1       7.334   4.520  15.472  0.00  0.00    +0.000 F 
ATOM     15  F   UNL     1       6.061   3.349  14.130  0.00  0.00    +0.000 F 
ENDBRANCH  11  12
ENDBRANCH   8  11
ENDBRANCH   3   5
BRANCH   2  16
ATOM     16  C   UNL     1       1.240   8.642  20.468  0.00  0.00    +0.000 A 
ATOM     17  C   UNL     1       0.604   8.104  21.566  0.00  0.00    +0.000 A 
ATOM     18  C   UNL     1      -0.047   9.163  22.217  0.00  0.00    +0.000 A 
ATOM     19  C   UNL     1       0.211  10.324  21.500  0.00  0.00    +0.000 A 
ATOM     20  O   UNL     1       1.032   9.995  20.426  0.00  0.00    +0.000 OA
BRANCH  19  21
ATOM     21  S   UNL     1      -0.323  12.004  21.838  0.00  0.00    +0.000 S 
ATOM     22  O   UNL     1      -0.926  11.939  23.155  0.00  0.00    +0.000 OA
ATOM     23  O   UNL     1       0.851  12.809  21.596  0.00  0.00    +0.000 OA
BRANCH  21  24
ATOM     24  N   UNL     1      -1.549  12.446  20.740  0.00  0.00    +0.000 NA
ATOM     25  C   UNL     1      -1.478  11.872  19.365  0.00  0.00    +0.000 C 
ATOM     26  C   UNL     1      -0.411  12.570  18.514  0.00  0.00    +0.000 C 
ATOM     27  O   UNL     1      -0.625  13.988  18.460  0.00  0.00    +0.000 OA
ATOM     28  C   UNL     1      -0.672  14.578  19.768  0.00  0.00    +0.000 C 
ATOM     29  C   UNL     1      -1.761  13.929  20.633  0.00  0.00    +0.000 C 
ENDBRANCH  21  24
ENDBRANCH  19  21
ENDBRANCH   2  16
TORSDOF 6
ENDMDL
MODEL 3
REMARK VINA RESULT:      -7.6      6.322     10.715
REMARK  Name = 
REMARK  6 active torsions:
REMARK  status: ('A' for Active; 'I' for Inactive)
REMARK    1  A    between atoms: C_2  and  C_15
REMARK    2  A    between atoms: N_3  and  C_4
REMARK    3  A    between atoms: C_7  and  O_8
REMARK    4  A    between atoms: O_8  and  C_9
REMARK    5  A    between atoms: C_18  and  S_19
REMARK    6  A    between atoms: S_19  and  N_22
REMARK                            x       y       z     vdW  Elec       q    Type
REMARK                         _______ _______ _______ _____ _____    ______ ____
ROOT
ATOM      1  O   UNL     1       1.937   5.351  17.850  0.00  0.00    +0.000 OA
ATOM      2  C   UNL     1       2.638   6.271  18.267  0.00  0.00    +0.000 C 
ATOM      3  N   UNL     1       3.955   6.478  17.886  0.00  0.00    +0.000 N 
ATOM      4  H   UNL     1       4.496   7.119  18.453  0.00  0.00    +0.000 HD
ENDROOT
BRANCH   3   5
ATOM      5  C   UNL     1       4.632   5.709  16.907  0.00  0.00    +0.000 A 
ATOM      6  C   UNL     1       5.154   6.267  15.737  0.00  0.00    +0.000 A 
ATOM      7  C   UNL     1       5.774   5.472  14.771  0.00  0.00    +0.000 A 
ATOM      8  C   UNL     1       5.913   4.102  14.967  0.00  0.00    +0.000 A 
ATOM      9  C   UNL     1       5.390   3.530  16.126  0.00  0.00    +0.000 A 
ATOM     10  C   UNL     1       4.780   4.334  17.106  0.00  0.00    +0.000 A 
BRANCH   8  11
ATOM     11  O   UNL     1       6.499   3.439  13.936  0.00  0.00    +0.000 OA
BRANCH  11  12
ATOM     12  C   UNL     1       5.897   3.483  12.652  0.00  0.00    +0.000 C 
ATOM     13  F   UNL     1       4.609   3.887  12.652  0.00  0.00    +0.000 F 
ATOM     14  F   UNL     1       6.611   4.312  11.860  0.00  0.00    +0.000 F 
ATOM     15  F   UNL     1       5.942   2.244  12.112  0.00  0.00    +0.000 F 
ENDBRANCH  11  12
ENDBRANCH   8  11
ENDBRANCH   3   5
BRANCH   2  16
ATOM     16  C   UNL     1       2.102   7.180  19.260  0.00  0.00    +0.000 A 
ATOM     17  C   UNL     1       1.711   6.880  20.547  0.00  0.00    +0.000 A 
ATOM     18  C   UNL     1       1.195   8.062  21.100  0.00  0.00    +0.000 A 
ATOM     19  C   UNL     1       1.286   9.056  20.135  0.00  0.00    +0.000 A 
ATOM     20  O   UNL     1       1.873   8.504  19.001  0.00  0.00    +0.000 OA
BRANCH  19  21
ATOM     21  S   UNL     1       0.812  10.783  20.244  0.00  0.00    +0.000 S 
ATOM     22  O   UNL     1       1.146  11.171  21.601  0.00  0.00    +0.000 OA
ATOM     23  O   UNL     1       1.459  11.405  19.112  0.00  0.00    +0.000 OA
BRANCH  21  24
ATOM     24  N   UNL     1      -0.878  10.925  20.077  0.00  0.00    +0.000 NA
ATOM     25  C   UNL     1      -1.544  10.045  19.073  0.00  0.00    +0.000 C 
ATOM     26  C   UNL     1      -1.322  10.549  17.643  0.00  0.00    +0.000 C 
ATOM     27  O   UNL     1      -1.755  11.909  17.490  0.00  0.00    +0.000 OA
ATOM     28  C   UNL     1      -1.112  12.789  18.426  0.00  0.00    +0.000 C 
ATOM     29  C   UNL     1      -1.351  12.335  19.872  0.00  0.00    +0.000 C 
ENDBRANCH  21  24
ENDBRANCH  19  21
ENDBRANCH   2  16
TORSDOF 6
ENDMDL
MODEL 4
REMARK VINA RESULT:      -7.6      6.440     10.849
REMARK  Name = 
REMARK  6 active torsions:
REMARK  status: ('A' for Active; 'I' for Inactive)
REMARK    1  A    between atoms: C_2  and  C_15
REMARK    2  A    between atoms: N_3  and  C_4
REMARK    3  A    between atoms: C_7  and  O_8
REMARK    4  A    between atoms: O_8  and  C_9
REMARK    5  A    between atoms: C_18  and  S_19
REMARK    6  A    between atoms: S_19  and  N_22
REMARK                            x       y       z     vdW  Elec       q    Type
REMARK                         _______ _______ _______ _____ _____    ______ ____
ROOT
ATOM      1  O   UNL     1       1.831   5.471  18.099  0.00  0.00    +0.000 OA
ATOM      2  C   UNL     1       2.527   6.423  18.445  0.00  0.00    +0.000 C 
ATOM      3  N   UNL     1       3.815   6.651  17.984  0.00  0.00    +0.000 N 
ATOM      4  H   UNL     1       4.368   7.327  18.497  0.00  0.00    +0.000 HD
ENDROOT
BRANCH   3   5
ATOM      5  C   UNL     1       4.460   5.864  16.998  0.00  0.00    +0.000 A 
ATOM      6  C   UNL     1       4.525   4.469  17.069  0.00  0.00    +0.000 A 
ATOM      7  C   UNL     1       5.211   3.728  16.105  0.00  0.00    +0.000 A 
ATOM      8  C   UNL     1       5.824   4.364  15.029  0.00  0.00    +0.000 A 
ATOM      9  C   UNL     1       5.774   5.755  14.950  0.00  0.00    +0.000 A 
ATOM     10  C   UNL     1       5.070   6.500  15.913  0.00  0.00    +0.000 A 
BRANCH   8  11
ATOM     11  O   UNL     1       6.489   3.533  14.185  0.00  0.00    +0.000 OA
BRANCH  11  12
ATOM     12  C   UNL     1       6.134   3.509  12.811  0.00  0.00    +0.000 C 
ATOM     13  F   UNL     1       4.849   3.835  12.561  0.00  0.00    +0.000 F 
ATOM     14  F   UNL     1       6.935   4.362  12.136  0.00  0.00    +0.000 F 
ATOM     15  F   UNL     1       6.347   2.263  12.332  0.00  0.00    +0.000 F 
ENDBRANCH  11  12
ENDBRANCH   8  11
ENDBRANCH   3   5
BRANCH   2  16
ATOM     16  C   UNL     1       2.021   7.355  19.432  0.00  0.00    +0.000 A 
ATOM     17  C   UNL     1       1.746   7.102  20.759  0.00  0.00    +0.000 A 
ATOM     18  C   UNL     1       1.210   8.283  21.295  0.00  0.00    +0.000 A 
ATOM     19  C   UNL     1       1.174   9.230  20.280  0.00  0.00    +0.000 A 
ATOM     20  O   UNL     1       1.701   8.651  19.130  0.00  0.00    +0.000 OA
BRANCH  19  21
ATOM     21  S   UNL     1       0.617  10.935  20.343  0.00  0.00    +0.000 S 
ATOM     22  O   UNL     1      -0.803  10.847  20.628  0.00  0.00    +0.000 OA
ATOM     23  O   UNL     1       1.523  11.574  21.269  0.00  0.00    +0.000 OA
BRANCH  21  24
ATOM     24  N   UNL     1       0.783  11.649  18.805  0.00  0.00    +0.000 NA
ATOM     25  C   UNL     1       2.086  12.303  18.489  0.00  0.00    +0.000 C 
ATOM     26  C   UNL     1       2.218  13.666  19.179  0.00  0.00    +0.000 C 
ATOM     27  O   UNL     1       1.123  14.532  18.846  0.00  0.00    +0.000 OA
ATOM     28  C   UNL     1      -0.148  13.943  19.162  0.00  0.00    +0.000 C 
ATOM     29  C   UNL     1      -0.328  12.594  18.452  0.00  0.00    +0.000 C 
ENDBRANCH  21  24
ENDBRANCH  19  21
ENDBRANCH   2  16
TORSDOF 6
ENDMDL
MODEL 5
REMARK VINA RESULT:      -7.6      5.932     10.623
REMARK  Name = 
REMARK  6 active torsions:
REMARK  status: ('A' for Active; 'I' for Inactive)
REMARK    1  A    between atoms: C_2  and  C_15
REMARK    2  A    between atoms: N_3  and  C_4
REMARK    3  A    between atoms: C_7  and  O_8
REMARK    4  A    between atoms: O_8  and  C_9
REMARK    5  A    between atoms: C_18  and  S_19
REMARK    6  A    between atoms: S_19  and  N_22
REMARK                            x       y       z     vdW  Elec       q    Type
REMARK                         _______ _______ _______ _____ _____    ______ ____
ROOT
ATOM      1  O   UNL     1       2.144   7.998  17.794  0.00  0.00    +0.000 OA
ATOM      2  C   UNL     1       2.291   7.606  18.950  0.00  0.00    +0.000 C 
ATOM      3  N   UNL     1       3.040   6.494  19.302  0.00  0.00    +0.000 N 
ATOM      4  H   UNL     1       2.910   6.138  20.242  0.00  0.00    +0.000 HD
ENDROOT
BRANCH   3   5
ATOM      5  C   UNL     1       3.797   5.719  18.389  0.00  0.00    +0.000 A 
ATOM      6  C   UNL     1       5.100   6.058  18.011  0.00  0.00    +0.000 A 
ATOM      7  C   UNL     1       5.800   5.299  17.072  0.00  0.00    +0.000 A 
ATOM      8  C   UNL     1       5.223   4.165  16.508  0.00  0.00    +0.000 A 
ATOM      9  C   UNL     1       3.922   3.820  16.870  0.00  0.00    +0.000 A 
ATOM     10  C   UNL     1       3.223   4.576  17.828  0.00  0.00    +0.000 A 
BRANCH   8  11
ATOM     11  O   UNL     1       5.994   3.539  15.581  0.00  0.00    +0.000 OA
BRANCH  11  12
ATOM     12  C   UNL     1       6.139   4.119  14.294  0.00  0.00    +0.000 C 
ATOM     13  F   UNL     1       5.118   4.919  13.924  0.00  0.00    +0.000 F 
ATOM     14  F   UNL     1       7.284   4.836  14.261  0.00  0.00    +0.000 F 
ATOM     15  F   UNL     1       6.238   3.126  13.382  0.00  0.00    +0.000 F 
ENDBRANCH  11  12
ENDBRANCH   8  11
ENDBRANCH   3   5
BRANCH   2  16
ATOM     16  C   UNL     1       1.609   8.293  20.027  0.00  0.00    +0.000 A 
ATOM     17  C   UNL     1       1.084   7.739  21.175  0.00  0.00    +0.000 A 
ATOM     18  C   UNL     1       0.462   8.781  21.881  0.00  0.00    +0.000 A 
ATOM     19  C   UNL     1       0.624   9.947  21.145  0.00  0.00    +0.000 A 
ATOM     20  O   UNL     1       1.359   9.639  20.004  0.00  0.00    +0.000 OA
BRANCH  19  21
ATOM     21  S   UNL     1       0.074  11.611  21.528  0.00  0.00    +0.000 S 
ATOM     22  O   UNL     1      -0.438  11.526  22.882  0.00  0.00    +0.000 OA
ATOM     23  O   UNL     1       1.210  12.446  21.213  0.00  0.00    +0.000 OA
BRANCH  21  24
ATOM     24  N   UNL     1      -1.232  12.029  20.517  0.00  0.00    +0.000 NA
ATOM     25  C   UNL     1      -0.917  12.757  19.253  0.00  0.00    +0.000 C 
ATOM     26  C   UNL     1      -0.596  14.232  19.514  0.00  0.00    +0.000 C 
ATOM     27  O   UNL     1      -1.661  14.886  20.220  0.00  0.00    +0.000 OA
ATOM     28  C   UNL     1      -1.974  14.225  21.457  0.00  0.00    +0.000 C 
ATOM     29  C   UNL     1      -2.340  12.753  21.225  0.00  0.00    +0.000 C 
ENDBRANCH  21  24
ENDBRANCH  19  21
ENDBRANCH   2  16
TORSDOF 6
ENDMDL
MODEL 6
REMARK VINA RESULT:      -7.6      6.408     10.877
REMARK  Name = 
REMARK  6 active torsions:
REMARK  status: ('A' for Active; 'I' for Inactive)
REMARK    1  A    between atoms: C_2  and  C_15
REMARK    2  A    between atoms: N_3  and  C_4
REMARK    3  A    between atoms: C_7  and  O_8
REMARK    4  A    between atoms: O_8  and  C_9
REMARK    5  A    between atoms: C_18  and  S_19
REMARK    6  A    between atoms: S_19  and  N_22
REMARK                            x       y       z     vdW  Elec       q    Type
REMARK                         _______ _______ _______ _____ _____    ______ ____
ROOT
ATOM      1  O   UNL     1       1.863   5.347  17.785  0.00  0.00    +0.000 OA
ATOM      2  C   UNL     1       2.598   6.222  18.240  0.00  0.00    +0.000 C 
ATOM      3  N   UNL     1       3.917   6.405  17.854  0.00  0.00    +0.000 N 
ATOM      4  H   UNL     1       4.484   7.001  18.446  0.00  0.00    +0.000 HD
ENDROOT
BRANCH   3   5
ATOM      5  C   UNL     1       4.560   5.665  16.832  0.00  0.00    +0.000 A 
ATOM      6  C   UNL     1       4.684   4.273  16.873  0.00  0.00    +0.000 A 
ATOM      7  C   UNL     1       5.366   3.579  15.872  0.00  0.00    +0.000 A 
ATOM      8  C   UNL     1       5.916   4.259  14.790  0.00  0.00    +0.000 A 
ATOM      9  C   UNL     1       5.807   5.648  14.740  0.00  0.00    +0.000 A 
ATOM     10  C   UNL     1       5.106   6.345  15.741  0.00  0.00    +0.000 A 
BRANCH   8  11
ATOM     11  O   UNL     1       6.586   3.472  13.908  0.00  0.00    +0.000 OA
BRANCH  11  12
ATOM     12  C   UNL     1       6.169   3.438  12.552  0.00  0.00    +0.000 C 
ATOM     13  F   UNL     1       6.347   2.247  11.943  0.00  0.00    +0.000 F 
ATOM     14  F   UNL     1       4.860   3.767  12.486  0.00  0.00    +0.000 F 
ATOM     15  F   UNL     1       6.871   4.365  11.862  0.00  0.00    +0.000 F 
ENDBRANCH  11  12
ENDBRANCH   8  11
ENDBRANCH   3   5
BRANCH   2  16
ATOM     16  C   UNL     1       2.102   7.098  19.282  0.00  0.00    +0.000 A 
ATOM     17  C   UNL     1       1.772   6.758  20.576  0.00  0.00    +0.000 A 
ATOM     18  C   UNL     1       1.273   7.918  21.186  0.00  0.00    +0.000 A 
ATOM     19  C   UNL     1       1.312   8.941  20.248  0.00  0.00    +0.000 A 
ATOM     20  O   UNL     1       1.851   8.427  19.072  0.00  0.00    +0.000 OA
BRANCH  19  21
ATOM     21  S   UNL     1       0.831  10.660  20.428  0.00  0.00    +0.000 S 
ATOM     22  O   UNL     1       1.252  11.020  21.769  0.00  0.00    +0.000 OA
ATOM     23  O   UNL     1       1.395  11.314  19.270  0.00  0.00    +0.000 OA
BRANCH  21  24
ATOM     24  N   UNL     1      -0.867  10.788  20.378  0.00  0.00    +0.000 NA
ATOM     25  C   UNL     1      -1.491  11.131  19.067  0.00  0.00    +0.000 C 
ATOM     26  C   UNL     1      -1.331  12.619  18.736  0.00  0.00    +0.000 C 
ATOM     27  O   UNL     1      -1.858  13.450  19.780  0.00  0.00    +0.000 OA
ATOM     28  C   UNL     1      -1.259  13.164  21.054  0.00  0.00    +0.000 C 
ATOM     29  C   UNL     1      -1.439  11.688  21.434  0.00  0.00    +0.000 C 
ENDBRANCH  21  24
ENDBRANCH  19  21
ENDBRANCH   2  16
TORSDOF 6
ENDMDL
MODEL 7
REMARK VINA RESULT:      -7.5      5.934     10.572
REMARK  Name = 
REMARK  6 active torsions:
REMARK  status: ('A' for Active; 'I' for Inactive)
REMARK    1  A    between atoms: C_2  and  C_15
REMARK    2  A    between atoms: N_3  and  C_4
REMARK    3  A    between atoms: C_7  and  O_8
REMARK    4  A    between atoms: O_8  and  C_9
REMARK    5  A    between atoms: C_18  and  S_19
REMARK    6  A    between atoms: S_19  and  N_22
REMARK                            x       y       z     vdW  Elec       q    Type
REMARK                         _______ _______ _______ _____ _____    ______ ____
ROOT
ATOM      1  O   UNL     1       2.227   8.140  17.845  0.00  0.00    +0.000 OA
ATOM      2  C   UNL     1       2.264   7.695  18.991  0.00  0.00    +0.000 C 
ATOM      3  N   UNL     1       2.909   6.521  19.348  0.00  0.00    +0.000 N 
ATOM      4  H   UNL     1       2.688   6.141  20.260  0.00  0.00    +0.000 HD
ENDROOT
BRANCH   3   5
ATOM      5  C   UNL     1       3.676   5.729  18.457  0.00  0.00    +0.000 A 
ATOM      6  C   UNL     1       5.026   5.982  18.194  0.00  0.00    +0.000 A 
ATOM      7  C   UNL     1       5.738   5.211  17.274  0.00  0.00    +0.000 A 
ATOM      8  C   UNL     1       5.125   4.150  16.615  0.00  0.00    +0.000 A 
ATOM      9  C   UNL     1       3.778   3.892  16.862  0.00  0.00    +0.000 A 
ATOM     10  C   UNL     1       3.064   4.659  17.801  0.00  0.00    +0.000 A 
BRANCH   8  11
ATOM     11  O   UNL     1       5.917   3.506  15.719  0.00  0.00    +0.000 OA
BRANCH  11  12
ATOM     12  C   UNL     1       6.249   4.149  14.498  0.00  0.00    +0.000 C 
ATOM     13  F   UNL     1       7.444   4.775  14.504  0.00  0.00    +0.000 F 
ATOM     14  F   UNL     1       6.245   3.235  13.504  0.00  0.00    +0.000 F 
ATOM     15  F   UNL     1       5.300   5.073  14.225  0.00  0.00    +0.000 F 
ENDBRANCH  11  12
ENDBRANCH   8  11
ENDBRANCH   3   5
BRANCH   2  16
ATOM     16  C   UNL     1       1.555   8.389  20.047  0.00  0.00    +0.000 A 
ATOM     17  C   UNL     1       1.134   7.872  21.253  0.00  0.00    +0.000 A 
ATOM     18  C   UNL     1       0.433   8.894  21.911  0.00  0.00    +0.000 A 
ATOM     19  C   UNL     1       0.445  10.013  21.088  0.00  0.00    +0.000 A 
ATOM     20  O   UNL     1       1.165   9.696  19.940  0.00  0.00    +0.000 OA
BRANCH  19  21
ATOM     21  S   UNL     1      -0.261  11.637  21.377  0.00  0.00    +0.000 S 
ATOM     22  O   UNL     1      -1.409  11.700  20.492  0.00  0.00    +0.000 OA
ATOM     23  O   UNL     1      -0.423  11.708  22.810  0.00  0.00    +0.000 OA
BRANCH  21  24
ATOM     24  N   UNL     1       0.836  12.837  20.870  0.00  0.00    +0.000 NA
ATOM     25  C   UNL     1       0.796  14.148  21.581  0.00  0.00    +0.000 C 
ATOM     26  C   UNL     1      -0.399  14.998  21.134  0.00  0.00    +0.000 C 
ATOM     27  O   UNL     1      -0.405  15.193  19.712  0.00  0.00    +0.000 OA
ATOM     28  C   UNL     1      -0.392  13.948  18.996  0.00  0.00    +0.000 C 
ATOM     29  C   UNL     1       0.818  13.090  19.391  0.00  0.00    +0.000 C 
ENDBRANCH  21  24
ENDBRANCH  19  21
ENDBRANCH   2  16
TORSDOF 6
ENDMDL
MODEL 8
REMARK VINA RESULT:      -7.5      3.530      4.432
REMARK  Name = 
REMARK  6 active torsions:
REMARK  status: ('A' for Active; 'I' for Inactive)
REMARK    1  A    between atoms: C_2  and  C_15
REMARK    2  A    between atoms: N_3  and  C_4
REMARK    3  A    between atoms: C_7  and  O_8
REMARK    4  A    between atoms: O_8  and  C_9
REMARK    5  A    between atoms: C_18  and  S_19
REMARK    6  A    between atoms: S_19  and  N_22
REMARK                            x       y       z     vdW  Elec       q    Type
REMARK                         _______ _______ _______ _____ _____    ______ ____
ROOT
ATOM      1  O   UNL     1       1.007   8.803  21.158  0.00  0.00    +0.000 OA
ATOM      2  C   UNL     1       1.448   8.403  20.082  0.00  0.00    +0.000 C 
ATOM      3  N   UNL     1       1.414   9.139  18.907  0.00  0.00    +0.000 N 
ATOM      4  H   UNL     1       1.598   8.633  18.049  0.00  0.00    +0.000 HD
ENDROOT
BRANCH   3   5
ATOM      5  C   UNL     1       0.945  10.473  18.815  0.00  0.00    +0.000 A 
ATOM      6  C   UNL     1      -0.414  10.800  18.869  0.00  0.00    +0.000 A 
ATOM      7  C   UNL     1      -0.845  12.119  18.726  0.00  0.00    +0.000 A 
ATOM      8  C   UNL     1       0.076  13.149  18.554  0.00  0.00    +0.000 A 
ATOM      9  C   UNL     1       1.433  12.836  18.490  0.00  0.00    +0.000 A 
ATOM     10  C   UNL     1       1.868  11.508  18.650  0.00  0.00    +0.000 A 
BRANCH   8  11
ATOM     11  O   UNL     1      -0.476  14.379  18.389  0.00  0.00    +0.000 OA
BRANCH  11  12
ATOM     12  C   UNL     1      -0.178  15.405  19.323  0.00  0.00    +0.000 C 
ATOM     13  F   UNL     1       1.008  16.015  19.123  0.00  0.00    +0.000 F 
ATOM     14  F   UNL     1      -1.156  16.336  19.281  0.00  0.00    +0.000 F 
ATOM     15  F   UNL     1      -0.163  14.867  20.564  0.00  0.00    +0.000 F 
ENDBRANCH  11  12
ENDBRANCH   8  11
ENDBRANCH   3   5
BRANCH   2  16
ATOM     16  C   UNL     1       1.995   7.065  19.990  0.00  0.00    +0.000 A 
ATOM     17  C   UNL     1       1.691   5.979  20.782  0.00  0.00    +0.000 A 
ATOM     18  C   UNL     1       2.520   4.926  20.364  0.00  0.00    +0.000 A 
ATOM     19  C   UNL     1       3.310   5.397  19.324  0.00  0.00    +0.000 A 
ATOM     20  O   UNL     1       2.961   6.722  19.082  0.00  0.00    +0.000 OA
BRANCH  19  21
ATOM     21  S   UNL     1       4.549   4.526  18.362  0.00  0.00    +0.000 S 
ATOM     22  O   UNL     1       5.366   3.843  19.348  0.00  0.00    +0.000 OA
ATOM     23  O   UNL     1       3.789   3.785  17.384  0.00  0.00    +0.000 OA
BRANCH  21  24
ATOM     24  N   UNL     1       5.551   5.651  17.565  0.00  0.00    +0.000 NA
ATOM     25  C   UNL     1       5.643   5.557  16.079  0.00  0.00    +0.000 C 
ATOM     26  C   UNL     1       6.537   4.392  15.640  0.00  0.00    +0.000 C 
ATOM     27  O   UNL     1       7.845   4.484  16.223  0.00  0.00    +0.000 OA
ATOM     28  C   UNL     1       7.795   4.550  17.657  0.00  0.00    +0.000 C 
ATOM     29  C   UNL     1       6.939   5.734  18.130  0.00  0.00    +0.000 C 
ENDBRANCH  21  24
ENDBRANCH  19  21
ENDBRANCH   2  16
TORSDOF 6
ENDMDL
MODEL 9
REMARK VINA RESULT:      -7.5      2.264      3.233
REMARK  Name = 
REMARK  6 active torsions:
REMARK  status: ('A' for Active; 'I' for Inactive)
REMARK    1  A    between atoms: C_2  and  C_15
REMARK    2  A    between atoms: N_3  and  C_4
REMARK    3  A    between atoms: C_7  and  O_8
REMARK    4  A    between atoms: O_8  and  C_9
REMARK    5  A    between atoms: C_18  and  S_19
REMARK    6  A    between atoms: S_19  and  N_22
REMARK                            x       y       z     vdW  Elec       q    Type
REMARK                         _______ _______ _______ _____ _____    ______ ____
ROOT
ATOM      1  O   UNL     1       1.781   8.817  19.316  0.00  0.00    +0.000 OA
ATOM      2  C   UNL     1       1.619   7.936  20.158  0.00  0.00    +0.000 C 
ATOM      3  N   UNL     1       0.944   8.121  21.355  0.00  0.00    +0.000 N 
ATOM      4  H   UNL     1       1.064   7.401  22.059  0.00  0.00    +0.000 HD
ENDROOT
BRANCH   3   5
ATOM      5  C   UNL     1       0.288   9.321  21.724  0.00  0.00    +0.000 A 
ATOM      6  C   UNL     1      -0.337   9.488  22.963  0.00  0.00    +0.000 A 
ATOM      7  C   UNL     1      -1.017  10.667  23.276  0.00  0.00    +0.000 A 
ATOM      8  C   UNL     1      -1.063  11.719  22.365  0.00  0.00    +0.000 A 
ATOM      9  C   UNL     1      -0.451  11.562  21.123  0.00  0.00    +0.000 A 
ATOM     10  C   UNL     1       0.247  10.380  20.815  0.00  0.00    +0.000 A 
BRANCH   8  11
ATOM     11  O   UNL     1      -1.787  12.792  22.777  0.00  0.00    +0.000 OA
BRANCH  11  12
ATOM     12  C   UNL     1      -3.203  12.749  22.686  0.00  0.00    +0.000 C 
ATOM     13  F   UNL     1      -3.673  12.218  21.538  0.00  0.00    +0.000 F 
ATOM     14  F   UNL     1      -3.689  12.034  23.724  0.00  0.00    +0.000 F 
ATOM     15  F   UNL     1      -3.680  14.011  22.785  0.00  0.00    +0.000 F 
ENDBRANCH  11  12
ENDBRANCH   8  11
ENDBRANCH   3   5
BRANCH   2  16
ATOM     16  C   UNL     1       2.200   6.627  19.939  0.00  0.00    +0.000 A 
ATOM     17  C   UNL     1       1.985   5.481  20.675  0.00  0.00    +0.000 A 
ATOM     18  C   UNL     1       2.816   4.489  20.133  0.00  0.00    +0.000 A 
ATOM     19  C   UNL     1       3.517   5.054  19.076  0.00  0.00    +0.000 A 
ATOM     20  O   UNL     1       3.111   6.379  18.948  0.00  0.00    +0.000 OA
BRANCH  19  21
ATOM     21  S   UNL     1       4.713   4.293  17.977  0.00  0.00    +0.000 S 
ATOM     22  O   UNL     1       5.967   4.345  18.705  0.00  0.00    +0.000 OA
ATOM     23  O   UNL     1       4.116   3.029  17.615  0.00  0.00    +0.000 OA
BRANCH  21  24
ATOM     24  N   UNL     1       4.899   5.251  16.580  0.00  0.00    +0.000 NA
ATOM     25  C   UNL     1       5.461   4.593  15.365  0.00  0.00    +0.000 C 
ATOM     26  C   UNL     1       6.977   4.396  15.479  0.00  0.00    +0.000 C 
ATOM     27  O   UNL     1       7.651   5.636  15.739  0.00  0.00    +0.000 OA
ATOM     28  C   UNL     1       7.150   6.286  16.919  0.00  0.00    +0.000 C 
ATOM     29  C   UNL     1       5.639   6.535  16.819  0.00  0.00    +0.000 C 
ENDBRANCH  21  24
ENDBRANCH  19  21
ENDBRANCH   2  16
TORSDOF 6
ENDMDL
