MODEL 1
REMARK VINA RESULT:      -8.9      0.000      0.000
REMARK  Name = 
REMARK  7 active torsions:
REMARK  status: ('A' for Active; 'I' for Inactive)
REMARK    1  A    between atoms: C_1  and  C_2
REMARK    2  A    between atoms: C_2  and  S_3
REMARK    3  A    between atoms: S_3  and  N_6
REMARK    4  A    between atoms: N_6  and  C_7
REMARK    5  A    between atoms: C_13  and  O_14
REMARK    6  A    between atoms: O_14  and  C_15
REMARK    7  A    between atoms: C_15  and  C_16
REMARK                            x       y       z     vdW  Elec       q    Type
REMARK                         _______ _______ _______ _____ _____    ______ ____
ROOT
ATOM      1  C   UNL     1       4.728   5.157  17.770  0.00  0.00    +0.000 A 
ATOM      2  C   UNL     1       4.374   4.625  19.006  0.00  0.00    +0.000 A 
ATOM      3  C   UNL     1       3.455   5.296  19.821  0.00  0.00    +0.000 A 
ATOM      4  C   UNL     1       2.882   6.503  19.404  0.00  0.00    +0.000 A 
ATOM      5  C   UNL     1       1.997   7.171  20.248  0.00  0.00    +0.000 A 
ATOM      6  C   UNL     1       1.443   8.380  19.856  0.00  0.00    +0.000 A 
ATOM      7  C   UNL     1       1.723   8.925  18.605  0.00  0.00    +0.000 A 
ATOM      8  C   UNL     1       2.625   8.275  17.750  0.00  0.00    +0.000 A 
ATOM      9  C   UNL     1       3.219   7.049  18.140  0.00  0.00    +0.000 A 
ATOM     10  C   UNL     1       4.140   6.349  17.329  0.00  0.00    +0.000 A 
ENDROOT
BRANCH   1  11
ATOM     11  N   UNL     1       5.685   4.471  16.952  0.00  0.00    +0.000 N 
ATOM     12  H   UNL     1       5.744   3.460  17.132  0.00  0.00    +0.000 HD
BRANCH  11  13
ATOM     13  S   UNL     1       7.254   5.110  16.860  0.00  0.00    +0.000 S 
ATOM     14  O   UNL     1       7.323   5.772  15.583  0.00  0.00    +0.000 OA
ATOM     15  O   UNL     1       8.209   4.089  17.237  0.00  0.00    +0.000 OA
BRANCH  13  17
ATOM     16  C   UNL     1       7.700   7.701  17.604  0.00  0.00    +0.000 C 
ATOM     17  C   UNL     1       7.211   6.367  18.138  0.00  0.00    +0.000 C 
ENDBRANCH  13  17
ENDBRANCH  11  13
ENDBRANCH   1  11
BRANCH   7  18
ATOM     18  O   UNL     1       1.139  10.103  18.209  0.00  0.00    +0.000 OA
BRANCH  18  19
ATOM     19  C   UNL     1       0.268  10.690  19.202  0.00  0.00    +0.000 C 
BRANCH  19  20
ATOM     20  C   UNL     1      -1.129  10.849  18.666  0.00  0.00    +0.000 A 
ATOM     21  C   UNL     1      -1.534  10.135  17.534  0.00  0.00    +0.000 A 
ATOM     22  C   UNL     1      -2.843  10.239  17.063  0.00  0.00    +0.000 A 
ATOM     23  C   UNL     1      -3.776  11.046  17.730  0.00  0.00    +0.000 A 
ATOM     24  C   UNL     1      -5.103  11.150  17.284  0.00  0.00    +0.000 A 
ATOM     25  C   UNL     1      -6.021  11.948  17.969  0.00  0.00    +0.000 A 
ATOM     26  C   UNL     1      -5.625  12.658  19.097  0.00  0.00    +0.000 A 
ATOM     27  C   UNL     1      -4.309  12.569  19.550  0.00  0.00    +0.000 A 
ATOM     28  C   UNL     1      -3.378  11.763  18.880  0.00  0.00    +0.000 A 
ATOM     29  C   UNL     1      -2.058  11.651  19.338  0.00  0.00    +0.000 A 
ENDBRANCH  19  20
ENDBRANCH  18  19
ENDBRANCH   7  18
TORSDOF 6
ENDMDL
MODEL 2
REMARK VINA RESULT:      -8.9      1.596      2.461
REMARK  Name = 
REMARK  7 active torsions:
REMARK  status: ('A' for Active; 'I' for Inactive)
REMARK    1  A    between atoms: C_1  and  C_2
REMARK    2  A    between atoms: C_2  and  S_3
REMARK    3  A    between atoms: S_3  and  N_6
REMARK    4  A    between atoms: N_6  and  C_7
REMARK    5  A    between atoms: C_13  and  O_14
REMARK    6  A    between atoms: O_14  and  C_15
REMARK    7  A    between atoms: C_15  and  C_16
REMARK                            x       y       z     vdW  Elec       q    Type
REMARK                         _______ _______ _______ _____ _____    ______ ____
ROOT
ATOM      1  C   UNL     1       4.132   4.977  17.293  0.00  0.00    +0.000 A 
ATOM      2  C   UNL     1       3.827   3.893  18.112  0.00  0.00    +0.000 A 
ATOM      3  C   UNL     1       3.041   4.078  19.255  0.00  0.00    +0.000 A 
ATOM      4  C   UNL     1       2.555   5.348  19.588  0.00  0.00    +0.000 A 
ATOM      5  C   UNL     1       1.805   5.514  20.750  0.00  0.00    +0.000 A 
ATOM      6  C   UNL     1       1.339   6.771  21.103  0.00  0.00    +0.000 A 
ATOM      7  C   UNL     1       1.571   7.876  20.287  0.00  0.00    +0.000 A 
ATOM      8  C   UNL     1       2.338   7.731  19.121  0.00  0.00    +0.000 A 
ATOM      9  C   UNL     1       2.842   6.458  18.755  0.00  0.00    +0.000 A 
ATOM     10  C   UNL     1       3.627   6.247  17.599  0.00  0.00    +0.000 A 
ENDROOT
BRANCH   1  11
ATOM     11  N   UNL     1       4.953   4.779  16.135  0.00  0.00    +0.000 N 
ATOM     12  H   UNL     1       4.920   3.824  15.754  0.00  0.00    +0.000 HD
BRANCH  11  13
ATOM     13  S   UNL     1       6.569   5.289  16.211  0.00  0.00    +0.000 S 
ATOM     14  O   UNL     1       7.187   4.460  17.214  0.00  0.00    +0.000 OA
ATOM     15  O   UNL     1       6.611   6.735  16.292  0.00  0.00    +0.000 OA
BRANCH  13  17
ATOM     16  C   UNL     1       6.146   3.975  13.853  0.00  0.00    +0.000 C 
ATOM     17  C   UNL     1       7.189   4.780  14.607  0.00  0.00    +0.000 C 
ENDBRANCH  13  17
ENDBRANCH  11  13
ENDBRANCH   1  11
BRANCH   7  18
ATOM     18  O   UNL     1       1.072   9.111  20.623  0.00  0.00    +0.000 OA
BRANCH  18  19
ATOM     19  C   UNL     1       1.135  10.082  19.555  0.00  0.00    +0.000 C 
BRANCH  19  20
ATOM     20  C   UNL     1      -0.244  10.466  19.094  0.00  0.00    +0.000 A 
ATOM     21  C   UNL     1      -1.026  11.337  19.861  0.00  0.00    +0.000 A 
ATOM     22  C   UNL     1      -2.285  11.737  19.414  0.00  0.00    +0.000 A 
ATOM     23  C   UNL     1      -2.777  11.286  18.180  0.00  0.00    +0.000 A 
ATOM     24  C   UNL     1      -4.033  11.692  17.702  0.00  0.00    +0.000 A 
ATOM     25  C   UNL     1      -4.501  11.244  16.466  0.00  0.00    +0.000 A 
ATOM     26  C   UNL     1      -3.727  10.380  15.698  0.00  0.00    +0.000 A 
ATOM     27  C   UNL     1      -2.479   9.964  16.161  0.00  0.00    +0.000 A 
ATOM     28  C   UNL     1      -1.991  10.414  17.395  0.00  0.00    +0.000 A 
ATOM     29  C   UNL     1      -0.729  10.019  17.861  0.00  0.00    +0.000 A 
ENDBRANCH  19  20
ENDBRANCH  18  19
ENDBRANCH   7  18
TORSDOF 6
ENDMDL
MODEL 3
REMARK VINA RESULT:      -8.9      1.252      2.113
REMARK  Name = 
REMARK  7 active torsions:
REMARK  status: ('A' for Active; 'I' for Inactive)
REMARK    1  A    between atoms: C_1  and  C_2
REMARK    2  A    between atoms: C_2  and  S_3
REMARK    3  A    between atoms: S_3  and  N_6
REMARK    4  A    between atoms: N_6  and  C_7
REMARK    5  A    between atoms: C_13  and  O_14
REMARK    6  A    between atoms: O_14  and  C_15
REMARK    7  A    between atoms: C_15  and  C_16
REMARK                            x       y       z     vdW  Elec       q    Type
REMARK                         _______ _______ _______ _____ _____    ______ ____
ROOT
ATOM      1  C   UNL     1       4.705   4.330  18.223  0.00  0.00    +0.000 A 
ATOM      2  C   UNL     1       4.090   3.329  18.969  0.00  0.00    +0.000 A 
ATOM      3  C   UNL     1       3.036   3.646  19.834  0.00  0.00    +0.000 A 
ATOM      4  C   UNL     1       2.591   4.967  19.959  0.00  0.00    +0.000 A 
ATOM      5  C   UNL     1       1.566   5.265  20.854  0.00  0.00    +0.000 A 
ATOM      6  C   UNL     1       1.133   6.573  21.005  0.00  0.00    +0.000 A 
ATOM      7  C   UNL     1       1.680   7.602  20.240  0.00  0.00    +0.000 A 
ATOM      8  C   UNL     1       2.725   7.323  19.347  0.00  0.00    +0.000 A 
ATOM      9  C   UNL     1       3.196   5.996  19.194  0.00  0.00    +0.000 A 
ATOM     10  C   UNL     1       4.250   5.651  18.318  0.00  0.00    +0.000 A 
ENDROOT
BRANCH   1  11
ATOM     11  N   UNL     1       5.796   3.996  17.355  0.00  0.00    +0.000 N 
ATOM     12  H   UNL     1       5.980   2.987  17.278  0.00  0.00    +0.000 HD
BRANCH  11  13
ATOM     13  S   UNL     1       7.267   4.811  17.577  0.00  0.00    +0.000 S 
ATOM     14  O   UNL     1       8.189   4.196  16.657  0.00  0.00    +0.000 OA
ATOM     15  O   UNL     1       7.556   4.899  18.994  0.00  0.00    +0.000 OA
BRANCH  13  17
ATOM     16  C   UNL     1       7.679   7.510  17.689  0.00  0.00    +0.000 C 
ATOM     17  C   UNL     1       6.873   6.449  16.962  0.00  0.00    +0.000 C 
ENDBRANCH  13  17
ENDBRANCH  11  13
ENDBRANCH   1  11
BRANCH   7  18
ATOM     18  O   UNL     1       1.218   8.889  20.367  0.00  0.00    +0.000 OA
BRANCH  18  19
ATOM     19  C   UNL     1       1.213   9.637  19.131  0.00  0.00    +0.000 C 
BRANCH  19  20
ATOM     20  C   UNL     1      -0.165  10.152  18.819  0.00  0.00    +0.000 A 
ATOM     21  C   UNL     1      -0.823  10.994  19.722  0.00  0.00    +0.000 A 
ATOM     22  C   UNL     1      -2.080  11.516  19.415  0.00  0.00    +0.000 A 
ATOM     23  C   UNL     1      -2.692  11.219  18.189  0.00  0.00    +0.000 A 
ATOM     24  C   UNL     1      -3.948  11.750  17.852  0.00  0.00    +0.000 A 
ATOM     25  C   UNL     1      -4.536  11.455  16.622  0.00  0.00    +0.000 A 
ATOM     26  C   UNL     1      -3.885  10.621  15.719  0.00  0.00    +0.000 A 
ATOM     27  C   UNL     1      -2.639  10.082  16.040  0.00  0.00    +0.000 A 
ATOM     28  C   UNL     1      -2.031  10.378  17.268  0.00  0.00    +0.000 A 
ATOM     29  C   UNL     1      -0.770   9.859  17.593  0.00  0.00    +0.000 A 
ENDBRANCH  19  20
ENDBRANCH  18  19
ENDBRANCH   7  18
TORSDOF 6
ENDMDL
MODEL 4
REMARK VINA RESULT:      -8.6      2.428      3.329
REMARK  Name = 
REMARK  7 active torsions:
REMARK  status: ('A' for Active; 'I' for Inactive)
REMARK    1  A    between atoms: C_1  and  C_2
REMARK    2  A    between atoms: C_2  and  S_3
REMARK    3  A    between atoms: S_3  and  N_6
REMARK    4  A    between atoms: N_6  and  C_7
REMARK    5  A    between atoms: C_13  and  O_14
REMARK    6  A    between atoms: O_14  and  C_15
REMARK    7  A    between atoms: C_15  and  C_16
REMARK                            x       y       z     vdW  Elec       q    Type
REMARK                         _______ _______ _______ _____ _____    ______ ____
ROOT
ATOM      1  C   UNL     1       4.418   4.458  16.683  0.00  0.00    +0.000 A 
ATOM      2  C   UNL     1       4.005   3.147  16.902  0.00  0.00    +0.000 A 
ATOM      3  C   UNL     1       3.098   2.860  17.929  0.00  0.00    +0.000 A 
ATOM      4  C   UNL     1       2.599   3.882  18.745  0.00  0.00    +0.000 A 
ATOM      5  C   UNL     1       1.727   3.567  19.784  0.00  0.00    +0.000 A 
ATOM      6  C   UNL     1       1.245   4.568  20.614  0.00  0.00    +0.000 A 
ATOM      7  C   UNL     1       1.585   5.902  20.400  0.00  0.00    +0.000 A 
ATOM      8  C   UNL     1       2.476   6.235  19.369  0.00  0.00    +0.000 A 
ATOM      9  C   UNL     1       2.996   5.224  18.524  0.00  0.00    +0.000 A 
ATOM     10  C   UNL     1       3.902   5.493  17.473  0.00  0.00    +0.000 A 
ENDROOT
BRANCH   1  11
ATOM     11  N   UNL     1       5.360   4.737  15.640  0.00  0.00    +0.000 N 
ATOM     12  H   UNL     1       5.585   3.928  15.047  0.00  0.00    +0.000 HD
BRANCH  11  13
ATOM     13  S   UNL     1       6.800   5.531  16.062  0.00  0.00    +0.000 S 
ATOM     14  O   UNL     1       6.399   6.840  16.507  0.00  0.00    +0.000 OA
ATOM     15  O   UNL     1       7.771   5.354  15.002  0.00  0.00    +0.000 OA
BRANCH  13  17
ATOM     16  C   UNL     1       7.658   5.511  18.656  0.00  0.00    +0.000 C 
ATOM     17  C   UNL     1       7.327   4.591  17.495  0.00  0.00    +0.000 C 
ENDBRANCH  13  17
ENDBRANCH  11  13
ENDBRANCH   1  11
BRANCH   7  18
ATOM     18  O   UNL     1       1.072   6.891  21.202  0.00  0.00    +0.000 OA
BRANCH  18  19
ATOM     19  C   UNL     1       1.763   8.156  21.092  0.00  0.00    +0.000 C 
BRANCH  19  20
ATOM     20  C   UNL     1       0.787   9.294  20.971  0.00  0.00    +0.000 A 
ATOM     21  C   UNL     1       0.415   9.771  19.710  0.00  0.00    +0.000 A 
ATOM     22  C   UNL     1      -0.529  10.791  19.590  0.00  0.00    +0.000 A 
ATOM     23  C   UNL     1      -1.130  11.340  20.732  0.00  0.00    +0.000 A 
ATOM     24  C   UNL     1      -2.096  12.354  20.633  0.00  0.00    +0.000 A 
ATOM     25  C   UNL     1      -2.694  12.879  21.779  0.00  0.00    +0.000 A 
ATOM     26  C   UNL     1      -2.330  12.406  23.036  0.00  0.00    +0.000 A 
ATOM     27  C   UNL     1      -1.369  11.402  23.151  0.00  0.00    +0.000 A 
ATOM     28  C   UNL     1      -0.767  10.858  22.008  0.00  0.00    +0.000 A 
ATOM     29  C   UNL     1       0.185   9.834  22.112  0.00  0.00    +0.000 A 
ENDBRANCH  19  20
ENDBRANCH  18  19
ENDBRANCH   7  18
TORSDOF 6
ENDMDL
MODEL 5
REMARK VINA RESULT:      -8.6      2.404      3.407
REMARK  Name = 
REMARK  7 active torsions:
REMARK  status: ('A' for Active; 'I' for Inactive)
REMARK    1  A    between atoms: C_1  and  C_2
REMARK    2  A    between atoms: C_2  and  S_3
REMARK    3  A    between atoms: S_3  and  N_6
REMARK    4  A    between atoms: N_6  and  C_7
REMARK    5  A    between atoms: C_13  and  O_14
REMARK    6  A    between atoms: O_14  and  C_15
REMARK    7  A    between atoms: C_15  and  C_16
REMARK                            x       y       z     vdW  Elec       q    Type
REMARK                         _______ _______ _______ _____ _____    ______ ____
ROOT
ATOM      1  C   UNL     1       4.628   5.384  16.808  0.00  0.00    +0.000 A 
ATOM      2  C   UNL     1       4.274   4.039  16.827  0.00  0.00    +0.000 A 
ATOM      3  C   UNL     1       3.340   3.573  17.760  0.00  0.00    +0.000 A 
ATOM      4  C   UNL     1       2.753   4.450  18.680  0.00  0.00    +0.000 A 
ATOM      5  C   UNL     1       1.853   3.957  19.622  0.00  0.00    +0.000 A 
ATOM      6  C   UNL     1       1.285   4.812  20.553  0.00  0.00    +0.000 A 
ATOM      7  C   UNL     1       1.565   6.177  20.539  0.00  0.00    +0.000 A 
ATOM      8  C   UNL     1       2.482   6.688  19.608  0.00  0.00    +0.000 A 
ATOM      9  C   UNL     1       3.090   5.827  18.661  0.00  0.00    +0.000 A 
ATOM     10  C   UNL     1       4.026   6.277  17.704  0.00  0.00    +0.000 A 
ENDROOT
BRANCH   1  11
ATOM     11  N   UNL     1       5.600   5.846  15.861  0.00  0.00    +0.000 N 
ATOM     12  H   UNL     1       5.429   5.535  14.896  0.00  0.00    +0.000 HD
BRANCH  11  13
ATOM     13  S   UNL     1       7.240   5.621  16.233  0.00  0.00    +0.000 S 
ATOM     14  O   UNL     1       7.766   6.941  16.465  0.00  0.00    +0.000 OA
ATOM     15  O   UNL     1       7.834   4.729  15.258  0.00  0.00    +0.000 OA
BRANCH  13  17
ATOM     16  C   UNL     1       7.673   5.651  18.931  0.00  0.00    +0.000 C 
ATOM     17  C   UNL     1       7.144   4.774  17.810  0.00  0.00    +0.000 C 
ENDBRANCH  13  17
ENDBRANCH  11  13
ENDBRANCH   1  11
BRANCH   7  18
ATOM     18  O   UNL     1       0.967   7.023  21.440  0.00  0.00    +0.000 OA
BRANCH  18  19
ATOM     19  C   UNL     1       1.534   8.352  21.464  0.00  0.00    +0.000 C 
BRANCH  19  20
ATOM     20  C   UNL     1       0.469   9.387  21.703  0.00  0.00    +0.000 A 
ATOM     21  C   UNL     1      -0.057   9.573  22.986  0.00  0.00    +0.000 A 
ATOM     22  C   UNL     1      -1.007  10.567  23.224  0.00  0.00    +0.000 A 
ATOM     23  C   UNL     1      -1.435  11.404  22.183  0.00  0.00    +0.000 A 
ATOM     24  C   UNL     1      -2.376  12.422  22.405  0.00  0.00    +0.000 A 
ATOM     25  C   UNL     1      -2.780  13.255  21.360  0.00  0.00    +0.000 A 
ATOM     26  C   UNL     1      -2.259  13.075  20.083  0.00  0.00    +0.000 A 
ATOM     27  C   UNL     1      -1.326  12.066  19.845  0.00  0.00    +0.000 A 
ATOM     28  C   UNL     1      -0.903  11.228  20.887  0.00  0.00    +0.000 A 
ATOM     29  C   UNL     1       0.049  10.224  20.664  0.00  0.00    +0.000 A 
ENDBRANCH  19  20
ENDBRANCH  18  19
ENDBRANCH   7  18
TORSDOF 6
ENDMDL
MODEL 6
REMARK VINA RESULT:      -8.5      4.345      9.328
REMARK  Name = 
REMARK  7 active torsions:
REMARK  status: ('A' for Active; 'I' for Inactive)
REMARK    1  A    between atoms: C_1  and  C_2
REMARK    2  A    between atoms: C_2  and  S_3
REMARK    3  A    between atoms: S_3  and  N_6
REMARK    4  A    between atoms: N_6  and  C_7
REMARK    5  A    between atoms: C_13  and  O_14
REMARK    6  A    between atoms: O_14  and  C_15
REMARK    7  A    between atoms: C_15  and  C_16
REMARK                            x       y       z     vdW  Elec       q    Type
REMARK                         _______ _______ _______ _____ _____    ______ ____
ROOT
ATOM      1  C   UNL     1      -2.032  11.777  18.931  0.00  0.00    +0.000 A 
ATOM      2  C   UNL     1      -2.298  12.377  20.158  0.00  0.00    +0.000 A 
ATOM      3  C   UNL     1      -1.656  11.920  21.316  0.00  0.00    +0.000 A 
ATOM      4  C   UNL     1      -0.745  10.860  21.254  0.00  0.00    +0.000 A 
ATOM      5  C   UNL     1      -0.147  10.398  22.424  0.00  0.00    +0.000 A 
ATOM      6  C   UNL     1       0.738   9.332  22.378  0.00  0.00    +0.000 A 
ATOM      7  C   UNL     1       1.078   8.735  21.167  0.00  0.00    +0.000 A 
ATOM      8  C   UNL     1       0.473   9.175  19.980  0.00  0.00    +0.000 A 
ATOM      9  C   UNL     1      -0.451  10.249  20.009  0.00  0.00    +0.000 A 
ATOM     10  C   UNL     1      -1.100  10.734  18.851  0.00  0.00    +0.000 A 
ENDROOT
BRANCH   1  11
ATOM     11  N   UNL     1      -2.708  12.241  17.756  0.00  0.00    +0.000 N 
ATOM     12  H   UNL     1      -2.962  13.237  17.781  0.00  0.00    +0.000 HD
BRANCH  11  13
ATOM     13  S   UNL     1      -4.038  11.346  17.199  0.00  0.00    +0.000 S 
ATOM     14  O   UNL     1      -5.134  12.278  17.151  0.00  0.00    +0.000 OA
ATOM     15  O   UNL     1      -4.127  10.108  17.944  0.00  0.00    +0.000 OA
BRANCH  13  17
ATOM     16  C   UNL     1      -2.741   9.690  15.454  0.00  0.00    +0.000 C 
ATOM     17  C   UNL     1      -3.548  10.975  15.514  0.00  0.00    +0.000 C 
ENDBRANCH  13  17
ENDBRANCH  11  13
ENDBRANCH   1  11
BRANCH   7  18
ATOM     18  O   UNL     1       1.986   7.705  21.126  0.00  0.00    +0.000 OA
BRANCH  18  19
ATOM     19  C   UNL     1       1.431   6.449  20.676  0.00  0.00    +0.000 C 
BRANCH  19  20
ATOM     20  C   UNL     1       2.312   5.813  19.636  0.00  0.00    +0.000 A 
ATOM     21  C   UNL     1       2.367   4.421  19.514  0.00  0.00    +0.000 A 
ATOM     22  C   UNL     1       3.141   3.828  18.517  0.00  0.00    +0.000 A 
ATOM     23  C   UNL     1       3.862   4.620  17.611  0.00  0.00    +0.000 A 
ATOM     24  C   UNL     1       4.632   4.044  16.589  0.00  0.00    +0.000 A 
ATOM     25  C   UNL     1       5.331   4.848  15.688  0.00  0.00    +0.000 A 
ATOM     26  C   UNL     1       5.279   6.234  15.803  0.00  0.00    +0.000 A 
ATOM     27  C   UNL     1       4.521   6.821  16.815  0.00  0.00    +0.000 A 
ATOM     28  C   UNL     1       3.805   6.027  17.721  0.00  0.00    +0.000 A 
ATOM     29  C   UNL     1       3.024   6.607  18.730  0.00  0.00    +0.000 A 
ENDBRANCH  19  20
ENDBRANCH  18  19
ENDBRANCH   7  18
TORSDOF 6
ENDMDL
MODEL 7
REMARK VINA RESULT:      -8.5      4.798     10.081
REMARK  Name = 
REMARK  7 active torsions:
REMARK  status: ('A' for Active; 'I' for Inactive)
REMARK    1  A    between atoms: C_1  and  C_2
REMARK    2  A    between atoms: C_2  and  S_3
REMARK    3  A    between atoms: S_3  and  N_6
REMARK    4  A    between atoms: N_6  and  C_7
REMARK    5  A    between atoms: C_13  and  O_14
REMARK    6  A    between atoms: O_14  and  C_15
REMARK    7  A    between atoms: C_15  and  C_16
REMARK                            x       y       z     vdW  Elec       q    Type
REMARK                         _______ _______ _______ _____ _____    ______ ____
ROOT
ATOM      1  C   UNL     1      -3.741  12.152  19.008  0.00  0.00    +0.000 A 
ATOM      2  C   UNL     1      -3.235  12.686  20.189  0.00  0.00    +0.000 A 
ATOM      3  C   UNL     1      -1.942  12.356  20.610  0.00  0.00    +0.000 A 
ATOM      4  C   UNL     1      -1.146  11.489  19.854  0.00  0.00    +0.000 A 
ATOM      5  C   UNL     1       0.124  11.146  20.311  0.00  0.00    +0.000 A 
ATOM      6  C   UNL     1       0.912  10.268  19.583  0.00  0.00    +0.000 A 
ATOM      7  C   UNL     1       0.472   9.750  18.366  0.00  0.00    +0.000 A 
ATOM      8  C   UNL     1      -0.811  10.072  17.898  0.00  0.00    +0.000 A 
ATOM      9  C   UNL     1      -1.640  10.949  18.639  0.00  0.00    +0.000 A 
ATOM     10  C   UNL     1      -2.944  11.306  18.227  0.00  0.00    +0.000 A 
ENDROOT
BRANCH   1  11
ATOM     11  N   UNL     1      -5.074  12.482  18.596  0.00  0.00    +0.000 N 
ATOM     12  H   UNL     1      -5.224  13.485  18.422  0.00  0.00    +0.000 HD
BRANCH  11  13
ATOM     13  S   UNL     1      -6.363  11.881  19.521  0.00  0.00    +0.000 S 
ATOM     14  O   UNL     1      -7.482  12.737  19.221  0.00  0.00    +0.000 OA
ATOM     15  O   UNL     1      -5.917  11.666  20.882  0.00  0.00    +0.000 OA
BRANCH  13  17
ATOM     16  C   UNL     1      -7.123   9.268  19.769  0.00  0.00    +0.000 C 
ATOM     17  C   UNL     1      -6.656  10.290  18.748  0.00  0.00    +0.000 C 
ENDBRANCH  13  17
ENDBRANCH  11  13
ENDBRANCH   1  11
BRANCH   7  18
ATOM     18  O   UNL     1       1.275   8.913  17.631  0.00  0.00    +0.000 OA
BRANCH  18  19
ATOM     19  C   UNL     1       2.461   8.474  18.329  0.00  0.00    +0.000 C 
BRANCH  19  20
ATOM     20  C   UNL     1       2.298   7.067  18.836  0.00  0.00    +0.000 A 
ATOM     21  C   UNL     1       1.952   6.836  20.172  0.00  0.00    +0.000 A 
ATOM     22  C   UNL     1       1.748   5.536  20.635  0.00  0.00    +0.000 A 
ATOM     23  C   UNL     1       1.869   4.444  19.762  0.00  0.00    +0.000 A 
ATOM     24  C   UNL     1       1.650   3.129  20.203  0.00  0.00    +0.000 A 
ATOM     25  C   UNL     1       1.761   2.056  19.318  0.00  0.00    +0.000 A 
ATOM     26  C   UNL     1       2.102   2.281  17.988  0.00  0.00    +0.000 A 
ATOM     27  C   UNL     1       2.328   3.580  17.536  0.00  0.00    +0.000 A 
ATOM     28  C   UNL     1       2.209   4.669  18.410  0.00  0.00    +0.000 A 
ATOM     29  C   UNL     1       2.414   5.981  17.962  0.00  0.00    +0.000 A 
ENDBRANCH  19  20
ENDBRANCH  18  19
ENDBRANCH   7  18
TORSDOF 6
ENDMDL
MODEL 8
REMARK VINA RESULT:      -8.3      2.622      3.602
REMARK  Name = 
REMARK  7 active torsions:
REMARK  status: ('A' for Active; 'I' for Inactive)
REMARK    1  A    between atoms: C_1  and  C_2
REMARK    2  A    between atoms: C_2  and  S_3
REMARK    3  A    between atoms: S_3  and  N_6
REMARK    4  A    between atoms: N_6  and  C_7
REMARK    5  A    between atoms: C_13  and  O_14
REMARK    6  A    between atoms: O_14  and  C_15
REMARK    7  A    between atoms: C_15  and  C_16
REMARK                            x       y       z     vdW  Elec       q    Type
REMARK                         _______ _______ _______ _____ _____    ______ ____
ROOT
ATOM      1  C   UNL     1       4.432   4.089  16.831  0.00  0.00    +0.000 A 
ATOM      2  C   UNL     1       4.442   2.849  17.462  0.00  0.00    +0.000 A 
ATOM      3  C   UNL     1       3.775   2.677  18.681  0.00  0.00    +0.000 A 
ATOM      4  C   UNL     1       3.094   3.745  19.277  0.00  0.00    +0.000 A 
ATOM      5  C   UNL     1       2.469   3.560  20.508  0.00  0.00    +0.000 A 
ATOM      6  C   UNL     1       1.813   4.616  21.120  0.00  0.00    +0.000 A 
ATOM      7  C   UNL     1       1.727   5.862  20.501  0.00  0.00    +0.000 A 
ATOM      8  C   UNL     1       2.366   6.071  19.270  0.00  0.00    +0.000 A 
ATOM      9  C   UNL     1       3.060   5.010  18.639  0.00  0.00    +0.000 A 
ATOM     10  C   UNL     1       3.730   5.158  17.403  0.00  0.00    +0.000 A 
ENDROOT
BRANCH   1  11
ATOM     11  N   UNL     1       5.134   4.258  15.593  0.00  0.00    +0.000 N 
ATOM     12  H   UNL     1       5.268   3.388  15.062  0.00  0.00    +0.000 HD
BRANCH  11  13
ATOM     13  S   UNL     1       6.595   5.121  15.620  0.00  0.00    +0.000 S 
ATOM     14  O   UNL     1       7.463   4.378  16.497  0.00  0.00    +0.000 OA
ATOM     15  O   UNL     1       6.318   6.525  15.838  0.00  0.00    +0.000 OA
BRANCH  13  17
ATOM     16  C   UNL     1       6.359   3.849  13.212  0.00  0.00    +0.000 C 
ATOM     17  C   UNL     1       7.180   4.899  13.939  0.00  0.00    +0.000 C 
ENDBRANCH  13  17
ENDBRANCH  11  13
ENDBRANCH   1  11
BRANCH   7  18
ATOM     18  O   UNL     1       1.041   6.892  21.096  0.00  0.00    +0.000 OA
BRANCH  18  19
ATOM     19  C   UNL     1       1.739   8.158  21.067  0.00  0.00    +0.000 C 
BRANCH  19  20
ATOM     20  C   UNL     1       0.770   9.304  20.963  0.00  0.00    +0.000 A 
ATOM     21  C   UNL     1       0.433   9.830  19.712  0.00  0.00    +0.000 A 
ATOM     22  C   UNL     1      -0.504  10.859  19.606  0.00  0.00    +0.000 A 
ATOM     23  C   UNL     1      -1.135  11.366  20.752  0.00  0.00    +0.000 A 
ATOM     24  C   UNL     1      -2.094  12.387  20.666  0.00  0.00    +0.000 A 
ATOM     25  C   UNL     1      -2.722  12.869  21.815  0.00  0.00    +0.000 A 
ATOM     26  C   UNL     1      -2.392  12.347  23.062  0.00  0.00    +0.000 A 
ATOM     27  C   UNL     1      -1.438  11.336  23.165  0.00  0.00    +0.000 A 
ATOM     28  C   UNL     1      -0.807  10.833  22.018  0.00  0.00    +0.000 A 
ATOM     29  C   UNL     1       0.139   9.803  22.107  0.00  0.00    +0.000 A 
ENDBRANCH  19  20
ENDBRANCH  18  19
ENDBRANCH   7  18
TORSDOF 6
ENDMDL
MODEL 9
REMARK VINA RESULT:      -8.3      3.114      4.397
REMARK  Name = 
REMARK  7 active torsions:
REMARK  status: ('A' for Active; 'I' for Inactive)
REMARK    1  A    between atoms: C_1  and  C_2
REMARK    2  A    between atoms: C_2  and  S_3
REMARK    3  A    between atoms: S_3  and  N_6
REMARK    4  A    between atoms: N_6  and  C_7
REMARK    5  A    between atoms: C_13  and  O_14
REMARK    6  A    between atoms: O_14  and  C_15
REMARK    7  A    between atoms: C_15  and  C_16
REMARK                            x       y       z     vdW  Elec       q    Type
REMARK                         _______ _______ _______ _____ _____    ______ ____
ROOT
ATOM      1  C   UNL     1       2.990   5.773  18.957  0.00  0.00    +0.000 A 
ATOM      2  C   UNL     1       3.281   6.432  17.767  0.00  0.00    +0.000 A 
ATOM      3  C   UNL     1       2.863   7.755  17.577  0.00  0.00    +0.000 A 
ATOM      4  C   UNL     1       2.151   8.427  18.577  0.00  0.00    +0.000 A 
ATOM      5  C   UNL     1       1.714   9.730  18.351  0.00  0.00    +0.000 A 
ATOM      6  C   UNL     1       0.987  10.397  19.325  0.00  0.00    +0.000 A 
ATOM      7  C   UNL     1       0.718   9.800  20.555  0.00  0.00    +0.000 A 
ATOM      8  C   UNL     1       1.136   8.482  20.793  0.00  0.00    +0.000 A 
ATOM      9  C   UNL     1       1.862   7.776  19.802  0.00  0.00    +0.000 A 
ATOM     10  C   UNL     1       2.304   6.445  19.977  0.00  0.00    +0.000 A 
ENDROOT
BRANCH   1  11
ATOM     11  N   UNL     1       3.407   4.413  19.133  0.00  0.00    +0.000 N 
ATOM     12  H   UNL     1       4.407   4.253  18.955  0.00  0.00    +0.000 HD
BRANCH  11  13
ATOM     13  S   UNL     1       2.506   3.200  18.362  0.00  0.00    +0.000 S 
ATOM     14  O   UNL     1       3.465   2.421  17.622  0.00  0.00    +0.000 OA
ATOM     15  O   UNL     1       1.354   3.797  17.717  0.00  0.00    +0.000 OA
BRANCH  13  17
ATOM     16  C   UNL     1       1.147   3.066  20.729  0.00  0.00    +0.000 C 
ATOM     17  C   UNL     1       1.947   2.220  19.756  0.00  0.00    +0.000 C 
ENDBRANCH  13  17
ENDBRANCH  11  13
ENDBRANCH   1  11
BRANCH   7  18
ATOM     18  O   UNL     1       0.032  10.483  21.528  0.00  0.00    +0.000 OA
BRANCH  18  19
ATOM     19  C   UNL     1      -0.221  11.869  21.208  0.00  0.00    +0.000 C 
BRANCH  19  20
ATOM     20  C   UNL     1      -1.656  12.231  21.480  0.00  0.00    +0.000 A 
ATOM     21  C   UNL     1      -2.509  12.571  20.425  0.00  0.00    +0.000 A 
ATOM     22  C   UNL     1      -3.853  12.857  20.665  0.00  0.00    +0.000 A 
ATOM     23  C   UNL     1      -4.371  12.791  21.967  0.00  0.00    +0.000 A 
ATOM     24  C   UNL     1      -5.724  13.056  22.229  0.00  0.00    +0.000 A 
ATOM     25  C   UNL     1      -6.226  12.972  23.528  0.00  0.00    +0.000 A 
ATOM     26  C   UNL     1      -5.382  12.632  24.581  0.00  0.00    +0.000 A 
ATOM     27  C   UNL     1      -4.035  12.369  24.338  0.00  0.00    +0.000 A 
ATOM     28  C   UNL     1      -3.519  12.439  23.037  0.00  0.00    +0.000 A 
ATOM     29  C   UNL     1      -2.170  12.158  22.778  0.00  0.00    +0.000 A 
ENDBRANCH  19  20
ENDBRANCH  18  19
ENDBRANCH   7  18
TORSDOF 6
ENDMDL
