MODEL 1
REMARK VINA RESULT:      -6.6      0.000      0.000
REMARK  Name = 
REMARK  2 active torsions:
REMARK  status: ('A' for Active; 'I' for Inactive)
REMARK    1  A    between atoms: N_1  and  C_2
REMARK    2  A    between atoms: C_3  and  C_4
REMARK                            x       y       z     vdW  Elec       q    Type
REMARK                         _______ _______ _______ _____ _____    ______ ____
ROOT
ATOM      1  C   UNL     1       2.074   7.150  19.936  0.00  0.00    +0.000 A 
ATOM      2  C   UNL     1       2.439   7.088  18.636  0.00  0.00    +0.000 A 
ATOM      3  C   UNL     1       2.121   8.297  17.811  0.00  0.00    +0.000 A 
ATOM      4  N   UNL     1       1.545   9.388  18.215  0.00  0.00    +0.000 NA
ATOM      5  C   UNL     1       1.202   9.419  19.537  0.00  0.00    +0.000 A 
ATOM      6  C   UNL     1       0.583  10.366  20.314  0.00  0.00    +0.000 A 
ATOM      7 BR   UNL     1      -0.068  12.042  19.805  0.00  0.00    +0.000 Br
ATOM      8  C   UNL     1       0.526   9.841  21.607  0.00  0.00    +0.000 A 
ATOM      9  N   UNL     1       1.068   8.624  21.686  0.00  0.00    +0.000 NA
ATOM     10  N   UNL     1       1.456   8.345  20.399  0.00  0.00    +0.000 N 
ENDROOT
BRANCH   2  11
ATOM     11  C   UNL     1       3.083   5.931  18.006  0.00  0.00    +0.000 A 
ATOM     12  C   UNL     1       4.433   5.992  17.644  0.00  0.00    +0.000 A 
ATOM     13  C   UNL     1       5.061   4.878  17.082  0.00  0.00    +0.000 A 
ATOM     14  C   UNL     1       4.340   3.704  16.875  0.00  0.00    +0.000 A 
ATOM     15  C   UNL     1       2.991   3.640  17.222  0.00  0.00    +0.000 A 
ATOM     16  C   UNL     1       2.362   4.751  17.788  0.00  0.00    +0.000 A 
ENDBRANCH   2  11
BRANCH   1  17
ATOM     17  N   UNL     1       2.257   6.131  20.871  0.00  0.00    +0.000 N 
ATOM     18  H   UNL     1       1.508   6.043  21.554  0.00  0.00    +0.000 HD
ATOM     19  H   UNL     1       2.527   5.250  20.426  0.00  0.00    +0.000 HD
ENDBRANCH   1  17
TORSDOF 2
ENDMDL
MODEL 2
REMARK VINA RESULT:      -6.6      0.127      1.177
REMARK  Name = 
REMARK  2 active torsions:
REMARK  status: ('A' for Active; 'I' for Inactive)
REMARK    1  A    between atoms: N_1  and  C_2
REMARK    2  A    between atoms: C_3  and  C_4
REMARK                            x       y       z     vdW  Elec       q    Type
REMARK                         _______ _______ _______ _____ _____    ______ ____
ROOT
ATOM      1  C   UNL     1       2.093   7.188  19.904  0.00  0.00    +0.000 A 
ATOM      2  C   UNL     1       2.484   7.148  18.610  0.00  0.00    +0.000 A 
ATOM      3  C   UNL     1       2.156   8.359  17.791  0.00  0.00    +0.000 A 
ATOM      4  N   UNL     1       1.550   9.433  18.195  0.00  0.00    +0.000 NA
ATOM      5  C   UNL     1       1.182   9.443  19.511  0.00  0.00    +0.000 A 
ATOM      6  C   UNL     1       0.529  10.369  20.286  0.00  0.00    +0.000 A 
ATOM      7 BR   UNL     1      -0.147  12.036  19.782  0.00  0.00    +0.000 Br
ATOM      8  C   UNL     1       0.458   9.829  21.572  0.00  0.00    +0.000 A 
ATOM      9  N   UNL     1       1.024   8.623  21.649  0.00  0.00    +0.000 NA
ATOM     10  N   UNL     1       1.442   8.365  20.367  0.00  0.00    +0.000 N 
ENDROOT
BRANCH   2  11
ATOM     11  C   UNL     1       3.163   6.011  17.981  0.00  0.00    +0.000 A 
ATOM     12  C   UNL     1       2.488   4.797  17.814  0.00  0.00    +0.000 A 
ATOM     13  C   UNL     1       3.118   3.725  17.178  0.00  0.00    +0.000 A 
ATOM     14  C   UNL     1       4.424   3.862  16.711  0.00  0.00    +0.000 A 
ATOM     15  C   UNL     1       5.106   5.065  16.885  0.00  0.00    +0.000 A 
ATOM     16  C   UNL     1       4.478   6.140  17.518  0.00  0.00    +0.000 A 
ENDBRANCH   2  11
BRANCH   1  17
ATOM     17  N   UNL     1       2.281   6.164  20.832  0.00  0.00    +0.000 N 
ATOM     18  H   UNL     1       2.218   6.457  21.803  0.00  0.00    +0.000 HD
ATOM     19  H   UNL     1       1.721   5.337  20.604  0.00  0.00    +0.000 HD
ENDBRANCH   1  17
TORSDOF 2
ENDMDL
MODEL 3
REMARK VINA RESULT:      -6.6      5.043      6.780
REMARK  Name = 
REMARK  2 active torsions:
REMARK  status: ('A' for Active; 'I' for Inactive)
REMARK    1  A    between atoms: N_1  and  C_2
REMARK    2  A    between atoms: C_3  and  C_4
REMARK                            x       y       z     vdW  Elec       q    Type
REMARK                         _______ _______ _______ _____ _____    ______ ____
ROOT
ATOM      1  C   UNL     1       5.377   4.372  18.351  0.00  0.00    +0.000 A 
ATOM      2  C   UNL     1       4.137   3.835  18.306  0.00  0.00    +0.000 A 
ATOM      3  C   UNL     1       3.652   3.425  16.949  0.00  0.00    +0.000 A 
ATOM      4  N   UNL     1       4.297   3.525  15.827  0.00  0.00    +0.000 NA
ATOM      5  C   UNL     1       5.552   4.060  15.913  0.00  0.00    +0.000 A 
ATOM      6  C   UNL     1       6.513   4.330  14.972  0.00  0.00    +0.000 A 
ATOM      7 BR   UNL     1       6.436   4.065  13.124  0.00  0.00    +0.000 Br
ATOM      8  C   UNL     1       7.607   4.855  15.663  0.00  0.00    +0.000 A 
ATOM      9  N   UNL     1       7.388   4.932  16.977  0.00  0.00    +0.000 NA
ATOM     10  N   UNL     1       6.104   4.473  17.132  0.00  0.00    +0.000 N 
ENDROOT
BRANCH   2  11
ATOM     11  C   UNL     1       3.261   3.664  19.469  0.00  0.00    +0.000 A 
ATOM     12  C   UNL     1       2.129   4.473  19.618  0.00  0.00    +0.000 A 
ATOM     13  C   UNL     1       1.270   4.285  20.704  0.00  0.00    +0.000 A 
ATOM     14  C   UNL     1       1.542   3.292  21.643  0.00  0.00    +0.000 A 
ATOM     15  C   UNL     1       2.676   2.492  21.507  0.00  0.00    +0.000 A 
ATOM     16  C   UNL     1       3.534   2.675  20.421  0.00  0.00    +0.000 A 
ENDBRANCH   2  11
BRANCH   1  17
ATOM     17  N   UNL     1       6.009   4.837  19.504  0.00  0.00    +0.000 N 
ATOM     18  H   UNL     1       5.714   5.763  19.804  0.00  0.00    +0.000 HD
ATOM     19  H   UNL     1       6.011   4.134  20.247  0.00  0.00    +0.000 HD
ENDBRANCH   1  17
TORSDOF 2
ENDMDL
MODEL 4
REMARK VINA RESULT:      -6.5      5.013      6.836
REMARK  Name = 
REMARK  2 active torsions:
REMARK  status: ('A' for Active; 'I' for Inactive)
REMARK    1  A    between atoms: N_1  and  C_2
REMARK    2  A    between atoms: C_3  and  C_4
REMARK                            x       y       z     vdW  Elec       q    Type
REMARK                         _______ _______ _______ _____ _____    ______ ____
ROOT
ATOM      1  C   UNL     1       5.536   4.458  18.245  0.00  0.00    +0.000 A 
ATOM      2  C   UNL     1       4.300   3.912  18.273  0.00  0.00    +0.000 A 
ATOM      3  C   UNL     1       3.757   3.458  16.953  0.00  0.00    +0.000 A 
ATOM      4  N   UNL     1       4.350   3.526  15.800  0.00  0.00    +0.000 NA
ATOM      5  C   UNL     1       5.603   4.071  15.813  0.00  0.00    +0.000 A 
ATOM      6  C   UNL     1       6.520   4.317  14.822  0.00  0.00    +0.000 A 
ATOM      7 BR   UNL     1       6.361   3.995  12.988  0.00  0.00    +0.000 Br
ATOM      8  C   UNL     1       7.640   4.869  15.446  0.00  0.00    +0.000 A 
ATOM      9  N   UNL     1       7.480   4.985  16.766  0.00  0.00    +0.000 NA
ATOM     10  N   UNL     1       6.207   4.525  16.993  0.00  0.00    +0.000 N 
ENDROOT
BRANCH   2  11
ATOM     11  C   UNL     1       3.478   3.772  19.479  0.00  0.00    +0.000 A 
ATOM     12  C   UNL     1       3.553   2.603  20.245  0.00  0.00    +0.000 A 
ATOM     13  C   UNL     1       2.803   2.481  21.417  0.00  0.00    +0.000 A 
ATOM     14  C   UNL     1       1.975   3.525  21.824  0.00  0.00    +0.000 A 
ATOM     15  C   UNL     1       1.886   4.688  21.059  0.00  0.00    +0.000 A 
ATOM     16  C   UNL     1       2.638   4.813  19.889  0.00  0.00    +0.000 A 
ENDBRANCH   2  11
BRANCH   1  17
ATOM     17  N   UNL     1       6.217   4.961  19.354  0.00  0.00    +0.000 N 
ATOM     18  H   UNL     1       7.129   4.542  19.516  0.00  0.00    +0.000 HD
ATOM     19  H   UNL     1       6.215   5.984  19.369  0.00  0.00    +0.000 HD
ENDBRANCH   1  17
TORSDOF 2
ENDMDL
MODEL 5
REMARK VINA RESULT:      -6.4      3.893      5.610
REMARK  Name = 
REMARK  2 active torsions:
REMARK  status: ('A' for Active; 'I' for Inactive)
REMARK    1  A    between atoms: N_1  and  C_2
REMARK    2  A    between atoms: C_3  and  C_4
REMARK                            x       y       z     vdW  Elec       q    Type
REMARK                         _______ _______ _______ _____ _____    ______ ____
ROOT
ATOM      1  C   UNL     1       4.753   5.815  16.293  0.00  0.00    +0.000 A 
ATOM      2  C   UNL     1       5.116   4.617  15.784  0.00  0.00    +0.000 A 
ATOM      3  C   UNL     1       4.733   3.419  16.598  0.00  0.00    +0.000 A 
ATOM      4  N   UNL     1       4.088   3.415  17.725  0.00  0.00    +0.000 NA
ATOM      5  C   UNL     1       3.727   4.643  18.202  0.00  0.00    +0.000 A 
ATOM      6  C   UNL     1       3.062   5.042  19.334  0.00  0.00    +0.000 A 
ATOM      7 BR   UNL     1       2.393   3.983  20.721  0.00  0.00    +0.000 Br
ATOM      8  C   UNL     1       2.963   6.433  19.267  0.00  0.00    +0.000 A 
ATOM      9  N   UNL     1       3.527   6.929  18.164  0.00  0.00    +0.000 NA
ATOM     10  N   UNL     1       4.031   5.828  17.519  0.00  0.00    +0.000 N 
ENDROOT
BRANCH   2  11
ATOM     11  C   UNL     1       5.863   4.434  14.536  0.00  0.00    +0.000 A 
ATOM     12  C   UNL     1       5.331   3.641  13.512  0.00  0.00    +0.000 A 
ATOM     13  C   UNL     1       6.020   3.498  12.305  0.00  0.00    +0.000 A 
ATOM     14  C   UNL     1       7.242   4.141  12.120  0.00  0.00    +0.000 A 
ATOM     15  C   UNL     1       7.783   4.922  13.142  0.00  0.00    +0.000 A 
ATOM     16  C   UNL     1       7.095   5.070  14.347  0.00  0.00    +0.000 A 
ENDBRANCH   2  11
BRANCH   1  17
ATOM     17  N   UNL     1       5.027   7.052  15.709  0.00  0.00    +0.000 N 
ATOM     18  H   UNL     1       5.253   7.791  16.370  0.00  0.00    +0.000 HD
ATOM     19  H   UNL     1       5.686   6.968  14.931  0.00  0.00    +0.000 HD
ENDBRANCH   1  17
TORSDOF 2
ENDMDL
MODEL 6
REMARK VINA RESULT:      -6.4      3.586      5.101
REMARK  Name = 
REMARK  2 active torsions:
REMARK  status: ('A' for Active; 'I' for Inactive)
REMARK    1  A    between atoms: N_1  and  C_2
REMARK    2  A    between atoms: C_3  and  C_4
REMARK                            x       y       z     vdW  Elec       q    Type
REMARK                         _______ _______ _______ _____ _____    ______ ____
ROOT
ATOM      1  C   UNL     1       3.994   5.455  17.755  0.00  0.00    +0.000 A 
ATOM      2  C   UNL     1       4.548   4.384  17.144  0.00  0.00    +0.000 A 
ATOM      3  C   UNL     1       4.234   3.051  17.751  0.00  0.00    +0.000 A 
ATOM      4  N   UNL     1       3.484   2.822  18.787  0.00  0.00    +0.000 NA
ATOM      5  C   UNL     1       2.931   3.927  19.370  0.00  0.00    +0.000 A 
ATOM      6  C   UNL     1       2.113   4.091  20.460  0.00  0.00    +0.000 A 
ATOM      7 BR   UNL     1       1.443   2.785  21.615  0.00  0.00    +0.000 Br
ATOM      8  C   UNL     1       1.854   5.460  20.558  0.00  0.00    +0.000 A 
ATOM      9  N   UNL     1       2.461   6.162  19.598  0.00  0.00    +0.000 NA
ATOM     10  N   UNL     1       3.157   5.221  18.882  0.00  0.00    +0.000 N 
ENDROOT
BRANCH   2  11
ATOM     11  C   UNL     1       5.432   4.457  15.977  0.00  0.00    +0.000 A 
ATOM     12  C   UNL     1       4.984   4.006  14.730  0.00  0.00    +0.000 A 
ATOM     13  C   UNL     1       5.808   4.111  13.607  0.00  0.00    +0.000 A 
ATOM     14  C   UNL     1       7.082   4.662  13.728  0.00  0.00    +0.000 A 
ATOM     15  C   UNL     1       7.539   5.102  14.970  0.00  0.00    +0.000 A 
ATOM     16  C   UNL     1       6.716   5.001  16.093  0.00  0.00    +0.000 A 
ENDBRANCH   2  11
BRANCH   1  17
ATOM     17  N   UNL     1       4.174   6.783  17.368  0.00  0.00    +0.000 N 
ATOM     18  H   UNL     1       5.130   7.027  17.126  0.00  0.00    +0.000 HD
ATOM     19  H   UNL     1       3.477   7.075  16.678  0.00  0.00    +0.000 HD
ENDBRANCH   1  17
TORSDOF 2
ENDMDL
MODEL 7
REMARK VINA RESULT:      -6.4      3.576      4.987
REMARK  Name = 
REMARK  2 active torsions:
REMARK  status: ('A' for Active; 'I' for Inactive)
REMARK    1  A    between atoms: N_1  and  C_2
REMARK    2  A    between atoms: C_3  and  C_4
REMARK                            x       y       z     vdW  Elec       q    Type
REMARK                         _______ _______ _______ _____ _____    ______ ____
ROOT
ATOM      1  C   UNL     1       3.977   5.494  17.717  0.00  0.00    +0.000 A 
ATOM      2  C   UNL     1       4.520   4.429  17.087  0.00  0.00    +0.000 A 
ATOM      3  C   UNL     1       4.212   3.090  17.684  0.00  0.00    +0.000 A 
ATOM      4  N   UNL     1       3.477   2.851  18.728  0.00  0.00    +0.000 NA
ATOM      5  C   UNL     1       2.934   3.951  19.330  0.00  0.00    +0.000 A 
ATOM      6  C   UNL     1       2.132   4.105  20.433  0.00  0.00    +0.000 A 
ATOM      7 BR   UNL     1       1.476   2.787  21.584  0.00  0.00    +0.000 Br
ATOM      8  C   UNL     1       1.877   5.472  20.550  0.00  0.00    +0.000 A 
ATOM      9  N   UNL     1       2.471   6.184  19.590  0.00  0.00    +0.000 NA
ATOM     10  N   UNL     1       3.156   5.249  18.853  0.00  0.00    +0.000 N 
ENDROOT
BRANCH   2  11
ATOM     11  C   UNL     1       5.388   4.513  15.908  0.00  0.00    +0.000 A 
ATOM     12  C   UNL     1       6.672   5.057  16.021  0.00  0.00    +0.000 A 
ATOM     13  C   UNL     1       7.517   5.101  14.909  0.00  0.00    +0.000 A 
ATOM     14  C   UNL     1       7.078   4.606  13.682  0.00  0.00    +0.000 A 
ATOM     15  C   UNL     1       5.795   4.075  13.560  0.00  0.00    +0.000 A 
ATOM     16  C   UNL     1       4.950   4.026  14.671  0.00  0.00    +0.000 A 
ENDBRANCH   2  11
BRANCH   1  17
ATOM     17  N   UNL     1       4.153   6.826  17.342  0.00  0.00    +0.000 N 
ATOM     18  H   UNL     1       5.035   7.021  16.875  0.00  0.00    +0.000 HD
ATOM     19  H   UNL     1       3.330   7.197  16.859  0.00  0.00    +0.000 HD
ENDBRANCH   1  17
TORSDOF 2
ENDMDL
MODEL 8
REMARK VINA RESULT:      -6.4      3.921      5.534
REMARK  Name = 
REMARK  2 active torsions:
REMARK  status: ('A' for Active; 'I' for Inactive)
REMARK    1  A    between atoms: N_1  and  C_2
REMARK    2  A    between atoms: C_3  and  C_4
REMARK                            x       y       z     vdW  Elec       q    Type
REMARK                         _______ _______ _______ _____ _____    ______ ____
ROOT
ATOM      1  C   UNL     1       4.750   5.786  16.325  0.00  0.00    +0.000 A 
ATOM      2  C   UNL     1       5.107   4.603  15.777  0.00  0.00    +0.000 A 
ATOM      3  C   UNL     1       4.743   3.382  16.565  0.00  0.00    +0.000 A 
ATOM      4  N   UNL     1       4.119   3.345  17.703  0.00  0.00    +0.000 NA
ATOM      5  C   UNL     1       3.763   4.559  18.220  0.00  0.00    +0.000 A 
ATOM      6  C   UNL     1       3.119   4.924  19.376  0.00  0.00    +0.000 A 
ATOM      7 BR   UNL     1       2.480   3.825  20.745  0.00  0.00    +0.000 Br
ATOM      8  C   UNL     1       3.016   6.316  19.349  0.00  0.00    +0.000 A 
ATOM      9  N   UNL     1       3.557   6.844  18.249  0.00  0.00    +0.000 NA
ATOM     10  N   UNL     1       4.052   5.762  17.564  0.00  0.00    +0.000 N 
ENDROOT
BRANCH   2  11
ATOM     11  C   UNL     1       5.830   4.456  14.510  0.00  0.00    +0.000 A 
ATOM     12  C   UNL     1       7.062   5.095  14.328  0.00  0.00    +0.000 A 
ATOM     13  C   UNL     1       7.773   4.926  13.138  0.00  0.00    +0.000 A 
ATOM     14  C   UNL     1       7.253   4.121  12.126  0.00  0.00    +0.000 A 
ATOM     15  C   UNL     1       6.020   3.492  12.295  0.00  0.00    +0.000 A 
ATOM     16  C   UNL     1       5.309   3.657  13.486  0.00  0.00    +0.000 A 
ENDBRANCH   2  11
BRANCH   1  17
ATOM     17  N   UNL     1       5.010   7.039  15.770  0.00  0.00    +0.000 N 
ATOM     18  H   UNL     1       5.709   7.038  15.032  0.00  0.00    +0.000 HD
ATOM     19  H   UNL     1       4.147   7.536  15.533  0.00  0.00    +0.000 HD
ENDBRANCH   1  17
TORSDOF 2
ENDMDL
MODEL 9
REMARK VINA RESULT:      -6.2      4.102      5.526
REMARK  Name = 
REMARK  2 active torsions:
REMARK  status: ('A' for Active; 'I' for Inactive)
REMARK    1  A    between atoms: N_1  and  C_2
REMARK    2  A    between atoms: C_3  and  C_4
REMARK                            x       y       z     vdW  Elec       q    Type
REMARK                         _______ _______ _______ _____ _____    ______ ____
ROOT
ATOM      1  C   UNL     1       5.103   4.289  19.018  0.00  0.00    +0.000 A 
ATOM      2  C   UNL     1       3.877   4.756  18.691  0.00  0.00    +0.000 A 
ATOM      3  C   UNL     1       3.838   6.130  18.097  0.00  0.00    +0.000 A 
ATOM      4  N   UNL     1       4.851   6.907  17.859  0.00  0.00    +0.000 NA
ATOM      5  C   UNL     1       6.075   6.397  18.190  0.00  0.00    +0.000 A 
ATOM      6  C   UNL     1       7.347   6.904  18.104  0.00  0.00    +0.000 A 
ATOM      7 BR   UNL     1       7.888   8.582  17.484  0.00  0.00    +0.000 Br
ATOM      8  C   UNL     1       8.204   5.907  18.574  0.00  0.00    +0.000 A 
ATOM      9  N   UNL     1       7.547   4.809  18.952  0.00  0.00    +0.000 NA
ATOM     10  N   UNL     1       6.225   5.121  18.749  0.00  0.00    +0.000 N 
ENDROOT
BRANCH   2  11
ATOM     11  C   UNL     1       2.624   4.024  18.904  0.00  0.00    +0.000 A 
ATOM     12  C   UNL     1       2.235   3.024  18.005  0.00  0.00    +0.000 A 
ATOM     13  C   UNL     1       1.063   2.297  18.227  0.00  0.00    +0.000 A 
ATOM     14  C   UNL     1       0.276   2.571  19.344  0.00  0.00    +0.000 A 
ATOM     15  C   UNL     1       0.651   3.575  20.236  0.00  0.00    +0.000 A 
ATOM     16  C   UNL     1       1.824   4.300  20.018  0.00  0.00    +0.000 A 
ENDBRANCH   2  11
BRANCH   1  17
ATOM     17  N   UNL     1       5.362   3.048  19.599  0.00  0.00    +0.000 N 
ATOM     18  H   UNL     1       4.594   2.385  19.539  0.00  0.00    +0.000 HD
ATOM     19  H   UNL     1       6.267   2.672  19.306  0.00  0.00    +0.000 HD
ENDBRANCH   1  17
TORSDOF 2
ENDMDL
