MODEL 1
REMARK VINA RESULT:      -6.4      0.000      0.000
REMARK  Name = 
REMARK  15 active torsions:
REMARK  status: ('A' for Active; 'I' for Inactive)
REMARK    1  A    between atoms: C_1  and  C_2
REMARK    2  A    between atoms: C_2  and  C_3
REMARK    3  A    between atoms: C_3  and  C_4
REMARK    4  A    between atoms: C_4  and  C_5
REMARK    5  A    between atoms: C_5  and  C_6
REMARK    6  A    between atoms: C_6  and  C_7
REMARK    7  A    between atoms: C_7  and  C_8
REMARK    8  A    between atoms: C_8  and  O_9
REMARK    9  A    between atoms: C_8  and  C_10
REMARK   10  A    between atoms: C_10  and  C_11
REMARK   11  A    between atoms: C_11  and  C_13
REMARK   12  A    between atoms: C_13  and  C_14
REMARK   13  A    between atoms: C_14  and  C_15
REMARK   14  A    between atoms: C_19  and  O_20
REMARK   15  A    between atoms: O_20  and  C_21
REMARK                            x       y       z     vdW  Elec       q    Type
REMARK                         _______ _______ _______ _____ _____    ______ ____
ROOT
ATOM      1  C   UNL     1       4.923   6.186  16.325  0.00  0.00    +0.000 C 
ATOM      2  O   UNL     1       5.186   6.649  15.211  0.00  0.00    +0.000 OA
ENDROOT
BRANCH   1   3
ATOM      3  C   UNL     1       5.157   4.720  16.649  0.00  0.00    +0.000 C 
BRANCH   3   4
ATOM      4  C   UNL     1       5.481   4.474  18.116  0.00  0.00    +0.000 C 
BRANCH   4   5
ATOM      5  O   UNL     1       6.800   3.961  18.256  0.00  0.00    +0.000 OA
ATOM      6  H   UNL     1       6.881   3.629  19.177  0.00  0.00    +0.000 HD
ENDBRANCH   4   5
BRANCH   4   7
ATOM      7  C   UNL     1       4.454   3.546  18.772  0.00  0.00    +0.000 C 
BRANCH   7   8
ATOM      8  C   UNL     1       3.713   2.721  17.731  0.00  0.00    +0.000 C 
BRANCH   8   9
ATOM      9  C   UNL     1       2.255   3.155  17.638  0.00  0.00    +0.000 C 
BRANCH   9  10
ATOM     10  C   UNL     1       1.404   2.331  18.596  0.00  0.00    +0.000 C 
BRANCH  10  11
ATOM     11  C   UNL     1       0.834   3.204  19.706  0.00  0.00    +0.000 C 
BRANCH  11  13
ATOM     12  C   UNL     1       2.227   3.860  21.683  0.00  0.00    +0.000 C 
ATOM     13  C   UNL     1       1.372   2.769  21.065  0.00  0.00    +0.000 C 
ENDBRANCH  11  13
ENDBRANCH  10  11
ENDBRANCH   9  10
ENDBRANCH   8   9
ENDBRANCH   7   8
ENDBRANCH   4   7
ENDBRANCH   3   4
ENDBRANCH   1   3
BRANCH   1  14
ATOM     14  C   UNL     1       4.314   7.063  17.398  0.00  0.00    +0.000 C 
BRANCH  14  15
ATOM     15  C   UNL     1       2.847   6.727  17.623  0.00  0.00    +0.000 C 
BRANCH  15  16
ATOM     16  C   UNL     1       2.137   7.757  18.449  0.00  0.00    +0.000 A 
ATOM     17  C   UNL     1       1.650   8.924  17.853  0.00  0.00    +0.000 A 
ATOM     18  C   UNL     1       1.059   9.907  18.641  0.00  0.00    +0.000 A 
ATOM     19  C   UNL     1       0.941   9.721  20.018  0.00  0.00    +0.000 A 
ATOM     20  C   UNL     1       1.396   8.546  20.624  0.00  0.00    +0.000 A 
ATOM     21  C   UNL     1       1.984   7.561  19.832  0.00  0.00    +0.000 A 
BRANCH  20  22
ATOM     22  O   UNL     1       1.231   8.489  21.980  0.00  0.00    +0.000 OA
ATOM     23  C   UNL     1       0.394   9.478  22.569  0.00  0.00    +0.000 C 
ENDBRANCH  20  22
ENDBRANCH  15  16
ENDBRANCH  14  15
ENDBRANCH   1  14
TORSDOF 13
ENDMDL
MODEL 2
REMARK VINA RESULT:      -6.4      3.440      6.192
REMARK  Name = 
REMARK  15 active torsions:
REMARK  status: ('A' for Active; 'I' for Inactive)
REMARK    1  A    between atoms: C_1  and  C_2
REMARK    2  A    between atoms: C_2  and  C_3
REMARK    3  A    between atoms: C_3  and  C_4
REMARK    4  A    between atoms: C_4  and  C_5
REMARK    5  A    between atoms: C_5  and  C_6
REMARK    6  A    between atoms: C_6  and  C_7
REMARK    7  A    between atoms: C_7  and  C_8
REMARK    8  A    between atoms: C_8  and  O_9
REMARK    9  A    between atoms: C_8  and  C_10
REMARK   10  A    between atoms: C_10  and  C_11
REMARK   11  A    between atoms: C_11  and  C_13
REMARK   12  A    between atoms: C_13  and  C_14
REMARK   13  A    between atoms: C_14  and  C_15
REMARK   14  A    between atoms: C_19  and  O_20
REMARK   15  A    between atoms: O_20  and  C_21
REMARK                            x       y       z     vdW  Elec       q    Type
REMARK                         _______ _______ _______ _____ _____    ______ ____
ROOT
ATOM      1  C   UNL     1       6.903   5.886  18.457  0.00  0.00    +0.000 C 
ATOM      2  O   UNL     1       8.040   6.077  18.898  0.00  0.00    +0.000 OA
ENDROOT
BRANCH   1   3
ATOM      3  C   UNL     1       6.575   6.109  16.990  0.00  0.00    +0.000 C 
BRANCH   3   4
ATOM      4  C   UNL     1       6.678   4.841  16.154  0.00  0.00    +0.000 C 
BRANCH   4   5
ATOM      5  O   UNL     1       7.994   4.306  16.220  0.00  0.00    +0.000 OA
ATOM      6  H   UNL     1       8.309   4.433  17.141  0.00  0.00    +0.000 HD
ENDBRANCH   4   5
BRANCH   4   7
ATOM      7  C   UNL     1       6.253   5.087  14.703  0.00  0.00    +0.000 C 
BRANCH   7   8
ATOM      8  C   UNL     1       5.786   3.800  14.041  0.00  0.00    +0.000 C 
BRANCH   8   9
ATOM      9  C   UNL     1       6.291   3.719  12.605  0.00  0.00    +0.000 C 
BRANCH   9  10
ATOM     10  C   UNL     1       5.524   2.646  11.842  0.00  0.00    +0.000 C 
BRANCH  10  11
ATOM     11  C   UNL     1       4.117   3.119  11.503  0.00  0.00    +0.000 C 
BRANCH  11  13
ATOM     12  C   UNL     1       2.763   4.072   9.622  0.00  0.00    +0.000 C 
ATOM     13  C   UNL     1       4.132   4.021  10.274  0.00  0.00    +0.000 C 
ENDBRANCH  11  13
ENDBRANCH  10  11
ENDBRANCH   9  10
ENDBRANCH   8   9
ENDBRANCH   7   8
ENDBRANCH   4   7
ENDBRANCH   3   4
ENDBRANCH   1   3
BRANCH   1  14
ATOM     14  C   UNL     1       5.782   5.460  19.380  0.00  0.00    +0.000 C 
BRANCH  14  15
ATOM     15  C   UNL     1       4.419   5.772  18.779  0.00  0.00    +0.000 C 
BRANCH  15  16
ATOM     16  C   UNL     1       3.576   4.548  18.585  0.00  0.00    +0.000 A 
ATOM     17  C   UNL     1       3.373   4.029  17.303  0.00  0.00    +0.000 A 
ATOM     18  C   UNL     1       2.529   2.937  17.126  0.00  0.00    +0.000 A 
ATOM     19  C   UNL     1       1.900   2.355  18.226  0.00  0.00    +0.000 A 
ATOM     20  C   UNL     1       2.118   2.844  19.518  0.00  0.00    +0.000 A 
ATOM     21  C   UNL     1       2.967   3.935  19.693  0.00  0.00    +0.000 A 
BRANCH  20  22
ATOM     22  O   UNL     1       1.437   2.193  20.509  0.00  0.00    +0.000 OA
ATOM     23  C   UNL     1       1.572   2.709  21.829  0.00  0.00    +0.000 C 
ENDBRANCH  20  22
ENDBRANCH  15  16
ENDBRANCH  14  15
ENDBRANCH   1  14
TORSDOF 13
ENDMDL
MODEL 3
REMARK VINA RESULT:      -6.3      2.413      5.393
REMARK  Name = 
REMARK  15 active torsions:
REMARK  status: ('A' for Active; 'I' for Inactive)
REMARK    1  A    between atoms: C_1  and  C_2
REMARK    2  A    between atoms: C_2  and  C_3
REMARK    3  A    between atoms: C_3  and  C_4
REMARK    4  A    between atoms: C_4  and  C_5
REMARK    5  A    between atoms: C_5  and  C_6
REMARK    6  A    between atoms: C_6  and  C_7
REMARK    7  A    between atoms: C_7  and  C_8
REMARK    8  A    between atoms: C_8  and  O_9
REMARK    9  A    between atoms: C_8  and  C_10
REMARK   10  A    between atoms: C_10  and  C_11
REMARK   11  A    between atoms: C_11  and  C_13
REMARK   12  A    between atoms: C_13  and  C_14
REMARK   13  A    between atoms: C_14  and  C_15
REMARK   14  A    between atoms: C_19  and  O_20
REMARK   15  A    between atoms: O_20  and  C_21
REMARK                            x       y       z     vdW  Elec       q    Type
REMARK                         _______ _______ _______ _____ _____    ______ ____
ROOT
ATOM      1  C   UNL     1       3.131   3.414  17.250  0.00  0.00    +0.000 C 
ATOM      2  O   UNL     1       1.943   3.315  16.926  0.00  0.00    +0.000 OA
ENDROOT
BRANCH   1   3
ATOM      3  C   UNL     1       3.802   2.368  18.125  0.00  0.00    +0.000 C 
BRANCH   3   4
ATOM      4  C   UNL     1       3.948   2.804  19.575  0.00  0.00    +0.000 C 
BRANCH   4   5
ATOM      5  O   UNL     1       5.096   2.204  20.164  0.00  0.00    +0.000 OA
ATOM      6  H   UNL     1       4.826   1.310  20.469  0.00  0.00    +0.000 HD
ENDBRANCH   4   5
BRANCH   4   7
ATOM      7  C   UNL     1       2.686   2.497  20.387  0.00  0.00    +0.000 C 
BRANCH   7   8
ATOM      8  C   UNL     1       1.727   3.677  20.383  0.00  0.00    +0.000 C 
BRANCH   8   9
ATOM      9  C   UNL     1       2.489   4.991  20.502  0.00  0.00    +0.000 C 
BRANCH   9  10
ATOM     10  C   UNL     1       1.511   6.154  20.613  0.00  0.00    +0.000 C 
BRANCH  10  11
ATOM     11  C   UNL     1       2.111   7.428  20.036  0.00  0.00    +0.000 C 
BRANCH  11  13
ATOM     12  C   UNL     1       2.421   8.471  17.778  0.00  0.00    +0.000 C 
ATOM     13  C   UNL     1       2.575   7.205  18.601  0.00  0.00    +0.000 C 
ENDBRANCH  11  13
ENDBRANCH  10  11
ENDBRANCH   9  10
ENDBRANCH   8   9
ENDBRANCH   7   8
ENDBRANCH   4   7
ENDBRANCH   3   4
ENDBRANCH   1   3
BRANCH   1  14
ATOM     14  C   UNL     1       3.949   4.611  16.816  0.00  0.00    +0.000 C 
BRANCH  14  15
ATOM     15  C   UNL     1       5.403   4.231  16.577  0.00  0.00    +0.000 C 
BRANCH  15  16
ATOM     16  C   UNL     1       6.363   5.131  17.296  0.00  0.00    +0.000 A 
ATOM     17  C   UNL     1       7.064   4.664  18.412  0.00  0.00    +0.000 A 
ATOM     18  C   UNL     1       7.895   5.530  19.116  0.00  0.00    +0.000 A 
ATOM     19  C   UNL     1       8.038   6.854  18.701  0.00  0.00    +0.000 A 
ATOM     20  C   UNL     1       7.367   7.326  17.569  0.00  0.00    +0.000 A 
ATOM     21  C   UNL     1       6.538   6.456  16.863  0.00  0.00    +0.000 A 
BRANCH  20  22
ATOM     22  O   UNL     1       7.583   8.643  17.271  0.00  0.00    +0.000 OA
ATOM     23  C   UNL     1       8.434   9.370  18.150  0.00  0.00    +0.000 C 
ENDBRANCH  20  22
ENDBRANCH  15  16
ENDBRANCH  14  15
ENDBRANCH   1  14
TORSDOF 13
ENDMDL
MODEL 4
REMARK VINA RESULT:      -6.3      3.846      6.118
REMARK  Name = 
REMARK  15 active torsions:
REMARK  status: ('A' for Active; 'I' for Inactive)
REMARK    1  A    between atoms: C_1  and  C_2
REMARK    2  A    between atoms: C_2  and  C_3
REMARK    3  A    between atoms: C_3  and  C_4
REMARK    4  A    between atoms: C_4  and  C_5
REMARK    5  A    between atoms: C_5  and  C_6
REMARK    6  A    between atoms: C_6  and  C_7
REMARK    7  A    between atoms: C_7  and  C_8
REMARK    8  A    between atoms: C_8  and  O_9
REMARK    9  A    between atoms: C_8  and  C_10
REMARK   10  A    between atoms: C_10  and  C_11
REMARK   11  A    between atoms: C_11  and  C_13
REMARK   12  A    between atoms: C_13  and  C_14
REMARK   13  A    between atoms: C_14  and  C_15
REMARK   14  A    between atoms: C_19  and  O_20
REMARK   15  A    between atoms: O_20  and  C_21
REMARK                            x       y       z     vdW  Elec       q    Type
REMARK                         _______ _______ _______ _____ _____    ______ ____
ROOT
ATOM      1  C   UNL     1       5.259   5.883  15.985  0.00  0.00    +0.000 C 
ATOM      2  O   UNL     1       5.089   6.795  15.170  0.00  0.00    +0.000 OA
ENDROOT
BRANCH   1   3
ATOM      3  C   UNL     1       5.608   4.474  15.534  0.00  0.00    +0.000 C 
BRANCH   3   4
ATOM      4  C   UNL     1       6.829   4.421  14.628  0.00  0.00    +0.000 C 
BRANCH   4   5
ATOM      5  O   UNL     1       7.680   5.535  14.871  0.00  0.00    +0.000 OA
ATOM      6  H   UNL     1       7.671   5.695  15.839  0.00  0.00    +0.000 HD
ENDBRANCH   4   5
BRANCH   4   7
ATOM      7  C   UNL     1       6.432   4.342  13.151  0.00  0.00    +0.000 C 
BRANCH   7   8
ATOM      8  C   UNL     1       6.582   2.926  12.615  0.00  0.00    +0.000 C 
BRANCH   8   9
ATOM      9  C   UNL     1       5.309   2.480  11.907  0.00  0.00    +0.000 C 
BRANCH   9  10
ATOM     10  C   UNL     1       4.780   3.604  11.025  0.00  0.00    +0.000 C 
BRANCH  10  11
ATOM     11  C   UNL     1       3.274   3.489  10.839  0.00  0.00    +0.000 C 
BRANCH  11  13
ATOM     12  C   UNL     1       2.351   4.983   9.051  0.00  0.00    +0.000 C 
ATOM     13  C   UNL     1       2.901   3.604   9.365  0.00  0.00    +0.000 C 
ENDBRANCH  11  13
ENDBRANCH  10  11
ENDBRANCH   9  10
ENDBRANCH   8   9
ENDBRANCH   7   8
ENDBRANCH   4   7
ENDBRANCH   3   4
ENDBRANCH   1   3
BRANCH   1  14
ATOM     14  C   UNL     1       5.083   6.132  17.468  0.00  0.00    +0.000 C 
BRANCH  14  15
ATOM     15  C   UNL     1       3.769   6.845  17.758  0.00  0.00    +0.000 C 
BRANCH  15  16
ATOM     16  C   UNL     1       2.824   6.011  18.570  0.00  0.00    +0.000 A 
ATOM     17  C   UNL     1       2.586   6.322  19.911  0.00  0.00    +0.000 A 
ATOM     18  C   UNL     1       1.767   5.498  20.676  0.00  0.00    +0.000 A 
ATOM     19  C   UNL     1       1.174   4.374  20.101  0.00  0.00    +0.000 A 
ATOM     20  C   UNL     1       1.379   4.067  18.752  0.00  0.00    +0.000 A 
ATOM     21  C   UNL     1       2.197   4.896  17.988  0.00  0.00    +0.000 A 
BRANCH  20  22
ATOM     22  O   UNL     1       0.751   2.936  18.311  0.00  0.00    +0.000 OA
ATOM     23  C   UNL     1       1.171   1.702  18.882  0.00  0.00    +0.000 C 
ENDBRANCH  20  22
ENDBRANCH  15  16
ENDBRANCH  14  15
ENDBRANCH   1  14
TORSDOF 13
ENDMDL
MODEL 5
REMARK VINA RESULT:      -6.3      2.181      4.512
REMARK  Name = 
REMARK  15 active torsions:
REMARK  status: ('A' for Active; 'I' for Inactive)
REMARK    1  A    between atoms: C_1  and  C_2
REMARK    2  A    between atoms: C_2  and  C_3
REMARK    3  A    between atoms: C_3  and  C_4
REMARK    4  A    between atoms: C_4  and  C_5
REMARK    5  A    between atoms: C_5  and  C_6
REMARK    6  A    between atoms: C_6  and  C_7
REMARK    7  A    between atoms: C_7  and  C_8
REMARK    8  A    between atoms: C_8  and  O_9
REMARK    9  A    between atoms: C_8  and  C_10
REMARK   10  A    between atoms: C_10  and  C_11
REMARK   11  A    between atoms: C_11  and  C_13
REMARK   12  A    between atoms: C_13  and  C_14
REMARK   13  A    between atoms: C_14  and  C_15
REMARK   14  A    between atoms: C_19  and  O_20
REMARK   15  A    between atoms: O_20  and  C_21
REMARK                            x       y       z     vdW  Elec       q    Type
REMARK                         _______ _______ _______ _____ _____    ______ ____
ROOT
ATOM      1  C   UNL     1       2.229   3.364  19.287  0.00  0.00    +0.000 C 
ATOM      2  O   UNL     1       2.624   2.362  19.890  0.00  0.00    +0.000 OA
ENDROOT
BRANCH   1   3
ATOM      3  C   UNL     1       2.376   3.490  17.779  0.00  0.00    +0.000 C 
BRANCH   3   4
ATOM      4  C   UNL     1       3.775   3.150  17.284  0.00  0.00    +0.000 C 
BRANCH   4   5
ATOM      5  O   UNL     1       4.174   1.869  17.759  0.00  0.00    +0.000 OA
ATOM      6  H   UNL     1       3.478   1.565  18.380  0.00  0.00    +0.000 HD
ENDBRANCH   4   5
BRANCH   4   7
ATOM      7  C   UNL     1       4.790   4.227  17.679  0.00  0.00    +0.000 C 
BRANCH   7   8
ATOM      8  C   UNL     1       5.119   5.131  16.502  0.00  0.00    +0.000 C 
BRANCH   8   9
ATOM      9  C   UNL     1       6.558   5.625  16.587  0.00  0.00    +0.000 C 
BRANCH   9  10
ATOM     10  C   UNL     1       7.102   5.406  17.994  0.00  0.00    +0.000 C 
BRANCH  10  11
ATOM     11  C   UNL     1       7.850   6.637  18.486  0.00  0.00    +0.000 C 
BRANCH  11  13
ATOM     12  C   UNL     1       8.270   9.075  18.083  0.00  0.00    +0.000 C 
ATOM     13  C   UNL     1       7.679   7.798  17.514  0.00  0.00    +0.000 C 
ENDBRANCH  11  13
ENDBRANCH  10  11
ENDBRANCH   9  10
ENDBRANCH   8   9
ENDBRANCH   7   8
ENDBRANCH   4   7
ENDBRANCH   3   4
ENDBRANCH   1   3
BRANCH   1  14
ATOM     14  C   UNL     1       1.618   4.525  20.042  0.00  0.00    +0.000 C 
BRANCH  14  15
ATOM     15  C   UNL     1       2.639   5.627  20.285  0.00  0.00    +0.000 C 
BRANCH  15  16
ATOM     16  C   UNL     1       2.282   6.911  19.597  0.00  0.00    +0.000 A 
ATOM     17  C   UNL     1       2.722   7.156  18.293  0.00  0.00    +0.000 A 
ATOM     18  C   UNL     1       2.449   8.380  17.691  0.00  0.00    +0.000 A 
ATOM     19  C   UNL     1       1.726   9.353  18.383  0.00  0.00    +0.000 A 
ATOM     20  C   UNL     1       1.254   9.110  19.677  0.00  0.00    +0.000 A 
ATOM     21  C   UNL     1       1.526   7.881  20.275  0.00  0.00    +0.000 A 
BRANCH  20  22
ATOM     22  O   UNL     1       0.568  10.144  20.249  0.00  0.00    +0.000 OA
ATOM     23  C   UNL     1       0.676  10.285  21.661  0.00  0.00    +0.000 C 
ENDBRANCH  20  22
ENDBRANCH  15  16
ENDBRANCH  14  15
ENDBRANCH   1  14
TORSDOF 13
ENDMDL
MODEL 6
REMARK VINA RESULT:      -6.2      2.087      4.536
REMARK  Name = 
REMARK  15 active torsions:
REMARK  status: ('A' for Active; 'I' for Inactive)
REMARK    1  A    between atoms: C_1  and  C_2
REMARK    2  A    between atoms: C_2  and  C_3
REMARK    3  A    between atoms: C_3  and  C_4
REMARK    4  A    between atoms: C_4  and  C_5
REMARK    5  A    between atoms: C_5  and  C_6
REMARK    6  A    between atoms: C_6  and  C_7
REMARK    7  A    between atoms: C_7  and  C_8
REMARK    8  A    between atoms: C_8  and  O_9
REMARK    9  A    between atoms: C_8  and  C_10
REMARK   10  A    between atoms: C_10  and  C_11
REMARK   11  A    between atoms: C_11  and  C_13
REMARK   12  A    between atoms: C_13  and  C_14
REMARK   13  A    between atoms: C_14  and  C_15
REMARK   14  A    between atoms: C_19  and  O_20
REMARK   15  A    between atoms: O_20  and  C_21
REMARK                            x       y       z     vdW  Elec       q    Type
REMARK                         _______ _______ _______ _____ _____    ______ ____
ROOT
ATOM      1  C   UNL     1       2.074   3.418  20.520  0.00  0.00    +0.000 C 
ATOM      2  O   UNL     1       3.031   2.791  20.984  0.00  0.00    +0.000 OA
ENDROOT
BRANCH   1   3
ATOM      3  C   UNL     1       1.109   2.777  19.535  0.00  0.00    +0.000 C 
BRANCH   3   4
ATOM      4  C   UNL     1       1.778   2.343  18.239  0.00  0.00    +0.000 C 
BRANCH   4   5
ATOM      5  O   UNL     1       2.736   1.321  18.489  0.00  0.00    +0.000 OA
ATOM      6  H   UNL     1       2.728   1.153  19.456  0.00  0.00    +0.000 HD
ENDBRANCH   4   5
BRANCH   4   7
ATOM      7  C   UNL     1       2.413   3.529  17.508  0.00  0.00    +0.000 C 
BRANCH   7   8
ATOM      8  C   UNL     1       3.871   3.254  17.175  0.00  0.00    +0.000 C 
BRANCH   8   9
ATOM      9  C   UNL     1       4.758   4.400  17.647  0.00  0.00    +0.000 C 
BRANCH   9  10
ATOM     10  C   UNL     1       5.040   5.352  16.491  0.00  0.00    +0.000 C 
BRANCH  10  11
ATOM     11  C   UNL     1       5.166   4.592  15.178  0.00  0.00    +0.000 C 
BRANCH  11  13
ATOM     12  C   UNL     1       7.184   4.865  13.717  0.00  0.00    +0.000 C 
ATOM     13  C   UNL     1       6.609   4.166  14.936  0.00  0.00    +0.000 C 
ENDBRANCH  11  13
ENDBRANCH  10  11
ENDBRANCH   9  10
ENDBRANCH   8   9
ENDBRANCH   7   8
ENDBRANCH   4   7
ENDBRANCH   3   4
ENDBRANCH   1   3
BRANCH   1  14
ATOM     14  C   UNL     1       1.854   4.870  20.888  0.00  0.00    +0.000 C 
BRANCH  14  15
ATOM     15  C   UNL     1       2.903   5.769  20.248  0.00  0.00    +0.000 C 
BRANCH  15  16
ATOM     16  C   UNL     1       2.317   7.020  19.667  0.00  0.00    +0.000 A 
ATOM     17  C   UNL     1       2.506   7.325  18.316  0.00  0.00    +0.000 A 
ATOM     18  C   UNL     1       2.023   8.525  17.804  0.00  0.00    +0.000 A 
ATOM     19  C   UNL     1       1.339   9.413  18.635  0.00  0.00    +0.000 A 
ATOM     20  C   UNL     1       1.115   9.108  19.981  0.00  0.00    +0.000 A 
ATOM     21  C   UNL     1       1.598   7.904  20.490  0.00  0.00    +0.000 A 
BRANCH  20  22
ATOM     22  O   UNL     1       0.442  10.063  20.690  0.00  0.00    +0.000 OA
ATOM     23  C   UNL     1      -0.468  10.882  19.964  0.00  0.00    +0.000 C 
ENDBRANCH  20  22
ENDBRANCH  15  16
ENDBRANCH  14  15
ENDBRANCH   1  14
TORSDOF 13
ENDMDL
MODEL 7
REMARK VINA RESULT:      -6.2      1.405      2.027
REMARK  Name = 
REMARK  15 active torsions:
REMARK  status: ('A' for Active; 'I' for Inactive)
REMARK    1  A    between atoms: C_1  and  C_2
REMARK    2  A    between atoms: C_2  and  C_3
REMARK    3  A    between atoms: C_3  and  C_4
REMARK    4  A    between atoms: C_4  and  C_5
REMARK    5  A    between atoms: C_5  and  C_6
REMARK    6  A    between atoms: C_6  and  C_7
REMARK    7  A    between atoms: C_7  and  C_8
REMARK    8  A    between atoms: C_8  and  O_9
REMARK    9  A    between atoms: C_8  and  C_10
REMARK   10  A    between atoms: C_10  and  C_11
REMARK   11  A    between atoms: C_11  and  C_13
REMARK   12  A    between atoms: C_13  and  C_14
REMARK   13  A    between atoms: C_14  and  C_15
REMARK   14  A    between atoms: C_19  and  O_20
REMARK   15  A    between atoms: O_20  and  C_21
REMARK                            x       y       z     vdW  Elec       q    Type
REMARK                         _______ _______ _______ _____ _____    ______ ____
ROOT
ATOM      1  C   UNL     1       4.310   6.253  17.880  0.00  0.00    +0.000 C 
ATOM      2  O   UNL     1       4.808   6.571  16.796  0.00  0.00    +0.000 OA
ENDROOT
BRANCH   1   3
ATOM      3  C   UNL     1       5.135   5.574  18.962  0.00  0.00    +0.000 C 
BRANCH   3   4
ATOM      4  C   UNL     1       5.514   4.142  18.615  0.00  0.00    +0.000 C 
BRANCH   4   5
ATOM      5  O   UNL     1       5.972   4.059  17.270  0.00  0.00    +0.000 OA
ATOM      6  H   UNL     1       5.656   3.201  16.913  0.00  0.00    +0.000 HD
ENDBRANCH   4   5
BRANCH   4   7
ATOM      7  C   UNL     1       4.353   3.175  18.864  0.00  0.00    +0.000 C 
BRANCH   7   8
ATOM      8  C   UNL     1       3.640   2.825  17.567  0.00  0.00    +0.000 C 
BRANCH   8   9
ATOM      9  C   UNL     1       2.336   2.089  17.850  0.00  0.00    +0.000 C 
BRANCH   9  10
ATOM     10  C   UNL     1       2.020   2.142  19.340  0.00  0.00    +0.000 C 
BRANCH  10  11
ATOM     11  C   UNL     1       0.742   2.929  19.597  0.00  0.00    +0.000 C 
BRANCH  11  13
ATOM     12  C   UNL     1       2.124   3.944  21.425  0.00  0.00    +0.000 C 
ATOM     13  C   UNL     1       1.037   4.193  20.396  0.00  0.00    +0.000 C 
ENDBRANCH  11  13
ENDBRANCH  10  11
ENDBRANCH   9  10
ENDBRANCH   8   9
ENDBRANCH   7   8
ENDBRANCH   4   7
ENDBRANCH   3   4
ENDBRANCH   1   3
BRANCH   1  14
ATOM     14  C   UNL     1       2.840   6.494  18.152  0.00  0.00    +0.000 C 
BRANCH  14  15
ATOM     15  C   UNL     1       2.460   7.946  17.900  0.00  0.00    +0.000 C 
BRANCH  15  16
ATOM     16  C   UNL     1       1.732   8.563  19.056  0.00  0.00    +0.000 A 
ATOM     17  C   UNL     1       1.732   7.935  20.304  0.00  0.00    +0.000 A 
ATOM     18  C   UNL     1       0.991   8.476  21.350  0.00  0.00    +0.000 A 
ATOM     19  C   UNL     1       0.263   9.650  21.155  0.00  0.00    +0.000 A 
ATOM     20  C   UNL     1       0.277  10.306  19.920  0.00  0.00    +0.000 A 
ATOM     21  C   UNL     1       1.023   9.763  18.876  0.00  0.00    +0.000 A 
BRANCH  20  22
ATOM     22  O   UNL     1      -0.484  11.439  19.854  0.00  0.00    +0.000 OA
ATOM     23  C   UNL     1      -1.692  11.362  19.106  0.00  0.00    +0.000 C 
ENDBRANCH  20  22
ENDBRANCH  15  16
ENDBRANCH  14  15
ENDBRANCH   1  14
TORSDOF 13
ENDMDL
MODEL 8
REMARK VINA RESULT:      -6.1      3.680      6.006
REMARK  Name = 
REMARK  15 active torsions:
REMARK  status: ('A' for Active; 'I' for Inactive)
REMARK    1  A    between atoms: C_1  and  C_2
REMARK    2  A    between atoms: C_2  and  C_3
REMARK    3  A    between atoms: C_3  and  C_4
REMARK    4  A    between atoms: C_4  and  C_5
REMARK    5  A    between atoms: C_5  and  C_6
REMARK    6  A    between atoms: C_6  and  C_7
REMARK    7  A    between atoms: C_7  and  C_8
REMARK    8  A    between atoms: C_8  and  O_9
REMARK    9  A    between atoms: C_8  and  C_10
REMARK   10  A    between atoms: C_10  and  C_11
REMARK   11  A    between atoms: C_11  and  C_13
REMARK   12  A    between atoms: C_13  and  C_14
REMARK   13  A    between atoms: C_14  and  C_15
REMARK   14  A    between atoms: C_19  and  O_20
REMARK   15  A    between atoms: O_20  and  C_21
REMARK                            x       y       z     vdW  Elec       q    Type
REMARK                         _______ _______ _______ _____ _____    ______ ____
ROOT
ATOM      1  C   UNL     1       5.585   5.911  16.382  0.00  0.00    +0.000 C 
ATOM      2  O   UNL     1       5.128   6.725  15.574  0.00  0.00    +0.000 OA
ENDROOT
BRANCH   1   3
ATOM      3  C   UNL     1       5.763   4.446  16.015  0.00  0.00    +0.000 C 
BRANCH   3   4
ATOM      4  C   UNL     1       6.758   4.229  14.885  0.00  0.00    +0.000 C 
BRANCH   4   5
ATOM      5  O   UNL     1       7.678   5.313  14.815  0.00  0.00    +0.000 OA
ATOM      6  H   UNL     1       8.501   4.963  14.410  0.00  0.00    +0.000 HD
ENDBRANCH   4   5
BRANCH   4   7
ATOM      7  C   UNL     1       6.051   4.018  13.543  0.00  0.00    +0.000 C 
BRANCH   7   8
ATOM      8  C   UNL     1       7.051   3.746  12.430  0.00  0.00    +0.000 C 
BRANCH   8   9
ATOM      9  C   UNL     1       6.435   2.853  11.359  0.00  0.00    +0.000 C 
BRANCH   9  10
ATOM     10  C   UNL     1       4.947   2.666  11.627  0.00  0.00    +0.000 C 
BRANCH  10  11
ATOM     11  C   UNL     1       4.155   3.884  11.173  0.00  0.00    +0.000 C 
BRANCH  11  13
ATOM     12  C   UNL     1       2.648   4.720   9.353  0.00  0.00    +0.000 C 
ATOM     13  C   UNL     1       3.131   3.498  10.112  0.00  0.00    +0.000 C 
ENDBRANCH  11  13
ENDBRANCH  10  11
ENDBRANCH   9  10
ENDBRANCH   8   9
ENDBRANCH   7   8
ENDBRANCH   4   7
ENDBRANCH   3   4
ENDBRANCH   1   3
BRANCH   1  14
ATOM     14  C   UNL     1       5.946   6.341  17.787  0.00  0.00    +0.000 C 
BRANCH  14  15
ATOM     15  C   UNL     1       5.775   5.199  18.778  0.00  0.00    +0.000 C 
BRANCH  15  16
ATOM     16  C   UNL     1       4.360   5.048  19.252  0.00  0.00    +0.000 A 
ATOM     17  C   UNL     1       3.522   6.164  19.328  0.00  0.00    +0.000 A 
ATOM     18  C   UNL     1       2.235   6.027  19.840  0.00  0.00    +0.000 A 
ATOM     19  C   UNL     1       1.780   4.777  20.261  0.00  0.00    +0.000 A 
ATOM     20  C   UNL     1       2.598   3.647  20.163  0.00  0.00    +0.000 A 
ATOM     21  C   UNL     1       3.885   3.787  19.646  0.00  0.00    +0.000 A 
BRANCH  20  22
ATOM     22  O   UNL     1       2.040   2.484  20.617  0.00  0.00    +0.000 OA
ATOM     23  C   UNL     1       1.270   2.563  21.811  0.00  0.00    +0.000 C 
ENDBRANCH  20  22
ENDBRANCH  15  16
ENDBRANCH  14  15
ENDBRANCH   1  14
TORSDOF 13
ENDMDL
MODEL 9
REMARK VINA RESULT:      -6.1      5.353      6.572
REMARK  Name = 
REMARK  15 active torsions:
REMARK  status: ('A' for Active; 'I' for Inactive)
REMARK    1  A    between atoms: C_1  and  C_2
REMARK    2  A    between atoms: C_2  and  C_3
REMARK    3  A    between atoms: C_3  and  C_4
REMARK    4  A    between atoms: C_4  and  C_5
REMARK    5  A    between atoms: C_5  and  C_6
REMARK    6  A    between atoms: C_6  and  C_7
REMARK    7  A    between atoms: C_7  and  C_8
REMARK    8  A    between atoms: C_8  and  O_9
REMARK    9  A    between atoms: C_8  and  C_10
REMARK   10  A    between atoms: C_10  and  C_11
REMARK   11  A    between atoms: C_11  and  C_13
REMARK   12  A    between atoms: C_13  and  C_14
REMARK   13  A    between atoms: C_14  and  C_15
REMARK   14  A    between atoms: C_19  and  O_20
REMARK   15  A    between atoms: O_20  and  C_21
REMARK                            x       y       z     vdW  Elec       q    Type
REMARK                         _______ _______ _______ _____ _____    ______ ____
ROOT
ATOM      1  C   UNL     1       7.605   7.159  17.918  0.00  0.00    +0.000 C 
ATOM      2  O   UNL     1       6.776   7.478  17.059  0.00  0.00    +0.000 OA
ENDROOT
BRANCH   1   3
ATOM      3  C   UNL     1       7.724   5.726  18.409  0.00  0.00    +0.000 C 
BRANCH   3   4
ATOM      4  C   UNL     1       7.264   4.701  17.383  0.00  0.00    +0.000 C 
BRANCH   4   5
ATOM      5  O   UNL     1       7.566   5.144  16.065  0.00  0.00    +0.000 OA
ATOM      6  H   UNL     1       8.522   5.365  16.050  0.00  0.00    +0.000 HD
ENDBRANCH   4   5
BRANCH   4   7
ATOM      7  C   UNL     1       5.772   4.386  17.531  0.00  0.00    +0.000 C 
BRANCH   7   8
ATOM      8  C   UNL     1       5.352   4.381  18.993  0.00  0.00    +0.000 C 
BRANCH   8   9
ATOM      9  C   UNL     1       4.150   5.291  19.211  0.00  0.00    +0.000 C 
BRANCH   9  10
ATOM     10  C   UNL     1       2.992   4.494  19.799  0.00  0.00    +0.000 C 
BRANCH  10  11
ATOM     11  C   UNL     1       1.761   4.584  18.907  0.00  0.00    +0.000 C 
BRANCH  11  13
ATOM     12  C   UNL     1       2.356   2.409  17.815  0.00  0.00    +0.000 C 
ATOM     13  C   UNL     1       1.998   3.865  17.584  0.00  0.00    +0.000 C 
ENDBRANCH  11  13
ENDBRANCH  10  11
ENDBRANCH   9  10
ENDBRANCH   8   9
ENDBRANCH   7   8
ENDBRANCH   4   7
ENDBRANCH   3   4
ENDBRANCH   1   3
BRANCH   1  14
ATOM     14  C   UNL     1       8.505   8.203  18.542  0.00  0.00    +0.000 C 
BRANCH  14  15
ATOM     15  C   UNL     1       8.326   9.561  17.877  0.00  0.00    +0.000 C 
BRANCH  15  16
ATOM     16  C   UNL     1       9.096  10.649  18.562  0.00  0.00    +0.000 A 
ATOM     17  C   UNL     1       9.481  10.504  19.898  0.00  0.00    +0.000 A 
ATOM     18  C   UNL     1      10.130  11.550  20.547  0.00  0.00    +0.000 A 
ATOM     19  C   UNL     1      10.408  12.732  19.860  0.00  0.00    +0.000 A 
ATOM     20  C   UNL     1      10.056  12.880  18.515  0.00  0.00    +0.000 A 
ATOM     21  C   UNL     1       9.410  11.829  17.867  0.00  0.00    +0.000 A 
BRANCH  20  22
ATOM     22  O   UNL     1      10.374  14.087  17.959  0.00  0.00    +0.000 OA
ATOM     23  C   UNL     1      11.596  14.686  18.376  0.00  0.00    +0.000 C 
ENDBRANCH  20  22
ENDBRANCH  15  16
ENDBRANCH  14  15
ENDBRANCH   1  14
TORSDOF 13
ENDMDL
