MODEL 1
REMARK VINA RESULT:      -7.2      0.000      0.000
REMARK  Name = 
REMARK  2 active torsions:
REMARK  status: ('A' for Active; 'I' for Inactive)
REMARK    1  A    between atoms: C_1  and  N_2
REMARK    2  A    between atoms: C_6  and  C_7
REMARK                            x       y       z     vdW  Elec       q    Type
REMARK                         _______ _______ _______ _____ _____    ______ ____
ROOT
ATOM      1  C   UNL     1       4.639   4.775  17.335  0.00  0.00    +0.000 A 
ATOM      2  C   UNL     1       3.661   5.761  17.522  0.00  0.00    +0.000 A 
ATOM      3  C   UNL     1       2.719   5.678  18.560  0.00  0.00    +0.000 A 
ATOM      4  C   UNL     1       2.744   4.580  19.440  0.00  0.00    +0.000 A 
ATOM      5  N   UNL     1       1.889   4.359  20.507  0.00  0.00    +0.000 NA
ATOM      6  C   UNL     1       2.217   3.251  21.123  0.00  0.00    +0.000 A 
ATOM      7  N   UNL     1       1.574   2.795  22.210  0.00  0.00    +0.000 N 
ATOM      8  S   UNL     1       3.531   2.384  20.447  0.00  0.00    +0.000 S 
ATOM      9  C   UNL     1       3.722   3.606  19.253  0.00  0.00    +0.000 A 
ATOM     10  C   UNL     1       4.681   3.694  18.228  0.00  0.00    +0.000 A 
ATOM     11  H   UNL     1       0.672   3.211  22.401  0.00  0.00    +0.000 HD
ATOM     12  H   UNL     1       1.649   1.812  22.437  0.00  0.00    +0.000 HD
ENDROOT
BRANCH   1  18
ATOM     13  C   UNL     1       7.332   6.461  17.350  0.00  0.00    +0.000 C 
ATOM     14  N   UNL     1       6.782   5.675  16.269  0.00  0.00    +0.000 N 
ATOM     15  N   UNL     1       7.484   5.625  15.116  0.00  0.00    +0.000 NA
ATOM     16  C   UNL     1       6.783   4.790  14.349  0.00  0.00    +0.000 A 
ATOM     17  C   UNL     1       5.634   4.318  14.999  0.00  0.00    +0.000 A 
ATOM     18  C   UNL     1       5.625   4.916  16.251  0.00  0.00    +0.000 A 
ENDBRANCH   1  18
TORSDOF 1
ENDMDL
MODEL 2
REMARK VINA RESULT:      -7.1      2.133      6.128
REMARK  Name = 
REMARK  2 active torsions:
REMARK  status: ('A' for Active; 'I' for Inactive)
REMARK    1  A    between atoms: C_1  and  N_2
REMARK    2  A    between atoms: C_6  and  C_7
REMARK                            x       y       z     vdW  Elec       q    Type
REMARK                         _______ _______ _______ _____ _____    ______ ____
ROOT
ATOM      1  C   UNL     1       4.156   4.347  18.050  0.00  0.00    +0.000 A 
ATOM      2  C   UNL     1       5.019   5.306  18.598  0.00  0.00    +0.000 A 
ATOM      3  C   UNL     1       6.090   5.839  17.864  0.00  0.00    +0.000 A 
ATOM      4  C   UNL     1       6.317   5.407  16.544  0.00  0.00    +0.000 A 
ATOM      5  N   UNL     1       7.324   5.837  15.697  0.00  0.00    +0.000 NA
ATOM      6  C   UNL     1       7.220   5.242  14.536  0.00  0.00    +0.000 A 
ATOM      7  N   UNL     1       8.050   5.480  13.508  0.00  0.00    +0.000 N 
ATOM      8  S   UNL     1       5.948   4.102  14.395  0.00  0.00    +0.000 S 
ATOM      9  C   UNL     1       5.452   4.458  16.002  0.00  0.00    +0.000 A 
ATOM     10  C   UNL     1       4.365   3.935  16.726  0.00  0.00    +0.000 A 
ATOM     11  H   UNL     1       8.910   5.963  13.733  0.00  0.00    +0.000 HD
ATOM     12  H   UNL     1       8.129   4.783  12.780  0.00  0.00    +0.000 HD
ENDROOT
BRANCH   1  18
ATOM     13  C   UNL     1       4.227   2.182  20.376  0.00  0.00    +0.000 C 
ATOM     14  N   UNL     1       3.076   2.874  19.841  0.00  0.00    +0.000 N 
ATOM     15  N   UNL     1       1.873   2.594  20.386  0.00  0.00    +0.000 NA
ATOM     16  C   UNL     1       1.035   3.415  19.754  0.00  0.00    +0.000 A 
ATOM     17  C   UNL     1       1.692   4.207  18.801  0.00  0.00    +0.000 A 
ATOM     18  C   UNL     1       3.028   3.835  18.846  0.00  0.00    +0.000 A 
ENDBRANCH   1  18
TORSDOF 1
ENDMDL
MODEL 3
REMARK VINA RESULT:      -7.0      1.981      6.116
REMARK  Name = 
REMARK  2 active torsions:
REMARK  status: ('A' for Active; 'I' for Inactive)
REMARK    1  A    between atoms: C_1  and  N_2
REMARK    2  A    between atoms: C_6  and  C_7
REMARK                            x       y       z     vdW  Elec       q    Type
REMARK                         _______ _______ _______ _____ _____    ______ ____
ROOT
ATOM      1  C   UNL     1       4.309   4.170  18.451  0.00  0.00    +0.000 A 
ATOM      2  C   UNL     1       5.422   4.793  19.031  0.00  0.00    +0.000 A 
ATOM      3  C   UNL     1       6.504   5.239  18.254  0.00  0.00    +0.000 A 
ATOM      4  C   UNL     1       6.484   5.059  16.859  0.00  0.00    +0.000 A 
ATOM      5  N   UNL     1       7.468   5.444  15.964  0.00  0.00    +0.000 NA
ATOM      6  C   UNL     1       7.107   5.142  14.742  0.00  0.00    +0.000 A 
ATOM      7  N   UNL     1       7.856   5.418  13.662  0.00  0.00    +0.000 N 
ATOM      8  S   UNL     1       5.599   4.343  14.587  0.00  0.00    +0.000 S 
ATOM      9  C   UNL     1       5.372   4.445  16.288  0.00  0.00    +0.000 A 
ATOM     10  C   UNL     1       4.276   4.014  17.058  0.00  0.00    +0.000 A 
ATOM     11  H   UNL     1       8.824   5.655  13.841  0.00  0.00    +0.000 HD
ATOM     12  H   UNL     1       7.695   4.889  12.815  0.00  0.00    +0.000 HD
ENDROOT
BRANCH   1  18
ATOM     13  C   UNL     1       2.176   6.000  19.935  0.00  0.00    +0.000 C 
ATOM     14  N   UNL     1       2.278   4.558  19.957  0.00  0.00    +0.000 N 
ATOM     15  N   UNL     1       1.361   3.880  20.680  0.00  0.00    +0.000 NA
ATOM     16  C   UNL     1       1.659   2.601  20.459  0.00  0.00    +0.000 A 
ATOM     17  C   UNL     1       2.767   2.457  19.611  0.00  0.00    +0.000 A 
ATOM     18  C   UNL     1       3.184   3.744  19.300  0.00  0.00    +0.000 A 
ENDBRANCH   1  18
TORSDOF 1
ENDMDL
MODEL 4
REMARK VINA RESULT:      -6.6      2.012      6.017
REMARK  Name = 
REMARK  2 active torsions:
REMARK  status: ('A' for Active; 'I' for Inactive)
REMARK    1  A    between atoms: C_1  and  N_2
REMARK    2  A    between atoms: C_6  and  C_7
REMARK                            x       y       z     vdW  Elec       q    Type
REMARK                         _______ _______ _______ _____ _____    ______ ____
ROOT
ATOM      1  C   UNL     1       3.208   4.425  17.944  0.00  0.00    +0.000 A 
ATOM      2  C   UNL     1       3.334   5.820  17.974  0.00  0.00    +0.000 A 
ATOM      3  C   UNL     1       4.300   6.489  17.205  0.00  0.00    +0.000 A 
ATOM      4  C   UNL     1       5.172   5.752  16.382  0.00  0.00    +0.000 A 
ATOM      5  N   UNL     1       6.168   6.265  15.569  0.00  0.00    +0.000 NA
ATOM      6  C   UNL     1       6.767   5.294  14.926  0.00  0.00    +0.000 A 
ATOM      7  N   UNL     1       7.762   5.495  14.047  0.00  0.00    +0.000 N 
ATOM      8  S   UNL     1       6.213   3.712  15.282  0.00  0.00    +0.000 S 
ATOM      9  C   UNL     1       5.036   4.366  16.352  0.00  0.00    +0.000 A 
ATOM     10  C   UNL     1       4.058   3.691  17.104  0.00  0.00    +0.000 A 
ATOM     11  H   UNL     1       8.201   6.407  14.073  0.00  0.00    +0.000 HD
ATOM     12  H   UNL     1       8.386   4.726  13.841  0.00  0.00    +0.000 HD
ENDROOT
BRANCH   1  18
ATOM     13  C   UNL     1       2.199   5.198  20.857  0.00  0.00    +0.000 C 
ATOM     14  N   UNL     1       1.752   4.106  20.023  0.00  0.00    +0.000 N 
ATOM     15  N   UNL     1       0.780   3.306  20.513  0.00  0.00    +0.000 NA
ATOM     16  C   UNL     1       0.533   2.455  19.518  0.00  0.00    +0.000 A 
ATOM     17  C   UNL     1       1.348   2.696  18.403  0.00  0.00    +0.000 A 
ATOM     18  C   UNL     1       2.162   3.767  18.745  0.00  0.00    +0.000 A 
ENDBRANCH   1  18
TORSDOF 1
ENDMDL
MODEL 5
REMARK VINA RESULT:      -6.6      1.883      6.130
REMARK  Name = 
REMARK  2 active torsions:
REMARK  status: ('A' for Active; 'I' for Inactive)
REMARK    1  A    between atoms: C_1  and  N_2
REMARK    2  A    between atoms: C_6  and  C_7
REMARK                            x       y       z     vdW  Elec       q    Type
REMARK                         _______ _______ _______ _____ _____    ______ ____
ROOT
ATOM      1  C   UNL     1       3.495   4.640  18.606  0.00  0.00    +0.000 A 
ATOM      2  C   UNL     1       3.419   6.016  18.349  0.00  0.00    +0.000 A 
ATOM      3  C   UNL     1       4.156   6.614  17.314  0.00  0.00    +0.000 A 
ATOM      4  C   UNL     1       4.998   5.824  16.509  0.00  0.00    +0.000 A 
ATOM      5  N   UNL     1       5.782   6.265  15.456  0.00  0.00    +0.000 NA
ATOM      6  C   UNL     1       6.417   5.255  14.916  0.00  0.00    +0.000 A 
ATOM      7  N   UNL     1       7.235   5.380  13.859  0.00  0.00    +0.000 N 
ATOM      8  S   UNL     1       6.157   3.731  15.654  0.00  0.00    +0.000 S 
ATOM      9  C   UNL     1       5.064   4.457  16.765  0.00  0.00    +0.000 A 
ATOM     10  C   UNL     1       4.313   3.848  17.787  0.00  0.00    +0.000 A 
ATOM     11  H   UNL     1       7.535   6.321  13.636  0.00  0.00    +0.000 HD
ATOM     12  H   UNL     1       7.929   4.661  13.698  0.00  0.00    +0.000 HD
ENDROOT
BRANCH   1  18
ATOM     13  C   UNL     1       1.324   2.330  18.377  0.00  0.00    +0.000 C 
ATOM     14  N   UNL     1       1.725   3.059  19.559  0.00  0.00    +0.000 N 
ATOM     15  N   UNL     1       1.127   2.731  20.725  0.00  0.00    +0.000 NA
ATOM     16  C   UNL     1       1.735   3.502  21.626  0.00  0.00    +0.000 A 
ATOM     17  C   UNL     1       2.706   4.328  21.043  0.00  0.00    +0.000 A 
ATOM     18  C   UNL     1       2.683   4.051  19.683  0.00  0.00    +0.000 A 
ENDBRANCH   1  18
TORSDOF 1
ENDMDL
MODEL 6
REMARK VINA RESULT:      -6.4      1.332      1.789
REMARK  Name = 
REMARK  2 active torsions:
REMARK  status: ('A' for Active; 'I' for Inactive)
REMARK    1  A    between atoms: C_1  and  N_2
REMARK    2  A    between atoms: C_6  and  C_7
REMARK                            x       y       z     vdW  Elec       q    Type
REMARK                         _______ _______ _______ _____ _____    ______ ____
ROOT
ATOM      1  C   UNL     1       4.640   3.654  17.321  0.00  0.00    +0.000 A 
ATOM      2  C   UNL     1       4.141   2.361  17.111  0.00  0.00    +0.000 A 
ATOM      3  C   UNL     1       3.245   1.762  18.011  0.00  0.00    +0.000 A 
ATOM      4  C   UNL     1       2.833   2.465  19.159  0.00  0.00    +0.000 A 
ATOM      5  N   UNL     1       1.959   2.012  20.133  0.00  0.00    +0.000 NA
ATOM      6  C   UNL     1       1.783   2.937  21.043  0.00  0.00    +0.000 A 
ATOM      7  N   UNL     1       0.968   2.786  22.099  0.00  0.00    +0.000 N 
ATOM      8  S   UNL     1       2.678   4.381  20.821  0.00  0.00    +0.000 S 
ATOM      9  C   UNL     1       3.327   3.752  19.358  0.00  0.00    +0.000 A 
ATOM     10  C   UNL     1       4.209   4.365  18.450  0.00  0.00    +0.000 A 
ATOM     11  H   UNL     1       0.672   1.839  22.302  0.00  0.00    +0.000 HD
ATOM     12  H   UNL     1       1.117   3.370  22.912  0.00  0.00    +0.000 HD
ENDROOT
BRANCH   1  18
ATOM     13  C   UNL     1       7.613   4.677  17.784  0.00  0.00    +0.000 C 
ATOM     14  N   UNL     1       6.841   4.715  16.563  0.00  0.00    +0.000 N 
ATOM     15  N   UNL     1       7.434   5.234  15.466  0.00  0.00    +0.000 NA
ATOM     16  C   UNL     1       6.527   5.074  14.504  0.00  0.00    +0.000 A 
ATOM     17  C   UNL     1       5.355   4.469  14.980  0.00  0.00    +0.000 A 
ATOM     18  C   UNL     1       5.555   4.254  16.336  0.00  0.00    +0.000 A 
ENDBRANCH   1  18
TORSDOF 1
ENDMDL
MODEL 7
REMARK VINA RESULT:      -6.3      2.089      6.121
REMARK  Name = 
REMARK  2 active torsions:
REMARK  status: ('A' for Active; 'I' for Inactive)
REMARK    1  A    between atoms: C_1  and  N_2
REMARK    2  A    between atoms: C_6  and  C_7
REMARK                            x       y       z     vdW  Elec       q    Type
REMARK                         _______ _______ _______ _____ _____    ______ ____
ROOT
ATOM      1  C   UNL     1       3.781   3.749  18.669  0.00  0.00    +0.000 A 
ATOM      2  C   UNL     1       3.125   3.467  17.463  0.00  0.00    +0.000 A 
ATOM      3  C   UNL     1       3.724   3.727  16.220  0.00  0.00    +0.000 A 
ATOM      4  C   UNL     1       5.014   4.287  16.169  0.00  0.00    +0.000 A 
ATOM      5  N   UNL     1       5.734   4.598  15.028  0.00  0.00    +0.000 NA
ATOM      6  C   UNL     1       6.906   5.081  15.354  0.00  0.00    +0.000 A 
ATOM      7  N   UNL     1       7.829   5.449  14.450  0.00  0.00    +0.000 N 
ATOM      8  S   UNL     1       7.207   5.238  17.034  0.00  0.00    +0.000 S 
ATOM      9  C   UNL     1       5.663   4.559  17.371  0.00  0.00    +0.000 A 
ATOM     10  C   UNL     1       5.077   4.283  18.620  0.00  0.00    +0.000 A 
ATOM     11  H   UNL     1       7.500   5.565  13.500  0.00  0.00    +0.000 HD
ATOM     12  H   UNL     1       8.552   6.097  14.735  0.00  0.00    +0.000 HD
ENDROOT
BRANCH   1  18
ATOM     13  C   UNL     1       4.679   1.623  20.853  0.00  0.00    +0.000 C 
ATOM     14  N   UNL     1       3.521   2.487  20.878  0.00  0.00    +0.000 N 
ATOM     15  N   UNL     1       2.710   2.410  21.955  0.00  0.00    +0.000 NA
ATOM     16  C   UNL     1       1.792   3.350  21.735  0.00  0.00    +0.000 A 
ATOM     17  C   UNL     1       2.003   4.017  20.519  0.00  0.00    +0.000 A 
ATOM     18  C   UNL     1       3.126   3.434  19.949  0.00  0.00    +0.000 A 
ENDBRANCH   1  18
TORSDOF 1
ENDMDL
MODEL 8
REMARK VINA RESULT:      -6.3      3.121      5.142
REMARK  Name = 
REMARK  2 active torsions:
REMARK  status: ('A' for Active; 'I' for Inactive)
REMARK    1  A    between atoms: C_1  and  N_2
REMARK    2  A    between atoms: C_6  and  C_7
REMARK                            x       y       z     vdW  Elec       q    Type
REMARK                         _______ _______ _______ _____ _____    ______ ____
ROOT
ATOM      1  C   UNL     1       2.691   6.894  18.392  0.00  0.00    +0.000 A 
ATOM      2  C   UNL     1       3.875   6.820  17.646  0.00  0.00    +0.000 A 
ATOM      3  C   UNL     1       4.504   5.593  17.382  0.00  0.00    +0.000 A 
ATOM      4  C   UNL     1       3.944   4.400  17.875  0.00  0.00    +0.000 A 
ATOM      5  N   UNL     1       4.442   3.120  17.698  0.00  0.00    +0.000 NA
ATOM      6  C   UNL     1       3.653   2.247  18.272  0.00  0.00    +0.000 A 
ATOM      7  N   UNL     1       3.874   0.923  18.245  0.00  0.00    +0.000 N 
ATOM      8  S   UNL     1       2.297   2.897  19.094  0.00  0.00    +0.000 S 
ATOM      9  C   UNL     1       2.763   4.479  18.610  0.00  0.00    +0.000 A 
ATOM     10  C   UNL     1       2.117   5.703  18.861  0.00  0.00    +0.000 A 
ATOM     11  H   UNL     1       4.803   0.633  17.967  0.00  0.00    +0.000 HD
ATOM     12  H   UNL     1       3.439   0.347  18.953  0.00  0.00    +0.000 HD
ENDROOT
BRANCH   1  18
ATOM     13  C   UNL     1       1.410   8.000  21.082  0.00  0.00    +0.000 C 
ATOM     14  N   UNL     1       1.477   8.654  19.795  0.00  0.00    +0.000 N 
ATOM     15  N   UNL     1       0.948   9.893  19.699  0.00  0.00    +0.000 NA
ATOM     16  C   UNL     1       1.214  10.260  18.446  0.00  0.00    +0.000 A 
ATOM     17  C   UNL     1       1.897   9.261  17.738  0.00  0.00    +0.000 A 
ATOM     18  C   UNL     1       2.050   8.200  18.620  0.00  0.00    +0.000 A 
ENDBRANCH   1  18
TORSDOF 1
ENDMDL
MODEL 9
REMARK VINA RESULT:      -6.3      2.905      3.654
REMARK  Name = 
REMARK  2 active torsions:
REMARK  status: ('A' for Active; 'I' for Inactive)
REMARK    1  A    between atoms: C_1  and  N_2
REMARK    2  A    between atoms: C_6  and  C_7
REMARK                            x       y       z     vdW  Elec       q    Type
REMARK                         _______ _______ _______ _____ _____    ______ ____
ROOT
ATOM      1  C   UNL     1       4.395   6.200  17.619  0.00  0.00    +0.000 A 
ATOM      2  C   UNL     1       4.064   5.534  18.807  0.00  0.00    +0.000 A 
ATOM      3  C   UNL     1       3.104   6.045  19.695  0.00  0.00    +0.000 A 
ATOM      4  C   UNL     1       2.452   7.256  19.399  0.00  0.00    +0.000 A 
ATOM      5  N   UNL     1       1.487   7.883  20.169  0.00  0.00    +0.000 NA
ATOM      6  C   UNL     1       1.082   8.978  19.578  0.00  0.00    +0.000 A 
ATOM      7  N   UNL     1       0.133   9.782  20.084  0.00  0.00    +0.000 N 
ATOM      8  S   UNL     1       1.854   9.353  18.094  0.00  0.00    +0.000 S 
ATOM      9  C   UNL     1       2.780   7.910  18.213  0.00  0.00    +0.000 A 
ATOM     10  C   UNL     1       3.727   7.393  17.310  0.00  0.00    +0.000 A 
ATOM     11  H   UNL     1      -0.096   9.641  21.060  0.00  0.00    +0.000 HD
ATOM     12  H   UNL     1       0.097  10.743  19.770  0.00  0.00    +0.000 HD
ENDROOT
BRANCH   1  18
ATOM     13  C   UNL     1       7.472   6.941  17.335  0.00  0.00    +0.000 C 
ATOM     14  N   UNL     1       6.720   5.966  16.579  0.00  0.00    +0.000 N 
ATOM     15  N   UNL     1       7.384   5.262  15.636  0.00  0.00    +0.000 NA
ATOM     16  C   UNL     1       6.470   4.414  15.166  0.00  0.00    +0.000 A 
ATOM     17  C   UNL     1       5.226   4.579  15.791  0.00  0.00    +0.000 A 
ATOM     18  C   UNL     1       5.387   5.613  16.703  0.00  0.00    +0.000 A 
ENDBRANCH   1  18
TORSDOF 1
ENDMDL
