MODEL 1
REMARK VINA RESULT:      -7.7      0.000      0.000
REMARK  Name = 
REMARK  5 active torsions:
REMARK  status: ('A' for Active; 'I' for Inactive)
REMARK    1  A    between atoms: C_1  and  C_2
REMARK    2  A    between atoms: C_7  and  C_8
REMARK    3  A    between atoms: C_11  and  C_12
REMARK    4  A    between atoms: N_14  and  C_15
REMARK    5  A    between atoms: C_21  and  C_22
REMARK                            x       y       z     vdW  Elec       q    Type
REMARK                         _______ _______ _______ _____ _____    ______ ____
ROOT
ATOM      1  C   UNL     1       0.178   8.522  21.701  0.00  0.00    +0.000 C 
ATOM      2  C   UNL     1       1.105   8.068  20.606  0.00  0.00    +0.000 A 
ATOM      3  C   UNL     1       1.656   6.785  20.667  0.00  0.00    +0.000 A 
ATOM      4  C   UNL     1       2.529   6.297  19.672  0.00  0.00    +0.000 A 
ATOM      5  C   UNL     1       2.862   7.118  18.577  0.00  0.00    +0.000 A 
ATOM      6  C   UNL     1       2.308   8.418  18.527  0.00  0.00    +0.000 A 
ATOM      7  C   UNL     1       1.437   8.897  19.522  0.00  0.00    +0.000 A 
ATOM      8  C   UNL     1       0.871  10.287  19.406  0.00  0.00    +0.000 C 
ATOM      9  N   UNL     1       3.727   6.628  17.566  0.00  0.00    +0.000 N 
ATOM     10  O   UNL     1       4.020   7.382  16.568  0.00  0.00    +0.000 OA
ATOM     11  C   UNL     1       4.233   5.338  17.677  0.00  0.00    +0.000 A 
ATOM     12  C   UNL     1       3.911   4.518  18.780  0.00  0.00    +0.000 A 
ATOM     13  C   UNL     1       4.391   3.114  19.033  0.00  0.00    +0.000 C 
ATOM     14  N   UNL     1       3.061   5.003  19.770  0.00  0.00    +0.000 N 
ATOM     15  O   UNL     1       2.755   4.264  20.767  0.00  0.00    +0.000 OA
ENDROOT
BRANCH  11  16
ATOM     16  C   UNL     1       5.190   4.888  16.646  0.00  0.00    +0.000 C 
ATOM     17  O   UNL     1       6.255   4.445  17.075  0.00  0.00    +0.000 OA
ATOM     18  N   UNL     1       4.881   5.023  15.301  0.00  0.00    +0.000 N 
ATOM     19  H   UNL     1       4.168   5.724  15.070  0.00  0.00    +0.000 HD
BRANCH  18  20
ATOM     20  C   UNL     1       5.754   4.590  14.268  0.00  0.00    +0.000 A 
ATOM     21  C   UNL     1       7.015   5.175  14.090  0.00  0.00    +0.000 A 
ATOM     22  C   UNL     1       7.794   4.890  12.970  0.00  0.00    +0.000 A 
ATOM     23  C   UNL     1       7.345   3.962  12.042  0.00  0.00    +0.000 A 
ATOM     24  C   UNL     1       6.141   3.293  12.257  0.00  0.00    +0.000 A 
ATOM     25  C   UNL     1       5.346   3.597  13.372  0.00  0.00    +0.000 A 
ENDBRANCH  18  20
ENDBRANCH  11  16
TORSDOF 2
ENDMDL
MODEL 2
REMARK VINA RESULT:      -7.5      2.224      3.507
REMARK  Name = 
REMARK  5 active torsions:
REMARK  status: ('A' for Active; 'I' for Inactive)
REMARK    1  A    between atoms: C_1  and  C_2
REMARK    2  A    between atoms: C_7  and  C_8
REMARK    3  A    between atoms: C_11  and  C_12
REMARK    4  A    between atoms: N_14  and  C_15
REMARK    5  A    between atoms: C_21  and  C_22
REMARK                            x       y       z     vdW  Elec       q    Type
REMARK                         _______ _______ _______ _____ _____    ______ ____
ROOT
ATOM      1  C   UNL     1      -1.274  12.343  21.350  0.00  0.00    +0.000 C 
ATOM      2  C   UNL     1      -0.419  11.432  20.511  0.00  0.00    +0.000 A 
ATOM      3  C   UNL     1      -0.039  10.189  21.025  0.00  0.00    +0.000 A 
ATOM      4  C   UNL     1       0.759   9.287  20.290  0.00  0.00    +0.000 A 
ATOM      5  C   UNL     1       1.191   9.638  18.996  0.00  0.00    +0.000 A 
ATOM      6  C   UNL     1       0.811  10.900  18.486  0.00  0.00    +0.000 A 
ATOM      7  C   UNL     1       0.013  11.794  19.225  0.00  0.00    +0.000 A 
ATOM      8  C   UNL     1      -0.368  13.119  18.622  0.00  0.00    +0.000 C 
ATOM      9  N   UNL     1       1.981   8.729  18.246  0.00  0.00    +0.000 N 
ATOM     10  O   UNL     1       2.365   9.055  17.065  0.00  0.00    +0.000 OA
ATOM     11  C   UNL     1       2.315   7.502  18.808  0.00  0.00    +0.000 A 
ATOM     12  C   UNL     1       1.894   7.154  20.109  0.00  0.00    +0.000 A 
ATOM     13  C   UNL     1       2.188   5.873  20.842  0.00  0.00    +0.000 C 
ATOM     14  N   UNL     1       1.118   8.049  20.841  0.00  0.00    +0.000 N 
ATOM     15  O   UNL     1       0.723   7.738  22.017  0.00  0.00    +0.000 OA
ENDROOT
BRANCH  11  16
ATOM     16  C   UNL     1       3.201   6.613  18.029  0.00  0.00    +0.000 C 
ATOM     17  O   UNL     1       2.715   5.525  17.724  0.00  0.00    +0.000 OA
ATOM     18  N   UNL     1       4.497   7.005  17.731  0.00  0.00    +0.000 N 
ATOM     19  H   UNL     1       4.900   7.730  18.337  0.00  0.00    +0.000 HD
BRANCH  18  20
ATOM     20  C   UNL     1       5.384   6.200  16.970  0.00  0.00    +0.000 A 
ATOM     21  C   UNL     1       5.211   6.033  15.590  0.00  0.00    +0.000 A 
ATOM     22  C   UNL     1       5.956   5.098  14.873  0.00  0.00    +0.000 A 
ATOM     23  C   UNL     1       6.935   4.360  15.522  0.00  0.00    +0.000 A 
ATOM     24  C   UNL     1       7.192   4.588  16.874  0.00  0.00    +0.000 A 
ATOM     25  C   UNL     1       6.426   5.512  17.600  0.00  0.00    +0.000 A 
ENDBRANCH  18  20
ENDBRANCH  11  16
TORSDOF 2
ENDMDL
MODEL 3
REMARK VINA RESULT:      -7.3      4.473     10.235
REMARK  Name = 
REMARK  5 active torsions:
REMARK  status: ('A' for Active; 'I' for Inactive)
REMARK    1  A    between atoms: C_1  and  C_2
REMARK    2  A    between atoms: C_7  and  C_8
REMARK    3  A    between atoms: C_11  and  C_12
REMARK    4  A    between atoms: N_14  and  C_15
REMARK    5  A    between atoms: C_21  and  C_22
REMARK                            x       y       z     vdW  Elec       q    Type
REMARK                         _______ _______ _______ _____ _____    ______ ____
ROOT
ATOM      1  C   UNL     1       3.435   5.458  18.056  0.00  0.00    +0.000 C 
ATOM      2  C   UNL     1       2.662   6.447  18.887  0.00  0.00    +0.000 A 
ATOM      3  C   UNL     1       2.477   7.745  18.403  0.00  0.00    +0.000 A 
ATOM      4  C   UNL     1       1.760   8.720  19.130  0.00  0.00    +0.000 A 
ATOM      5  C   UNL     1       1.209   8.386  20.381  0.00  0.00    +0.000 A 
ATOM      6  C   UNL     1       1.408   7.074  20.868  0.00  0.00    +0.000 A 
ATOM      7  C   UNL     1       2.122   6.107  20.137  0.00  0.00    +0.000 A 
ATOM      8  C   UNL     1       2.290   4.723  20.705  0.00  0.00    +0.000 C 
ATOM      9  N   UNL     1       0.474   9.356  21.110  0.00  0.00    +0.000 N 
ATOM     10  O   UNL     1      -0.031   9.040  22.247  0.00  0.00    +0.000 OA
ATOM     11  C   UNL     1       0.314  10.627  20.569  0.00  0.00    +0.000 A 
ATOM     12  C   UNL     1       0.877  10.968  19.321  0.00  0.00    +0.000 A 
ATOM     13  C   UNL     1       0.791  12.299  18.624  0.00  0.00    +0.000 C 
ATOM     14  N   UNL     1       1.596  10.012  18.609  0.00  0.00    +0.000 N 
ATOM     15  O   UNL     1       2.101  10.308  17.472  0.00  0.00    +0.000 OA
ENDROOT
BRANCH  11  16
ATOM     16  C   UNL     1      -0.391  11.634  21.389  0.00  0.00    +0.000 C 
ATOM     17  O   UNL     1       0.336  12.375  22.050  0.00  0.00    +0.000 OA
ATOM     18  N   UNL     1      -1.777  11.667  21.414  0.00  0.00    +0.000 N 
ATOM     19  H   UNL     1      -2.254  10.800  21.142  0.00  0.00    +0.000 HD
BRANCH  18  20
ATOM     20  C   UNL     1      -2.505  12.624  22.168  0.00  0.00    +0.000 A 
ATOM     21  C   UNL     1      -2.667  13.939  21.710  0.00  0.00    +0.000 A 
ATOM     22  C   UNL     1      -3.212  14.929  22.526  0.00  0.00    +0.000 A 
ATOM     23  C   UNL     1      -3.663  14.597  23.795  0.00  0.00    +0.000 A 
ATOM     24  C   UNL     1      -3.606  13.273  24.227  0.00  0.00    +0.000 A 
ATOM     25  C   UNL     1      -3.037  12.282  23.415  0.00  0.00    +0.000 A 
ENDBRANCH  18  20
ENDBRANCH  11  16
TORSDOF 2
ENDMDL
MODEL 4
REMARK VINA RESULT:      -7.3      2.235      3.703
REMARK  Name = 
REMARK  5 active torsions:
REMARK  status: ('A' for Active; 'I' for Inactive)
REMARK    1  A    between atoms: C_1  and  C_2
REMARK    2  A    between atoms: C_7  and  C_8
REMARK    3  A    between atoms: C_11  and  C_12
REMARK    4  A    between atoms: N_14  and  C_15
REMARK    5  A    between atoms: C_21  and  C_22
REMARK                            x       y       z     vdW  Elec       q    Type
REMARK                         _______ _______ _______ _____ _____    ______ ____
ROOT
ATOM      1  C   UNL     1      -0.864  12.953  21.289  0.00  0.00    +0.000 C 
ATOM      2  C   UNL     1      -0.101  11.940  20.480  0.00  0.00    +0.000 A 
ATOM      3  C   UNL     1       0.122  10.668  21.015  0.00  0.00    +0.000 A 
ATOM      4  C   UNL     1       0.826   9.671  20.307  0.00  0.00    +0.000 A 
ATOM      5  C   UNL     1       1.325   9.953  19.021  0.00  0.00    +0.000 A 
ATOM      6  C   UNL     1       1.104  11.245  18.490  0.00  0.00    +0.000 A 
ATOM      7  C   UNL     1       0.398  12.233  19.200  0.00  0.00    +0.000 A 
ATOM      8  C   UNL     1       0.186  13.586  18.576  0.00  0.00    +0.000 C 
ATOM      9  N   UNL     1       2.020   8.951  18.298  0.00  0.00    +0.000 N 
ATOM     10  O   UNL     1       2.466   9.216  17.123  0.00  0.00    +0.000 OA
ATOM     11  C   UNL     1       2.199   7.701  18.880  0.00  0.00    +0.000 A 
ATOM     12  C   UNL     1       1.712   7.419  20.174  0.00  0.00    +0.000 A 
ATOM     13  C   UNL     1       1.840   6.122  20.926  0.00  0.00    +0.000 C 
ATOM     14  N   UNL     1       1.028   8.406  20.879  0.00  0.00    +0.000 N 
ATOM     15  O   UNL     1       0.574   8.158  22.048  0.00  0.00    +0.000 OA
ENDROOT
BRANCH  11  16
ATOM     16  C   UNL     1       2.994   6.706  18.131  0.00  0.00    +0.000 C 
ATOM     17  O   UNL     1       2.414   5.647  17.888  0.00  0.00    +0.000 OA
ATOM     18  N   UNL     1       4.311   6.976  17.792  0.00  0.00    +0.000 N 
ATOM     19  H   UNL     1       4.783   7.693  18.354  0.00  0.00    +0.000 HD
BRANCH  18  20
ATOM     20  C   UNL     1       5.113   6.065  17.056  0.00  0.00    +0.000 A 
ATOM     21  C   UNL     1       5.906   5.108  17.703  0.00  0.00    +0.000 A 
ATOM     22  C   UNL     1       6.836   4.342  17.002  0.00  0.00    +0.000 A 
ATOM     23  C   UNL     1       6.938   4.482  15.626  0.00  0.00    +0.000 A 
ATOM     24  C   UNL     1       6.085   5.355  14.952  0.00  0.00    +0.000 A 
ATOM     25  C   UNL     1       5.165   6.142  15.661  0.00  0.00    +0.000 A 
ENDBRANCH  18  20
ENDBRANCH  11  16
TORSDOF 2
ENDMDL
MODEL 5
REMARK VINA RESULT:      -7.3      4.344     10.123
REMARK  Name = 
REMARK  5 active torsions:
REMARK  status: ('A' for Active; 'I' for Inactive)
REMARK    1  A    between atoms: C_1  and  C_2
REMARK    2  A    between atoms: C_7  and  C_8
REMARK    3  A    between atoms: C_11  and  C_12
REMARK    4  A    between atoms: N_14  and  C_15
REMARK    5  A    between atoms: C_21  and  C_22
REMARK                            x       y       z     vdW  Elec       q    Type
REMARK                         _______ _______ _______ _____ _____    ______ ____
ROOT
ATOM      1  C   UNL     1       3.450   5.195  18.068  0.00  0.00    +0.000 C 
ATOM      2  C   UNL     1       2.691   6.206  18.884  0.00  0.00    +0.000 A 
ATOM      3  C   UNL     1       2.538   7.504  18.391  0.00  0.00    +0.000 A 
ATOM      4  C   UNL     1       1.835   8.498  19.104  0.00  0.00    +0.000 A 
ATOM      5  C   UNL     1       1.264   8.184  20.352  0.00  0.00    +0.000 A 
ATOM      6  C   UNL     1       1.430   6.871  20.849  0.00  0.00    +0.000 A 
ATOM      7  C   UNL     1       2.131   5.884  20.131  0.00  0.00    +0.000 A 
ATOM      8  C   UNL     1       2.264   4.501  20.709  0.00  0.00    +0.000 C 
ATOM      9  N   UNL     1       0.543   9.174  21.067  0.00  0.00    +0.000 N 
ATOM     10  O   UNL     1       0.020   8.877  22.202  0.00  0.00    +0.000 OA
ATOM     11  C   UNL     1       0.416  10.445  20.517  0.00  0.00    +0.000 A 
ATOM     12  C   UNL     1       0.998  10.766  19.273  0.00  0.00    +0.000 A 
ATOM     13  C   UNL     1       0.948  12.094  18.567  0.00  0.00    +0.000 C 
ATOM     14  N   UNL     1       1.704   9.790  18.574  0.00  0.00    +0.000 N 
ATOM     15  O   UNL     1       2.226  10.068  17.441  0.00  0.00    +0.000 OA
ENDROOT
BRANCH  11  16
ATOM     16  C   UNL     1      -0.276  11.472  21.323  0.00  0.00    +0.000 C 
ATOM     17  O   UNL     1       0.462  12.230  21.952  0.00  0.00    +0.000 OA
ATOM     18  N   UNL     1      -1.661  11.505  21.372  0.00  0.00    +0.000 N 
ATOM     19  H   UNL     1      -2.142  10.631  21.131  0.00  0.00    +0.000 HD
BRANCH  18  20
ATOM     20  C   UNL     1      -2.377  12.480  22.114  0.00  0.00    +0.000 A 
ATOM     21  C   UNL     1      -2.781  12.239  23.434  0.00  0.00    +0.000 A 
ATOM     22  C   UNL     1      -3.643  13.108  24.100  0.00  0.00    +0.000 A 
ATOM     23  C   UNL     1      -4.063  14.270  23.470  0.00  0.00    +0.000 A 
ATOM     24  C   UNL     1      -3.589  14.579  22.196  0.00  0.00    +0.000 A 
ATOM     25  C   UNL     1      -2.739  13.692  21.517  0.00  0.00    +0.000 A 
ENDBRANCH  18  20
ENDBRANCH  11  16
TORSDOF 2
ENDMDL
MODEL 6
REMARK VINA RESULT:      -7.2      3.847      9.290
REMARK  Name = 
REMARK  5 active torsions:
REMARK  status: ('A' for Active; 'I' for Inactive)
REMARK    1  A    between atoms: C_1  and  C_2
REMARK    2  A    between atoms: C_7  and  C_8
REMARK    3  A    between atoms: C_11  and  C_12
REMARK    4  A    between atoms: N_14  and  C_15
REMARK    5  A    between atoms: C_21  and  C_22
REMARK                            x       y       z     vdW  Elec       q    Type
REMARK                         _______ _______ _______ _____ _____    ______ ____
ROOT
ATOM      1  C   UNL     1       3.569   3.600  18.405  0.00  0.00    +0.000 C 
ATOM      2  C   UNL     1       2.922   4.783  19.074  0.00  0.00    +0.000 A 
ATOM      3  C   UNL     1       2.890   6.010  18.406  0.00  0.00    +0.000 A 
ATOM      4  C   UNL     1       2.296   7.157  18.975  0.00  0.00    +0.000 A 
ATOM      5  C   UNL     1       1.713   7.075  20.254  0.00  0.00    +0.000 A 
ATOM      6  C   UNL     1       1.757   5.832  20.928  0.00  0.00    +0.000 A 
ATOM      7  C   UNL     1       2.349   4.693  20.353  0.00  0.00    +0.000 A 
ATOM      8  C   UNL     1       2.355   3.395  21.116  0.00  0.00    +0.000 C 
ATOM      9  N   UNL     1       1.101   8.220  20.825  0.00  0.00    +0.000 N 
ATOM     10  O   UNL     1       0.565   8.133  21.989  0.00  0.00    +0.000 OA
ATOM     11  C   UNL     1       1.090   9.409  20.105  0.00  0.00    +0.000 A 
ATOM     12  C   UNL     1       1.685   9.498  18.829  0.00  0.00    +0.000 A 
ATOM     13  C   UNL     1       1.755  10.715  17.947  0.00  0.00    +0.000 C 
ATOM     14  N   UNL     1       2.284   8.371  18.272  0.00  0.00    +0.000 N 
ATOM     15  O   UNL     1       2.817   8.438  17.111  0.00  0.00    +0.000 OA
ENDROOT
BRANCH  11  16
ATOM     16  C   UNL     1       0.512  10.600  20.762  0.00  0.00    +0.000 C 
ATOM     17  O   UNL     1       1.331  11.392  21.227  0.00  0.00    +0.000 OA
ATOM     18  N   UNL     1      -0.864  10.742  20.862  0.00  0.00    +0.000 N 
ATOM     19  H   UNL     1      -1.413   9.878  20.787  0.00  0.00    +0.000 HD
BRANCH  18  20
ATOM     20  C   UNL     1      -1.473  11.874  21.465  0.00  0.00    +0.000 A 
ATOM     21  C   UNL     1      -1.725  11.917  22.842  0.00  0.00    +0.000 A 
ATOM     22  C   UNL     1      -2.490  12.935  23.408  0.00  0.00    +0.000 A 
ATOM     23  C   UNL     1      -2.962  13.963  22.605  0.00  0.00    +0.000 A 
ATOM     24  C   UNL     1      -2.632  13.992  21.251  0.00  0.00    +0.000 A 
ATOM     25  C   UNL     1      -1.882  12.955  20.677  0.00  0.00    +0.000 A 
ENDBRANCH  18  20
ENDBRANCH  11  16
TORSDOF 2
ENDMDL
MODEL 7
REMARK VINA RESULT:      -7.2      4.313     10.201
REMARK  Name = 
REMARK  5 active torsions:
REMARK  status: ('A' for Active; 'I' for Inactive)
REMARK    1  A    between atoms: C_1  and  C_2
REMARK    2  A    between atoms: C_7  and  C_8
REMARK    3  A    between atoms: C_11  and  C_12
REMARK    4  A    between atoms: N_14  and  C_15
REMARK    5  A    between atoms: C_21  and  C_22
REMARK                            x       y       z     vdW  Elec       q    Type
REMARK                         _______ _______ _______ _____ _____    ______ ____
ROOT
ATOM      1  C   UNL     1       3.962   5.546  18.194  0.00  0.00    +0.000 C 
ATOM      2  C   UNL     1       2.984   6.436  18.912  0.00  0.00    +0.000 A 
ATOM      3  C   UNL     1       2.761   7.730  18.434  0.00  0.00    +0.000 A 
ATOM      4  C   UNL     1       1.855   8.614  19.058  0.00  0.00    +0.000 A 
ATOM      5  C   UNL     1       1.146   8.190  20.199  0.00  0.00    +0.000 A 
ATOM      6  C   UNL     1       1.383   6.882  20.682  0.00  0.00    +0.000 A 
ATOM      7  C   UNL     1       2.287   6.006  20.053  0.00  0.00    +0.000 A 
ATOM      8  C   UNL     1       2.487   4.622  20.610  0.00  0.00    +0.000 C 
ATOM      9  N   UNL     1       0.223   9.067  20.822  0.00  0.00    +0.000 N 
ATOM     10  O   UNL     1      -0.424   8.669  21.857  0.00  0.00    +0.000 OA
ATOM     11  C   UNL     1       0.036  10.339  20.291  0.00  0.00    +0.000 A 
ATOM     12  C   UNL     1       0.755  10.770  19.156  0.00  0.00    +0.000 A 
ATOM     13  C   UNL     1       0.661  12.113  18.484  0.00  0.00    +0.000 C 
ATOM     14  N   UNL     1       1.659   9.905  18.547  0.00  0.00    +0.000 N 
ATOM     15  O   UNL     1       2.308  10.283  17.512  0.00  0.00    +0.000 OA
ENDROOT
BRANCH  11  16
ATOM     16  C   UNL     1      -0.876  11.252  21.009  0.00  0.00    +0.000 C 
ATOM     17  O   UNL     1      -1.786  11.726  20.330  0.00  0.00    +0.000 OA
ATOM     18  N   UNL     1      -0.649  11.558  22.343  0.00  0.00    +0.000 N 
ATOM     19  H   UNL     1       0.309  11.417  22.681  0.00  0.00    +0.000 HD
BRANCH  18  20
ATOM     20  C   UNL     1      -1.504  12.413  23.087  0.00  0.00    +0.000 A 
ATOM     21  C   UNL     1      -2.782  11.997  23.484  0.00  0.00    +0.000 A 
ATOM     22  C   UNL     1      -3.694  12.889  24.043  0.00  0.00    +0.000 A 
ATOM     23  C   UNL     1      -3.313  14.203  24.273  0.00  0.00    +0.000 A 
ATOM     24  C   UNL     1      -2.011  14.608  23.980  0.00  0.00    +0.000 A 
ATOM     25  C   UNL     1      -1.101  13.716  23.395  0.00  0.00    +0.000 A 
ENDBRANCH  18  20
ENDBRANCH  11  16
TORSDOF 2
ENDMDL
MODEL 8
REMARK VINA RESULT:      -7.2      4.366     10.213
REMARK  Name = 
REMARK  5 active torsions:
REMARK  status: ('A' for Active; 'I' for Inactive)
REMARK    1  A    between atoms: C_1  and  C_2
REMARK    2  A    between atoms: C_7  and  C_8
REMARK    3  A    between atoms: C_11  and  C_12
REMARK    4  A    between atoms: N_14  and  C_15
REMARK    5  A    between atoms: C_21  and  C_22
REMARK                            x       y       z     vdW  Elec       q    Type
REMARK                         _______ _______ _______ _____ _____    ______ ____
ROOT
ATOM      1  C   UNL     1       3.815   5.414  18.443  0.00  0.00    +0.000 C 
ATOM      2  C   UNL     1       2.851   6.349  19.122  0.00  0.00    +0.000 A 
ATOM      3  C   UNL     1       2.651   7.626  18.592  0.00  0.00    +0.000 A 
ATOM      4  C   UNL     1       1.759   8.549  19.178  0.00  0.00    +0.000 A 
ATOM      5  C   UNL     1       1.041   8.184  20.333  0.00  0.00    +0.000 A 
ATOM      6  C   UNL     1       1.255   6.893  20.869  0.00  0.00    +0.000 A 
ATOM      7  C   UNL     1       2.145   5.977  20.278  0.00  0.00    +0.000 A 
ATOM      8  C   UNL     1       2.321   4.614  20.890  0.00  0.00    +0.000 C 
ATOM      9  N   UNL     1       0.132   9.101  20.918  0.00  0.00    +0.000 N 
ATOM     10  O   UNL     1      -0.524   8.756  21.967  0.00  0.00    +0.000 OA
ATOM     11  C   UNL     1      -0.032  10.353  20.335  0.00  0.00    +0.000 A 
ATOM     12  C   UNL     1       0.695  10.727  19.186  0.00  0.00    +0.000 A 
ATOM     13  C   UNL     1       0.626  12.043  18.460  0.00  0.00    +0.000 C 
ATOM     14  N   UNL     1       1.586   9.822  18.614  0.00  0.00    +0.000 N 
ATOM     15  O   UNL     1       2.243  10.147  17.566  0.00  0.00    +0.000 OA
ENDROOT
BRANCH  11  16
ATOM     16  C   UNL     1      -0.930  11.310  21.014  0.00  0.00    +0.000 C 
ATOM     17  O   UNL     1      -1.782  11.830  20.295  0.00  0.00    +0.000 OA
ATOM     18  N   UNL     1      -0.751  11.602  22.358  0.00  0.00    +0.000 N 
ATOM     19  H   UNL     1       0.182  11.412  22.740  0.00  0.00    +0.000 HD
BRANCH  18  20
ATOM     20  C   UNL     1      -1.596  12.497  23.065  0.00  0.00    +0.000 A 
ATOM     21  C   UNL     1      -1.172  13.792  23.390  0.00  0.00    +0.000 A 
ATOM     22  C   UNL     1      -1.915  14.606  24.244  0.00  0.00    +0.000 A 
ATOM     23  C   UNL     1      -3.132  14.153  24.733  0.00  0.00    +0.000 A 
ATOM     24  C   UNL     1      -3.619  12.908  24.336  0.00  0.00    +0.000 A 
ATOM     25  C   UNL     1      -2.859  12.081  23.496  0.00  0.00    +0.000 A 
ENDBRANCH  18  20
ENDBRANCH  11  16
TORSDOF 2
ENDMDL
MODEL 9
REMARK VINA RESULT:      -7.1      3.858      9.239
REMARK  Name = 
REMARK  5 active torsions:
REMARK  status: ('A' for Active; 'I' for Inactive)
REMARK    1  A    between atoms: C_1  and  C_2
REMARK    2  A    between atoms: C_7  and  C_8
REMARK    3  A    between atoms: C_11  and  C_12
REMARK    4  A    between atoms: N_14  and  C_15
REMARK    5  A    between atoms: C_21  and  C_22
REMARK                            x       y       z     vdW  Elec       q    Type
REMARK                         _______ _______ _______ _____ _____    ______ ____
ROOT
ATOM      1  C   UNL     1       3.519   3.573  18.416  0.00  0.00    +0.000 C 
ATOM      2  C   UNL     1       2.880   4.765  19.077  0.00  0.00    +0.000 A 
ATOM      3  C   UNL     1       2.887   5.996  18.415  0.00  0.00    +0.000 A 
ATOM      4  C   UNL     1       2.304   7.151  18.976  0.00  0.00    +0.000 A 
ATOM      5  C   UNL     1       1.690   7.075  20.241  0.00  0.00    +0.000 A 
ATOM      6  C   UNL     1       1.695   5.828  20.909  0.00  0.00    +0.000 A 
ATOM      7  C   UNL     1       2.277   4.680  20.342  0.00  0.00    +0.000 A 
ATOM      8  C   UNL     1       2.239   3.379  21.098  0.00  0.00    +0.000 C 
ATOM      9  N   UNL     1       1.088   8.229  20.804  0.00  0.00    +0.000 N 
ATOM     10  O   UNL     1       0.525   8.147  21.956  0.00  0.00    +0.000 OA
ATOM     11  C   UNL     1       1.118   9.422  20.091  0.00  0.00    +0.000 A 
ATOM     12  C   UNL     1       1.743   9.504  18.828  0.00  0.00    +0.000 A 
ATOM     13  C   UNL     1       1.858  10.724  17.954  0.00  0.00    +0.000 C 
ATOM     14  N   UNL     1       2.332   8.368  18.279  0.00  0.00    +0.000 N 
ATOM     15  O   UNL     1       2.892   8.430  17.131  0.00  0.00    +0.000 OA
ENDROOT
BRANCH  11  16
ATOM     16  C   UNL     1       0.549  10.620  20.740  0.00  0.00    +0.000 C 
ATOM     17  O   UNL     1       1.367  11.362  21.282  0.00  0.00    +0.000 OA
ATOM     18  N   UNL     1      -0.823  10.823  20.751  0.00  0.00    +0.000 N 
ATOM     19  H   UNL     1      -1.404   9.988  20.614  0.00  0.00    +0.000 HD
BRANCH  18  20
ATOM     20  C   UNL     1      -1.422  11.966  21.343  0.00  0.00    +0.000 A 
ATOM     21  C   UNL     1      -1.693  13.116  20.590  0.00  0.00    +0.000 A 
ATOM     22  C   UNL     1      -2.101  14.302  21.199  0.00  0.00    +0.000 A 
ATOM     23  C   UNL     1      -2.306  14.331  22.571  0.00  0.00    +0.000 A 
ATOM     24  C   UNL     1      -2.142  13.168  23.321  0.00  0.00    +0.000 A 
ATOM     25  C   UNL     1      -1.709  11.981  22.712  0.00  0.00    +0.000 A 
ENDBRANCH  18  20
ENDBRANCH  11  16
TORSDOF 2
ENDMDL
