MODEL 1
REMARK VINA RESULT:      -7.1      0.000      0.000
REMARK  Name = 
REMARK  14 active torsions:
REMARK  status: ('A' for Active; 'I' for Inactive)
REMARK    1  A    between atoms: C_6  and  C_7
REMARK    2  A    between atoms: C_10  and  O_11
REMARK    3  A    between atoms: C_12  and  C_13
REMARK    4  A    between atoms: C_12  and  C_14
REMARK    5  A    between atoms: C_14  and  O_15
REMARK    6  A    between atoms: O_15  and  C_16
REMARK    7  A    between atoms: C_18  and  C_19
REMARK    8  A    between atoms: C_19  and  O_20
REMARK    9  A    between atoms: C_21  and  O_22
REMARK   10  A    between atoms: C_23  and  O_24
REMARK   11  A    between atoms: C_25  and  O_26
REMARK   12  A    between atoms: C_27  and  C_28
REMARK   13  A    between atoms: C_28  and  C_29
REMARK   14  A    between atoms: C_29  and  C_30
REMARK                            x       y       z     vdW  Elec       q    Type
REMARK                         _______ _______ _______ _____ _____    ______ ____
ROOT
ATOM      1  C   UNL     1       0.653   7.638  20.982  0.00  0.00    +0.000 C 
ATOM      2  C   UNL     1       0.879   8.965  21.025  0.00  0.00    +0.000 C 
ATOM      3  C   UNL     1       0.781   9.699  22.347  0.00  0.00    +0.000 C 
ATOM      4  C   UNL     1      -0.289  10.810  22.349  0.00  0.00    +0.000 C 
ATOM      5  C   UNL     1      -0.208  11.742  21.124  0.00  0.00    +0.000 C 
ATOM      6  C   UNL     1      -0.077  10.937  19.771  0.00  0.00    +0.000 C 
ATOM      7  C   UNL     1      -1.347  10.090  19.503  0.00  0.00    +0.000 C 
ATOM      8  C   UNL     1       0.241  11.968  18.673  0.00  0.00    +0.000 C 
ATOM      9  C   UNL     1      -0.429  13.329  18.660  0.00  0.00    +0.000 C 
ATOM     10  C   UNL     1      -0.715  13.957  20.009  0.00  0.00    +0.000 C 
ATOM     11  C   UNL     1      -1.282  12.948  21.062  0.00  0.00    +0.000 C 
ATOM     12  C   UNL     1      -1.362  13.686  22.418  0.00  0.00    +0.000 C 
ATOM     13  C   UNL     1       1.116   9.870  19.796  0.00  0.00    +0.000 C 
ENDROOT
BRANCH  10  14
ATOM     14  O   UNL     1      -1.604  15.061  19.803  0.00  0.00    +0.000 OA
ATOM     15  H   UNL     1      -1.083  15.854  19.599  0.00  0.00    +0.000 HD
ENDBRANCH  10  14
BRANCH  11  16
ATOM     16  C   UNL     1      -2.770  12.659  20.662  0.00  0.00    +0.000 C 
BRANCH  16  17
ATOM     17  O   UNL     1      -3.770  13.409  21.381  0.00  0.00    +0.000 OA
BRANCH  17  18
ATOM     18  C   UNL     1      -4.540  12.527  22.231  0.00  0.00    +0.000 C 
ATOM     19  O   UNL     1      -5.694  12.014  21.553  0.00  0.00    +0.000 OA
ATOM     20  C   UNL     1      -6.898  12.787  21.620  0.00  0.00    +0.000 C 
ATOM     21  C   UNL     1      -7.277  13.025  23.087  0.00  0.00    +0.000 C 
ATOM     22  C   UNL     1      -6.181  13.766  23.863  0.00  0.00    +0.000 C 
ATOM     23  C   UNL     1      -4.804  13.105  23.657  0.00  0.00    +0.000 C 
BRANCH  21  24
ATOM     24  O   UNL     1      -7.467  11.738  23.722  0.00  0.00    +0.000 OA
ATOM     25  H   UNL     1      -6.725  11.587  24.339  0.00  0.00    +0.000 HD
ENDBRANCH  21  24
BRANCH  22  26
ATOM     26  O   UNL     1      -6.174  15.166  23.606  0.00  0.00    +0.000 OA
ATOM     27  H   UNL     1      -5.391  15.391  23.057  0.00  0.00    +0.000 HD
ENDBRANCH  22  26
BRANCH  23  28
ATOM     28  O   UNL     1      -4.696  12.003  24.595  0.00  0.00    +0.000 OA
ATOM     29  H   UNL     1      -4.405  12.379  25.449  0.00  0.00    +0.000 HD
ENDBRANCH  23  28
BRANCH  20  30
ATOM     30  C   UNL     1      -6.905  14.031  20.723  0.00  0.00    +0.000 C 
BRANCH  30  31
ATOM     31  O   UNL     1      -7.889  14.985  21.099  0.00  0.00    +0.000 OA
ATOM     32  H   UNL     1      -8.763  14.598  20.865  0.00  0.00    +0.000 HD
ENDBRANCH  30  31
ENDBRANCH  20  30
ENDBRANCH  17  18
ENDBRANCH  16  17
ENDBRANCH  11  16
BRANCH  13  33
ATOM     33  C   UNL     1       1.276   9.037  18.454  0.00  0.00    +0.000 C 
BRANCH  33  34
ATOM     34  C   UNL     1       2.666   8.618  17.909  0.00  0.00    +0.000 C 
BRANCH  34  35
ATOM     35  C   UNL     1       2.951   7.166  17.901  0.00  0.00    +0.000 C 
ATOM     36  C   UNL     1       2.142   6.140  18.178  0.00  0.00    +0.000 C 
ATOM     37  C   UNL     1       2.841   4.862  18.026  0.00  0.00    +0.000 C 
ATOM     38  O   UNL     1       4.154   5.216  17.638  0.00  0.00    +0.000 OA
ATOM     39  C   UNL     1       4.255   6.583  17.549  0.00  0.00    +0.000 C 
ATOM     40  O   UNL     1       5.262   7.203  17.258  0.00  0.00    +0.000 OA
ENDBRANCH  34  35
ENDBRANCH  33  34
ENDBRANCH  13  33
TORSDOF 12
ENDMDL
MODEL 2
REMARK VINA RESULT:      -6.8      0.975      2.110
REMARK  Name = 
REMARK  14 active torsions:
REMARK  status: ('A' for Active; 'I' for Inactive)
REMARK    1  A    between atoms: C_6  and  C_7
REMARK    2  A    between atoms: C_10  and  O_11
REMARK    3  A    between atoms: C_12  and  C_13
REMARK    4  A    between atoms: C_12  and  C_14
REMARK    5  A    between atoms: C_14  and  O_15
REMARK    6  A    between atoms: O_15  and  C_16
REMARK    7  A    between atoms: C_18  and  C_19
REMARK    8  A    between atoms: C_19  and  O_20
REMARK    9  A    between atoms: C_21  and  O_22
REMARK   10  A    between atoms: C_23  and  O_24
REMARK   11  A    between atoms: C_25  and  O_26
REMARK   12  A    between atoms: C_27  and  C_28
REMARK   13  A    between atoms: C_28  and  C_29
REMARK   14  A    between atoms: C_29  and  C_30
REMARK                            x       y       z     vdW  Elec       q    Type
REMARK                         _______ _______ _______ _____ _____    ______ ____
ROOT
ATOM      1  C   UNL     1       0.625   7.511  20.995  0.00  0.00    +0.000 C 
ATOM      2  C   UNL     1       0.895   8.830  21.045  0.00  0.00    +0.000 C 
ATOM      3  C   UNL     1       0.761   9.572  22.360  0.00  0.00    +0.000 C 
ATOM      4  C   UNL     1      -0.268  10.720  22.309  0.00  0.00    +0.000 C 
ATOM      5  C   UNL     1      -0.097  11.643  21.087  0.00  0.00    +0.000 C 
ATOM      6  C   UNL     1       0.069  10.829  19.744  0.00  0.00    +0.000 C 
ATOM      7  C   UNL     1      -1.216  10.026  19.418  0.00  0.00    +0.000 C 
ATOM      8  C   UNL     1       0.474  11.843  18.659  0.00  0.00    +0.000 C 
ATOM      9  C   UNL     1      -0.146  13.227  18.610  0.00  0.00    +0.000 C 
ATOM     10  C   UNL     1      -0.473  13.870  19.944  0.00  0.00    +0.000 C 
ATOM     11  C   UNL     1      -1.124  12.886  20.971  0.00  0.00    +0.000 C 
ATOM     12  C   UNL     1      -1.241  13.632  22.320  0.00  0.00    +0.000 C 
ATOM     13  C   UNL     1       1.221   9.722  19.827  0.00  0.00    +0.000 C 
ENDROOT
BRANCH  10  14
ATOM     14  O   UNL     1      -1.313  15.004  19.693  0.00  0.00    +0.000 OA
ATOM     15  H   UNL     1      -1.718  15.289  20.528  0.00  0.00    +0.000 HD
ENDBRANCH  10  14
BRANCH  11  16
ATOM     16  C   UNL     1      -2.601  12.648  20.502  0.00  0.00    +0.000 C 
BRANCH  16  17
ATOM     17  O   UNL     1      -3.625  12.985  21.459  0.00  0.00    +0.000 OA
BRANCH  17  18
ATOM     18  C   UNL     1      -4.669  13.760  20.822  0.00  0.00    +0.000 C 
ATOM     19  O   UNL     1      -5.341  14.611  21.759  0.00  0.00    +0.000 OA
ATOM     20  C   UNL     1      -6.465  14.064  22.460  0.00  0.00    +0.000 C 
ATOM     21  C   UNL     1      -7.503  13.555  21.452  0.00  0.00    +0.000 C 
ATOM     22  C   UNL     1      -6.937  12.473  20.524  0.00  0.00    +0.000 C 
ATOM     23  C   UNL     1      -5.600  12.915  19.898  0.00  0.00    +0.000 C 
BRANCH  21  24
ATOM     24  O   UNL     1      -7.916  14.668  20.624  0.00  0.00    +0.000 OA
ATOM     25  H   UNL     1      -7.760  14.431  19.690  0.00  0.00    +0.000 HD
ENDBRANCH  21  24
BRANCH  22  26
ATOM     26  O   UNL     1      -6.867  11.194  21.145  0.00  0.00    +0.000 OA
ATOM     27  H   UNL     1      -7.768  10.806  21.191  0.00  0.00    +0.000 HD
ENDBRANCH  22  26
BRANCH  23  28
ATOM     28  O   UNL     1      -5.903  13.728  18.734  0.00  0.00    +0.000 OA
ATOM     29  H   UNL     1      -5.681  13.195  17.944  0.00  0.00    +0.000 HD
ENDBRANCH  23  28
BRANCH  20  30
ATOM     30  C   UNL     1      -6.099  13.089  23.585  0.00  0.00    +0.000 C 
BRANCH  30  31
ATOM     31  O   UNL     1      -4.953  13.493  24.322  0.00  0.00    +0.000 OA
ATOM     32  H   UNL     1      -4.635  14.330  23.915  0.00  0.00    +0.000 HD
ENDBRANCH  30  31
ENDBRANCH  20  30
ENDBRANCH  17  18
ENDBRANCH  16  17
ENDBRANCH  11  16
BRANCH  13  33
ATOM     33  C   UNL     1       1.414   8.877  18.496  0.00  0.00    +0.000 C 
BRANCH  33  34
ATOM     34  C   UNL     1       2.819   8.469  17.981  0.00  0.00    +0.000 C 
BRANCH  34  35
ATOM     35  C   UNL     1       3.086   7.015  17.904  0.00  0.00    +0.000 C 
ATOM     36  C   UNL     1       2.295   5.988  18.225  0.00  0.00    +0.000 C 
ATOM     37  C   UNL     1       2.963   4.709  17.971  0.00  0.00    +0.000 C 
ATOM     38  O   UNL     1       4.239   5.064  17.474  0.00  0.00    +0.000 OA
ATOM     39  C   UNL     1       4.346   6.432  17.416  0.00  0.00    +0.000 C 
ATOM     40  O   UNL     1       5.328   7.053  17.051  0.00  0.00    +0.000 OA
ENDBRANCH  34  35
ENDBRANCH  33  34
ENDBRANCH  13  33
TORSDOF 12
ENDMDL
MODEL 3
REMARK VINA RESULT:      -6.7      1.016      2.172
REMARK  Name = 
REMARK  14 active torsions:
REMARK  status: ('A' for Active; 'I' for Inactive)
REMARK    1  A    between atoms: C_6  and  C_7
REMARK    2  A    between atoms: C_10  and  O_11
REMARK    3  A    between atoms: C_12  and  C_13
REMARK    4  A    between atoms: C_12  and  C_14
REMARK    5  A    between atoms: C_14  and  O_15
REMARK    6  A    between atoms: O_15  and  C_16
REMARK    7  A    between atoms: C_18  and  C_19
REMARK    8  A    between atoms: C_19  and  O_20
REMARK    9  A    between atoms: C_21  and  O_22
REMARK   10  A    between atoms: C_23  and  O_24
REMARK   11  A    between atoms: C_25  and  O_26
REMARK   12  A    between atoms: C_27  and  C_28
REMARK   13  A    between atoms: C_28  and  C_29
REMARK   14  A    between atoms: C_29  and  C_30
REMARK                            x       y       z     vdW  Elec       q    Type
REMARK                         _______ _______ _______ _____ _____    ______ ____
ROOT
ATOM      1  C   UNL     1      -0.221   7.828  21.027  0.00  0.00    +0.000 C 
ATOM      2  C   UNL     1       0.389   9.024  21.138  0.00  0.00    +0.000 C 
ATOM      3  C   UNL     1       0.341   9.770  22.456  0.00  0.00    +0.000 C 
ATOM      4  C   UNL     1      -0.333  11.154  22.348  0.00  0.00    +0.000 C 
ATOM      5  C   UNL     1       0.191  12.000  21.172  0.00  0.00    +0.000 C 
ATOM      6  C   UNL     1       0.254  11.176  19.826  0.00  0.00    +0.000 C 
ATOM      7  C   UNL     1      -1.165  10.752  19.368  0.00  0.00    +0.000 C 
ATOM      8  C   UNL     1       1.014  12.047  18.810  0.00  0.00    +0.000 C 
ATOM      9  C   UNL     1       0.796  13.548  18.746  0.00  0.00    +0.000 C 
ATOM     10  C   UNL     1       0.534  14.250  20.064  0.00  0.00    +0.000 C 
ATOM     11  C   UNL     1      -0.448  13.475  21.003  0.00  0.00    +0.000 C 
ATOM     12  C   UNL     1      -0.483  14.220  22.357  0.00  0.00    +0.000 C 
ATOM     13  C   UNL     1       1.052   9.798  19.977  0.00  0.00    +0.000 C 
ENDROOT
BRANCH  10  14
ATOM     14  O   UNL     1       0.058  15.570  19.774  0.00  0.00    +0.000 OA
ATOM     15  H   UNL     1       0.639  15.978  19.111  0.00  0.00    +0.000 HD
ENDBRANCH  10  14
BRANCH  11  16
ATOM     16  C   UNL     1      -1.886  13.647  20.401  0.00  0.00    +0.000 C 
BRANCH  16  17
ATOM     17  O   UNL     1      -2.967  13.132  21.203  0.00  0.00    +0.000 OA
BRANCH  17  18
ATOM     18  C   UNL     1      -3.996  14.138  21.360  0.00  0.00    +0.000 C 
ATOM     19  O   UNL     1      -4.027  14.659  22.695  0.00  0.00    +0.000 OA
ATOM     20  C   UNL     1      -4.845  13.975  23.652  0.00  0.00    +0.000 C 
ATOM     21  C   UNL     1      -6.287  13.901  23.138  0.00  0.00    +0.000 C 
ATOM     22  C   UNL     1      -6.395  13.167  21.795  0.00  0.00    +0.000 C 
ATOM     23  C   UNL     1      -5.379  13.715  20.774  0.00  0.00    +0.000 C 
BRANCH  21  24
ATOM     24  O   UNL     1      -6.768  15.252  22.937  0.00  0.00    +0.000 OA
ATOM     25  H   UNL     1      -7.729  15.215  22.772  0.00  0.00    +0.000 HD
ENDBRANCH  21  24
BRANCH  22  26
ATOM     26  O   UNL     1      -6.340  11.751  21.935  0.00  0.00    +0.000 OA
ATOM     27  H   UNL     1      -7.013  11.341  21.349  0.00  0.00    +0.000 HD
ENDBRANCH  22  26
BRANCH  23  28
ATOM     28  O   UNL     1      -5.963  14.892  20.156  0.00  0.00    +0.000 OA
ATOM     29  H   UNL     1      -5.267  15.579  20.129  0.00  0.00    +0.000 HD
ENDBRANCH  23  28
BRANCH  20  30
ATOM     30  C   UNL     1      -4.254  12.655  24.164  0.00  0.00    +0.000 C 
BRANCH  30  31
ATOM     31  O   UNL     1      -5.227  11.794  24.738  0.00  0.00    +0.000 OA
ATOM     32  H   UNL     1      -5.738  11.406  23.992  0.00  0.00    +0.000 HD
ENDBRANCH  30  31
ENDBRANCH  20  30
ENDBRANCH  17  18
ENDBRANCH  16  17
ENDBRANCH  11  16
BRANCH  13  33
ATOM     33  C   UNL     1       1.132   8.938  18.645  0.00  0.00    +0.000 C 
BRANCH  33  34
ATOM     34  C   UNL     1       2.487   8.520  18.018  0.00  0.00    +0.000 C 
BRANCH  34  35
ATOM     35  C   UNL     1       2.885   7.108  18.209  0.00  0.00    +0.000 C 
ATOM     36  C   UNL     1       2.359   6.178  19.012  0.00  0.00    +0.000 C 
ATOM     37  C   UNL     1       3.059   4.900  18.867  0.00  0.00    +0.000 C 
ATOM     38  O   UNL     1       4.066   5.150  17.906  0.00  0.00    +0.000 OA
ATOM     39  C   UNL     1       3.989   6.456  17.487  0.00  0.00    +0.000 C 
ATOM     40  O   UNL     1       4.729   6.988  16.679  0.00  0.00    +0.000 OA
ENDBRANCH  34  35
ENDBRANCH  33  34
ENDBRANCH  13  33
TORSDOF 12
ENDMDL
MODEL 4
REMARK VINA RESULT:      -6.7      1.276      2.336
REMARK  Name = 
REMARK  14 active torsions:
REMARK  status: ('A' for Active; 'I' for Inactive)
REMARK    1  A    between atoms: C_6  and  C_7
REMARK    2  A    between atoms: C_10  and  O_11
REMARK    3  A    between atoms: C_12  and  C_13
REMARK    4  A    between atoms: C_12  and  C_14
REMARK    5  A    between atoms: C_14  and  O_15
REMARK    6  A    between atoms: O_15  and  C_16
REMARK    7  A    between atoms: C_18  and  C_19
REMARK    8  A    between atoms: C_19  and  O_20
REMARK    9  A    between atoms: C_21  and  O_22
REMARK   10  A    between atoms: C_23  and  O_24
REMARK   11  A    between atoms: C_25  and  O_26
REMARK   12  A    between atoms: C_27  and  C_28
REMARK   13  A    between atoms: C_28  and  C_29
REMARK   14  A    between atoms: C_29  and  C_30
REMARK                            x       y       z     vdW  Elec       q    Type
REMARK                         _______ _______ _______ _____ _____    ______ ____
ROOT
ATOM      1  C   UNL     1       0.854   7.050  20.852  0.00  0.00    +0.000 C 
ATOM      2  C   UNL     1       1.274   8.328  20.925  0.00  0.00    +0.000 C 
ATOM      3  C   UNL     1       1.186   9.071  22.243  0.00  0.00    +0.000 C 
ATOM      4  C   UNL     1       0.299  10.331  22.174  0.00  0.00    +0.000 C 
ATOM      5  C   UNL     1       0.615  11.237  20.968  0.00  0.00    +0.000 C 
ATOM      6  C   UNL     1       0.728  10.419  19.621  0.00  0.00    +0.000 C 
ATOM      7  C   UNL     1      -0.630   9.774  19.247  0.00  0.00    +0.000 C 
ATOM      8  C   UNL     1       1.282  11.388  18.561  0.00  0.00    +0.000 C 
ATOM      9  C   UNL     1       0.829  12.835  18.509  0.00  0.00    +0.000 C 
ATOM     10  C   UNL     1       0.537  13.501  19.839  0.00  0.00    +0.000 C 
ATOM     11  C   UNL     1      -0.256  12.592  20.835  0.00  0.00    +0.000 C 
ATOM     12  C   UNL     1      -0.329  13.337  22.188  0.00  0.00    +0.000 C 
ATOM     13  C   UNL     1       1.740   9.185  19.727  0.00  0.00    +0.000 C 
ENDROOT
BRANCH  10  14
ATOM     14  O   UNL     1      -0.156  14.727  19.576  0.00  0.00    +0.000 OA
ATOM     15  H   UNL     1       0.448  15.345  19.133  0.00  0.00    +0.000 HD
ENDBRANCH  10  14
BRANCH  11  16
ATOM     16  C   UNL     1      -1.735  12.532  20.318  0.00  0.00    +0.000 C 
BRANCH  16  17
ATOM     17  O   UNL     1      -2.756  12.556  21.335  0.00  0.00    +0.000 OA
BRANCH  17  18
ATOM     18  C   UNL     1      -3.645  13.679  21.124  0.00  0.00    +0.000 C 
ATOM     19  O   UNL     1      -3.709  14.527  22.277  0.00  0.00    +0.000 OA
ATOM     20  C   UNL     1      -4.686  14.212  23.277  0.00  0.00    +0.000 C 
ATOM     21  C   UNL     1      -6.080  14.172  22.639  0.00  0.00    +0.000 C 
ATOM     22  C   UNL     1      -6.182  13.133  21.516  0.00  0.00    +0.000 C 
ATOM     23  C   UNL     1      -5.023  13.279  20.511  0.00  0.00    +0.000 C 
BRANCH  21  24
ATOM     24  O   UNL     1      -6.352  15.470  22.059  0.00  0.00    +0.000 OA
ATOM     25  H   UNL     1      -5.625  15.691  21.446  0.00  0.00    +0.000 HD
ENDBRANCH  21  24
BRANCH  22  26
ATOM     26  O   UNL     1      -6.334  11.805  22.005  0.00  0.00    +0.000 OA
ATOM     27  H   UNL     1      -5.458  11.458  22.280  0.00  0.00    +0.000 HD
ENDBRANCH  22  26
BRANCH  23  28
ATOM     28  O   UNL     1      -5.388  14.314  19.560  0.00  0.00    +0.000 OA
ATOM     29  H   UNL     1      -6.353  14.454  19.643  0.00  0.00    +0.000 HD
ENDBRANCH  23  28
BRANCH  20  30
ATOM     30  C   UNL     1      -4.326  13.011  24.160  0.00  0.00    +0.000 C 
BRANCH  30  31
ATOM     31  O   UNL     1      -5.441  12.480  24.862  0.00  0.00    +0.000 OA
ATOM     32  H   UNL     1      -5.144  11.635  25.268  0.00  0.00    +0.000 HD
ENDBRANCH  30  31
ENDBRANCH  20  30
ENDBRANCH  17  18
ENDBRANCH  16  17
ENDBRANCH  11  16
BRANCH  13  33
ATOM     33  C   UNL     1       1.876   8.334  18.393  0.00  0.00    +0.000 C 
BRANCH  33  34
ATOM     34  C   UNL     1       3.142   7.495  18.082  0.00  0.00    +0.000 C 
BRANCH  34  35
ATOM     35  C   UNL     1       3.012   6.031  18.254  0.00  0.00    +0.000 C 
ATOM     36  C   UNL     1       2.026   5.215  17.870  0.00  0.00    +0.000 C 
ATOM     37  C   UNL     1       2.321   3.827  18.233  0.00  0.00    +0.000 C 
ATOM     38  O   UNL     1       3.576   3.884  18.881  0.00  0.00    +0.000 OA
ATOM     39  C   UNL     1       4.021   5.183  18.908  0.00  0.00    +0.000 C 
ATOM     40  O   UNL     1       5.060   5.568  19.414  0.00  0.00    +0.000 OA
ENDBRANCH  34  35
ENDBRANCH  33  34
ENDBRANCH  13  33
TORSDOF 12
ENDMDL
MODEL 5
REMARK VINA RESULT:      -6.6      3.223      8.499
REMARK  Name = 
REMARK  14 active torsions:
REMARK  status: ('A' for Active; 'I' for Inactive)
REMARK    1  A    between atoms: C_6  and  C_7
REMARK    2  A    between atoms: C_10  and  O_11
REMARK    3  A    between atoms: C_12  and  C_13
REMARK    4  A    between atoms: C_12  and  C_14
REMARK    5  A    between atoms: C_14  and  O_15
REMARK    6  A    between atoms: O_15  and  C_16
REMARK    7  A    between atoms: C_18  and  C_19
REMARK    8  A    between atoms: C_19  and  O_20
REMARK    9  A    between atoms: C_21  and  O_22
REMARK   10  A    between atoms: C_23  and  O_24
REMARK   11  A    between atoms: C_25  and  O_26
REMARK   12  A    between atoms: C_27  and  C_28
REMARK   13  A    between atoms: C_28  and  C_29
REMARK   14  A    between atoms: C_29  and  C_30
REMARK                            x       y       z     vdW  Elec       q    Type
REMARK                         _______ _______ _______ _____ _____    ______ ____
ROOT
ATOM      1  C   UNL     1      -3.650  14.291  23.281  0.00  0.00    +0.000 C 
ATOM      2  C   UNL     1      -3.323  13.132  22.678  0.00  0.00    +0.000 C 
ATOM      3  C   UNL     1      -2.337  12.194  23.344  0.00  0.00    +0.000 C 
ATOM      4  C   UNL     1      -1.079  11.928  22.491  0.00  0.00    +0.000 C 
ATOM      5  C   UNL     1      -1.396  11.563  21.028  0.00  0.00    +0.000 C 
ATOM      6  C   UNL     1      -2.449  12.548  20.383  0.00  0.00    +0.000 C 
ATOM      7  C   UNL     1      -1.879  13.986  20.286  0.00  0.00    +0.000 C 
ATOM      8  C   UNL     1      -2.856  11.936  19.031  0.00  0.00    +0.000 C 
ATOM      9  C   UNL     1      -1.832  11.262  18.136  0.00  0.00    +0.000 C 
ATOM     10  C   UNL     1      -0.722  10.500  18.832  0.00  0.00    +0.000 C 
ATOM     11  C   UNL     1      -0.131  11.247  20.073  0.00  0.00    +0.000 C 
ATOM     12  C   UNL     1       0.859  10.285  20.768  0.00  0.00    +0.000 C 
ATOM     13  C   UNL     1      -3.775  12.703  21.264  0.00  0.00    +0.000 C 
ENDROOT
BRANCH  10  14
ATOM     14  O   UNL     1       0.289  10.207  17.860  0.00  0.00    +0.000 OA
ATOM     15  H   UNL     1       0.769   9.408  18.132  0.00  0.00    +0.000 HD
ENDBRANCH  10  14
BRANCH  11  16
ATOM     16  C   UNL     1       0.753  12.419  19.520  0.00  0.00    +0.000 C 
BRANCH  16  17
ATOM     17  O   UNL     1       1.872  12.802  20.345  0.00  0.00    +0.000 OA
BRANCH  17  18
ATOM     18  C   UNL     1       1.740  14.184  20.756  0.00  0.00    +0.000 C 
ATOM     19  O   UNL     1       1.402  15.034  19.653  0.00  0.00    +0.000 OA
ATOM     20  C   UNL     1       2.482  15.585  18.888  0.00  0.00    +0.000 C 
ATOM     21  C   UNL     1       3.425  16.362  19.815  0.00  0.00    +0.000 C 
ATOM     22  C   UNL     1       4.015  15.482  20.923  0.00  0.00    +0.000 C 
ATOM     23  C   UNL     1       2.915  14.685  21.652  0.00  0.00    +0.000 C 
BRANCH  21  24
ATOM     24  O   UNL     1       2.667  17.418  20.453  0.00  0.00    +0.000 OA
ATOM     25  H   UNL     1       2.951  18.271  20.073  0.00  0.00    +0.000 HD
ENDBRANCH  21  24
BRANCH  22  26
ATOM     26  O   UNL     1       5.087  14.664  20.466  0.00  0.00    +0.000 OA
ATOM     27  H   UNL     1       5.662  15.188  19.866  0.00  0.00    +0.000 HD
ENDBRANCH  22  26
BRANCH  23  28
ATOM     28  O   UNL     1       2.343  15.549  22.669  0.00  0.00    +0.000 OA
ATOM     29  H   UNL     1       1.850  14.976  23.290  0.00  0.00    +0.000 HD
ENDBRANCH  23  28
BRANCH  20  30
ATOM     30  C   UNL     1       3.157  14.591  17.936  0.00  0.00    +0.000 C 
BRANCH  30  31
ATOM     31  O   UNL     1       4.415  15.044  17.456  0.00  0.00    +0.000 OA
ATOM     32  H   UNL     1       4.750  15.697  18.112  0.00  0.00    +0.000 HD
ENDBRANCH  30  31
ENDBRANCH  20  30
ENDBRANCH  17  18
ENDBRANCH  16  17
ENDBRANCH  11  16
BRANCH  13  33
ATOM     33  C   UNL     1      -4.857  13.690  20.650  0.00  0.00    +0.000 C 
BRANCH  33  34
ATOM     34  C   UNL     1      -6.363  13.325  20.596  0.00  0.00    +0.000 C 
BRANCH  34  35
ATOM     35  C   UNL     1      -6.680  11.915  20.277  0.00  0.00    +0.000 C 
ATOM     36  C   UNL     1      -6.451  11.226  19.155  0.00  0.00    +0.000 C 
ATOM     37  C   UNL     1      -6.916   9.843  19.283  0.00  0.00    +0.000 C 
ATOM     38  O   UNL     1      -7.458   9.766  20.587  0.00  0.00    +0.000 OA
ATOM     39  C   UNL     1      -7.330  10.983  21.211  0.00  0.00    +0.000 C 
ATOM     40  O   UNL     1      -7.717  11.249  22.335  0.00  0.00    +0.000 OA
ENDBRANCH  34  35
ENDBRANCH  33  34
ENDBRANCH  13  33
TORSDOF 12
ENDMDL
MODEL 6
REMARK VINA RESULT:      -6.6      1.191      2.050
REMARK  Name = 
REMARK  14 active torsions:
REMARK  status: ('A' for Active; 'I' for Inactive)
REMARK    1  A    between atoms: C_6  and  C_7
REMARK    2  A    between atoms: C_10  and  O_11
REMARK    3  A    between atoms: C_12  and  C_13
REMARK    4  A    between atoms: C_12  and  C_14
REMARK    5  A    between atoms: C_14  and  O_15
REMARK    6  A    between atoms: O_15  and  C_16
REMARK    7  A    between atoms: C_18  and  C_19
REMARK    8  A    between atoms: C_19  and  O_20
REMARK    9  A    between atoms: C_21  and  O_22
REMARK   10  A    between atoms: C_23  and  O_24
REMARK   11  A    between atoms: C_25  and  O_26
REMARK   12  A    between atoms: C_27  and  C_28
REMARK   13  A    between atoms: C_28  and  C_29
REMARK   14  A    between atoms: C_29  and  C_30
REMARK                            x       y       z     vdW  Elec       q    Type
REMARK                         _______ _______ _______ _____ _____    ______ ____
ROOT
ATOM      1  C   UNL     1      -0.097   7.692  21.072  0.00  0.00    +0.000 C 
ATOM      2  C   UNL     1       0.461   8.909  21.213  0.00  0.00    +0.000 C 
ATOM      3  C   UNL     1       0.380   9.620  22.549  0.00  0.00    +0.000 C 
ATOM      4  C   UNL     1      -0.351  10.977  22.473  0.00  0.00    +0.000 C 
ATOM      5  C   UNL     1       0.138  11.873  21.319  0.00  0.00    +0.000 C 
ATOM      6  C   UNL     1       0.237  11.086  19.954  0.00  0.00    +0.000 C 
ATOM      7  C   UNL     1      -1.162  10.613  19.482  0.00  0.00    +0.000 C 
ATOM      8  C   UNL     1       0.960  12.013  18.961  0.00  0.00    +0.000 C 
ATOM      9  C   UNL     1       0.679  13.504  18.934  0.00  0.00    +0.000 C 
ATOM     10  C   UNL     1       0.386  14.162  20.267  0.00  0.00    +0.000 C 
ATOM     11  C   UNL     1      -0.564  13.323  21.185  0.00  0.00    +0.000 C 
ATOM     12  C   UNL     1      -0.632  14.033  22.556  0.00  0.00    +0.000 C 
ATOM     13  C   UNL     1       1.093   9.739  20.073  0.00  0.00    +0.000 C 
ENDROOT
BRANCH  10  14
ATOM     14  O   UNL     1      -0.146  15.467  20.008  0.00  0.00    +0.000 OA
ATOM     15  H   UNL     1      -0.800  15.684  20.691  0.00  0.00    +0.000 HD
ENDBRANCH  10  14
BRANCH  11  16
ATOM     16  C   UNL     1      -2.007  13.449  20.584  0.00  0.00    +0.000 C 
BRANCH  16  17
ATOM     17  O   UNL     1      -2.761  14.605  21.000  0.00  0.00    +0.000 OA
BRANCH  17  18
ATOM     18  C   UNL     1      -4.172  14.286  21.058  0.00  0.00    +0.000 C 
ATOM     19  O   UNL     1      -4.905  15.268  21.802  0.00  0.00    +0.000 OA
ATOM     20  C   UNL     1      -5.019  15.076  23.217  0.00  0.00    +0.000 C 
ATOM     21  C   UNL     1      -5.639  13.703  23.503  0.00  0.00    +0.000 C 
ATOM     22  C   UNL     1      -4.809  12.552  22.922  0.00  0.00    +0.000 C 
ATOM     23  C   UNL     1      -4.463  12.802  21.441  0.00  0.00    +0.000 C 
BRANCH  21  24
ATOM     24  O   UNL     1      -6.946  13.657  22.880  0.00  0.00    +0.000 OA
ATOM     25  H   UNL     1      -7.383  14.518  23.021  0.00  0.00    +0.000 HD
ENDBRANCH  21  24
BRANCH  22  26
ATOM     26  O   UNL     1      -3.671  12.236  23.717  0.00  0.00    +0.000 OA
ATOM     27  H   UNL     1      -3.631  12.848  24.483  0.00  0.00    +0.000 HD
ENDBRANCH  22  26
BRANCH  23  28
ATOM     28  O   UNL     1      -5.593  12.365  20.642  0.00  0.00    +0.000 OA
ATOM     29  H   UNL     1      -6.325  12.167  21.260  0.00  0.00    +0.000 HD
ENDBRANCH  23  28
BRANCH  20  30
ATOM     30  C   UNL     1      -3.746  15.406  24.007  0.00  0.00    +0.000 C 
BRANCH  30  31
ATOM     31  O   UNL     1      -3.726  14.822  25.302  0.00  0.00    +0.000 OA
ATOM     32  H   UNL     1      -3.219  15.435  25.881  0.00  0.00    +0.000 HD
ENDBRANCH  30  31
ENDBRANCH  20  30
ENDBRANCH  17  18
ENDBRANCH  16  17
ENDBRANCH  11  16
BRANCH  13  33
ATOM     33  C   UNL     1       1.210   8.917  18.720  0.00  0.00    +0.000 C 
BRANCH  33  34
ATOM     34  C   UNL     1       2.583   8.513  18.123  0.00  0.00    +0.000 C 
BRANCH  34  35
ATOM     35  C   UNL     1       2.892   7.066  18.120  0.00  0.00    +0.000 C 
ATOM     36  C   UNL     1       2.215   6.052  18.665  0.00  0.00    +0.000 C 
ATOM     37  C   UNL     1       2.879   4.773  18.402  0.00  0.00    +0.000 C 
ATOM     38  O   UNL     1       4.029   5.114  17.653  0.00  0.00    +0.000 OA
ATOM     39  C   UNL     1       4.067   6.474  17.462  0.00  0.00    +0.000 C 
ATOM     40  O   UNL     1       4.942   7.084  16.874  0.00  0.00    +0.000 OA
ENDBRANCH  34  35
ENDBRANCH  33  34
ENDBRANCH  13  33
TORSDOF 12
ENDMDL
MODEL 7
REMARK VINA RESULT:      -6.6      1.176      1.340
REMARK  Name = 
REMARK  14 active torsions:
REMARK  status: ('A' for Active; 'I' for Inactive)
REMARK    1  A    between atoms: C_6  and  C_7
REMARK    2  A    between atoms: C_10  and  O_11
REMARK    3  A    between atoms: C_12  and  C_13
REMARK    4  A    between atoms: C_12  and  C_14
REMARK    5  A    between atoms: C_14  and  O_15
REMARK    6  A    between atoms: O_15  and  C_16
REMARK    7  A    between atoms: C_18  and  C_19
REMARK    8  A    between atoms: C_19  and  O_20
REMARK    9  A    between atoms: C_21  and  O_22
REMARK   10  A    between atoms: C_23  and  O_24
REMARK   11  A    between atoms: C_25  and  O_26
REMARK   12  A    between atoms: C_27  and  C_28
REMARK   13  A    between atoms: C_28  and  C_29
REMARK   14  A    between atoms: C_29  and  C_30
REMARK                            x       y       z     vdW  Elec       q    Type
REMARK                         _______ _______ _______ _____ _____    ______ ____
ROOT
ATOM      1  C   UNL     1       0.967   7.165  20.990  0.00  0.00    +0.000 C 
ATOM      2  C   UNL     1       1.270   8.477  20.965  0.00  0.00    +0.000 C 
ATOM      3  C   UNL     1       1.282   9.268  22.258  0.00  0.00    +0.000 C 
ATOM      4  C   UNL     1       0.277  10.439  22.264  0.00  0.00    +0.000 C 
ATOM      5  C   UNL     1       0.348  11.315  20.998  0.00  0.00    +0.000 C 
ATOM      6  C   UNL     1       0.364  10.450  19.676  0.00  0.00    +0.000 C 
ATOM      7  C   UNL     1      -0.964   9.669  19.507  0.00  0.00    +0.000 C 
ATOM      8  C   UNL     1       0.682  11.416  18.521  0.00  0.00    +0.000 C 
ATOM      9  C   UNL     1       0.091  12.812  18.482  0.00  0.00    +0.000 C 
ATOM     10  C   UNL     1      -0.090  13.509  19.816  0.00  0.00    +0.000 C 
ATOM     11  C   UNL     1      -0.658  12.578  20.937  0.00  0.00    +0.000 C 
ATOM     12  C   UNL     1      -0.626  13.373  22.262  0.00  0.00    +0.000 C 
ATOM     13  C   UNL     1       1.494   9.318  19.688  0.00  0.00    +0.000 C 
ENDROOT
BRANCH  10  14
ATOM     14  O   UNL     1      -0.925  14.654  19.606  0.00  0.00    +0.000 OA
ATOM     15  H   UNL     1      -1.360  14.887  20.442  0.00  0.00    +0.000 HD
ENDBRANCH  10  14
BRANCH  11  16
ATOM     16  C   UNL     1      -2.179  12.361  20.622  0.00  0.00    +0.000 C 
BRANCH  16  17
ATOM     17  O   UNL     1      -3.092  13.243  21.305  0.00  0.00    +0.000 OA
BRANCH  17  18
ATOM     18  C   UNL     1      -4.007  12.477  22.125  0.00  0.00    +0.000 C 
ATOM     19  O   UNL     1      -5.187  12.110  21.398  0.00  0.00    +0.000 OA
ATOM     20  C   UNL     1      -6.283  13.033  21.407  0.00  0.00    +0.000 C 
ATOM     21  C   UNL     1      -6.692  13.334  22.854  0.00  0.00    +0.000 C 
ATOM     22  C   UNL     1      -5.544  13.935  23.675  0.00  0.00    +0.000 C 
ATOM     23  C   UNL     1      -4.257  13.100  23.534  0.00  0.00    +0.000 C 
BRANCH  21  24
ATOM     24  O   UNL     1      -7.074  12.088  23.486  0.00  0.00    +0.000 OA
ATOM     25  H   UNL     1      -7.739  12.285  24.173  0.00  0.00    +0.000 HD
ENDBRANCH  21  24
BRANCH  22  26
ATOM     26  O   UNL     1      -5.345  15.320  23.411  0.00  0.00    +0.000 OA
ATOM     27  H   UNL     1      -5.941  15.849  23.984  0.00  0.00    +0.000 HD
ENDBRANCH  22  26
BRANCH  23  28
ATOM     28  O   UNL     1      -4.334  12.003  24.482  0.00  0.00    +0.000 OA
ATOM     29  H   UNL     1      -4.925  12.289  25.207  0.00  0.00    +0.000 HD
ENDBRANCH  23  28
BRANCH  20  30
ATOM     30  C   UNL     1      -6.089  14.257  20.504  0.00  0.00    +0.000 C 
BRANCH  30  31
ATOM     31  O   UNL     1      -5.319  13.978  19.343  0.00  0.00    +0.000 OA
ATOM     32  H   UNL     1      -5.730  14.479  18.603  0.00  0.00    +0.000 HD
ENDBRANCH  30  31
ENDBRANCH  20  30
ENDBRANCH  17  18
ENDBRANCH  16  17
ENDBRANCH  11  16
BRANCH  13  33
ATOM     33  C   UNL     1       1.537   8.423  18.377  0.00  0.00    +0.000 C 
BRANCH  33  34
ATOM     34  C   UNL     1       2.854   7.783  17.864  0.00  0.00    +0.000 C 
BRANCH  34  35
ATOM     35  C   UNL     1       3.175   6.441  18.397  0.00  0.00    +0.000 C 
ATOM     36  C   UNL     1       4.193   6.056  19.173  0.00  0.00    +0.000 C 
ATOM     37  C   UNL     1       4.112   4.626  19.477  0.00  0.00    +0.000 C 
ATOM     38  O   UNL     1       2.951   4.181  18.802  0.00  0.00    +0.000 OA
ATOM     39  C   UNL     1       2.365   5.238  18.150  0.00  0.00    +0.000 C 
ATOM     40  O   UNL     1       1.361   5.180  17.462  0.00  0.00    +0.000 OA
ENDBRANCH  34  35
ENDBRANCH  33  34
ENDBRANCH  13  33
TORSDOF 12
ENDMDL
MODEL 8
REMARK VINA RESULT:      -6.6      2.725      5.453
REMARK  Name = 
REMARK  14 active torsions:
REMARK  status: ('A' for Active; 'I' for Inactive)
REMARK    1  A    between atoms: C_6  and  C_7
REMARK    2  A    between atoms: C_10  and  O_11
REMARK    3  A    between atoms: C_12  and  C_13
REMARK    4  A    between atoms: C_12  and  C_14
REMARK    5  A    between atoms: C_14  and  O_15
REMARK    6  A    between atoms: O_15  and  C_16
REMARK    7  A    between atoms: C_18  and  C_19
REMARK    8  A    between atoms: C_19  and  O_20
REMARK    9  A    between atoms: C_21  and  O_22
REMARK   10  A    between atoms: C_23  and  O_24
REMARK   11  A    between atoms: C_25  and  O_26
REMARK   12  A    between atoms: C_27  and  C_28
REMARK   13  A    between atoms: C_28  and  C_29
REMARK   14  A    between atoms: C_29  and  C_30
REMARK                            x       y       z     vdW  Elec       q    Type
REMARK                         _______ _______ _______ _____ _____    ______ ____
ROOT
ATOM      1  C   UNL     1       1.657   9.505  17.920  0.00  0.00    +0.000 C 
ATOM      2  C   UNL     1       0.507   9.665  18.603  0.00  0.00    +0.000 C 
ATOM      3  C   UNL     1      -0.645  10.416  17.964  0.00  0.00    +0.000 C 
ATOM      4  C   UNL     1      -1.071  11.667  18.759  0.00  0.00    +0.000 C 
ATOM      5  C   UNL     1      -1.260  11.402  20.266  0.00  0.00    +0.000 C 
ATOM      6  C   UNL     1      -0.052  10.592  20.883  0.00  0.00    +0.000 C 
ATOM      7  C   UNL     1       1.260  11.414  20.818  0.00  0.00    +0.000 C 
ATOM      8  C   UNL     1      -0.475  10.186  22.306  0.00  0.00    +0.000 C 
ATOM      9  C   UNL     1      -1.255  11.138  23.193  0.00  0.00    +0.000 C 
ATOM     10  C   UNL     1      -2.258  12.039  22.502  0.00  0.00    +0.000 C 
ATOM     11  C   UNL     1      -1.729  12.659  21.167  0.00  0.00    +0.000 C 
ATOM     12  C   UNL     1      -2.906  13.406  20.501  0.00  0.00    +0.000 C 
ATOM     13  C   UNL     1       0.276   9.252  20.073  0.00  0.00    +0.000 C 
ENDROOT
BRANCH  10  14
ATOM     14  O   UNL     1      -2.657  13.052  23.433  0.00  0.00    +0.000 OA
ATOM     15  H   UNL     1      -1.992  13.760  23.436  0.00  0.00    +0.000 HD
ENDBRANCH  10  14
BRANCH  11  16
ATOM     16  C   UNL     1      -0.700  13.776  21.559  0.00  0.00    +0.000 C 
BRANCH  16  17
ATOM     17  O   UNL     1      -1.218  15.121  21.591  0.00  0.00    +0.000 OA
BRANCH  17  18
ATOM     18  C   UNL     1      -0.175  16.048  21.976  0.00  0.00    +0.000 C 
ATOM     19  O   UNL     1      -0.363  17.335  21.374  0.00  0.00    +0.000 OA
ATOM     20  C   UNL     1       0.213  17.551  20.080  0.00  0.00    +0.000 C 
ATOM     21  C   UNL     1       1.720  17.268  20.134  0.00  0.00    +0.000 C 
ATOM     22  C   UNL     1       2.032  15.832  20.572  0.00  0.00    +0.000 C 
ATOM     23  C   UNL     1       1.264  15.457  21.854  0.00  0.00    +0.000 C 
BRANCH  21  24
ATOM     24  O   UNL     1       2.315  18.160  21.107  0.00  0.00    +0.000 OA
ATOM     25  H   UNL     1       2.996  17.664  21.602  0.00  0.00    +0.000 HD
ENDBRANCH  21  24
BRANCH  22  26
ATOM     26  O   UNL     1       1.861  14.886  19.521  0.00  0.00    +0.000 OA
ATOM     27  H   UNL     1       1.459  14.067  19.884  0.00  0.00    +0.000 HD
ENDBRANCH  22  26
BRANCH  23  28
ATOM     28  O   UNL     1       2.028  15.947  22.987  0.00  0.00    +0.000 OA
ATOM     29  H   UNL     1       1.866  15.334  23.731  0.00  0.00    +0.000 HD
ENDBRANCH  23  28
BRANCH  20  30
ATOM     30  C   UNL     1      -0.546  16.883  18.928  0.00  0.00    +0.000 C 
BRANCH  30  31
ATOM     31  O   UNL     1      -1.945  16.789  19.161  0.00  0.00    +0.000 OA
ATOM     32  H   UNL     1      -2.293  17.709  19.171  0.00  0.00    +0.000 HD
ENDBRANCH  30  31
ENDBRANCH  20  30
ENDBRANCH  17  18
ENDBRANCH  16  17
ENDBRANCH  11  16
BRANCH  13  33
ATOM     33  C   UNL     1       1.489   8.412  20.661  0.00  0.00    +0.000 C 
BRANCH  33  34
ATOM     34  C   UNL     1       1.359   6.902  20.987  0.00  0.00    +0.000 C 
BRANCH  34  35
ATOM     35  C   UNL     1       2.036   5.974  20.053  0.00  0.00    +0.000 C 
ATOM     36  C   UNL     1       2.992   6.222  19.154  0.00  0.00    +0.000 C 
ATOM     37  C   UNL     1       3.387   4.998  18.453  0.00  0.00    +0.000 C 
ATOM     38  O   UNL     1       2.570   3.987  19.010  0.00  0.00    +0.000 OA
ATOM     39  C   UNL     1       1.754   4.532  19.972  0.00  0.00    +0.000 C 
ATOM     40  O   UNL     1       0.920   3.928  20.622  0.00  0.00    +0.000 OA
ENDBRANCH  34  35
ENDBRANCH  33  34
ENDBRANCH  13  33
TORSDOF 12
ENDMDL
MODEL 9
REMARK VINA RESULT:      -6.5      0.973      1.833
REMARK  Name = 
REMARK  14 active torsions:
REMARK  status: ('A' for Active; 'I' for Inactive)
REMARK    1  A    between atoms: C_6  and  C_7
REMARK    2  A    between atoms: C_10  and  O_11
REMARK    3  A    between atoms: C_12  and  C_13
REMARK    4  A    between atoms: C_12  and  C_14
REMARK    5  A    between atoms: C_14  and  O_15
REMARK    6  A    between atoms: O_15  and  C_16
REMARK    7  A    between atoms: C_18  and  C_19
REMARK    8  A    between atoms: C_19  and  O_20
REMARK    9  A    between atoms: C_21  and  O_22
REMARK   10  A    between atoms: C_23  and  O_24
REMARK   11  A    between atoms: C_25  and  O_26
REMARK   12  A    between atoms: C_27  and  C_28
REMARK   13  A    between atoms: C_28  and  C_29
REMARK   14  A    between atoms: C_29  and  C_30
REMARK                            x       y       z     vdW  Elec       q    Type
REMARK                         _______ _______ _______ _____ _____    ______ ____
ROOT
ATOM      1  C   UNL     1       0.038   7.752  21.197  0.00  0.00    +0.000 C 
ATOM      2  C   UNL     1       0.434   9.039  21.196  0.00  0.00    +0.000 C 
ATOM      3  C   UNL     1       0.267   9.875  22.450  0.00  0.00    +0.000 C 
ATOM      4  C   UNL     1      -0.634  11.110  22.242  0.00  0.00    +0.000 C 
ATOM      5  C   UNL     1      -0.270  11.931  20.990  0.00  0.00    +0.000 C 
ATOM      6  C   UNL     1      -0.076  11.018  19.715  0.00  0.00    +0.000 C 
ATOM      7  C   UNL     1      -1.403  10.322  19.323  0.00  0.00    +0.000 C 
ATOM      8  C   UNL     1       0.517  11.917  18.615  0.00  0.00    +0.000 C 
ATOM      9  C   UNL     1       0.045  13.348  18.434  0.00  0.00    +0.000 C 
ATOM     10  C   UNL     1      -0.325  14.104  19.694  0.00  0.00    +0.000 C 
ATOM     11  C   UNL     1      -1.154  13.255  20.714  0.00  0.00    +0.000 C 
ATOM     12  C   UNL     1      -1.308  14.095  22.002  0.00  0.00    +0.000 C 
ATOM     13  C   UNL     1       0.948   9.814  19.963  0.00  0.00    +0.000 C 
ENDROOT
BRANCH  10  14
ATOM     14  O   UNL     1      -1.023  15.294  19.306  0.00  0.00    +0.000 OA
ATOM     15  H   UNL     1      -1.966  15.089  19.201  0.00  0.00    +0.000 HD
ENDBRANCH  10  14
BRANCH  11  16
ATOM     16  C   UNL     1      -2.604  13.128  20.129  0.00  0.00    +0.000 C 
BRANCH  16  17
ATOM     17  O   UNL     1      -3.615  12.678  21.053  0.00  0.00    +0.000 OA
BRANCH  17  18
ATOM     18  C   UNL     1      -4.927  13.074  20.588  0.00  0.00    +0.000 C 
ATOM     19  O   UNL     1      -5.139  14.483  20.739  0.00  0.00    +0.000 OA
ATOM     20  C   UNL     1      -5.673  14.942  21.986  0.00  0.00    +0.000 C 
ATOM     21  C   UNL     1      -7.001  14.231  22.271  0.00  0.00    +0.000 C 
ATOM     22  C   UNL     1      -6.847  12.707  22.340  0.00  0.00    +0.000 C 
ATOM     23  C   UNL     1      -6.080  12.165  21.119  0.00  0.00    +0.000 C 
BRANCH  21  24
ATOM     24  O   UNL     1      -7.917  14.528  21.189  0.00  0.00    +0.000 OA
ATOM     25  H   UNL     1      -7.844  15.478  20.978  0.00  0.00    +0.000 HD
ENDBRANCH  21  24
BRANCH  22  26
ATOM     26  O   UNL     1      -6.308  12.263  23.581  0.00  0.00    +0.000 OA
ATOM     27  H   UNL     1      -5.954  13.034  24.076  0.00  0.00    +0.000 HD
ENDBRANCH  22  26
BRANCH  23  28
ATOM     28  O   UNL     1      -7.031  11.999  20.035  0.00  0.00    +0.000 OA
ATOM     29  H   UNL     1      -7.882  12.374  20.339  0.00  0.00    +0.000 HD
ENDBRANCH  23  28
BRANCH  20  30
ATOM     30  C   UNL     1      -4.665  14.954  23.142  0.00  0.00    +0.000 C 
BRANCH  30  31
ATOM     31  O   UNL     1      -5.283  14.909  24.421  0.00  0.00    +0.000 OA
ATOM     32  H   UNL     1      -5.655  14.004  24.524  0.00  0.00    +0.000 HD
ENDBRANCH  30  31
ENDBRANCH  20  30
ENDBRANCH  17  18
ENDBRANCH  16  17
ENDBRANCH  11  16
BRANCH  13  33
ATOM     33  C   UNL     1       1.165   8.871  18.704  0.00  0.00    +0.000 C 
BRANCH  33  34
ATOM     34  C   UNL     1       2.581   8.505  18.189  0.00  0.00    +0.000 C 
BRANCH  34  35
ATOM     35  C   UNL     1       2.963   7.079  18.290  0.00  0.00    +0.000 C 
ATOM     36  C   UNL     1       2.474   6.123  19.086  0.00  0.00    +0.000 C 
ATOM     37  C   UNL     1       3.136   4.841  18.837  0.00  0.00    +0.000 C 
ATOM     38  O   UNL     1       4.080   5.116  17.821  0.00  0.00    +0.000 OA
ATOM     39  C   UNL     1       4.001   6.441  17.466  0.00  0.00    +0.000 C 
ATOM     40  O   UNL     1       4.696   6.996  16.634  0.00  0.00    +0.000 OA
ENDBRANCH  34  35
ENDBRANCH  33  34
ENDBRANCH  13  33
TORSDOF 12
ENDMDL
