MODEL 1
REMARK VINA RESULT:      -8.0      0.000      0.000
REMARK  Name = 
REMARK  7 active torsions:
REMARK  status: ('A' for Active; 'I' for Inactive)
REMARK    1  A    between atoms: C_1  and  C_2
REMARK    2  A    between atoms: C_2  and  C_3
REMARK    3  A    between atoms: C_3  and  N_4
REMARK    4  A    between atoms: N_8  and  N_9
REMARK    5  A    between atoms: N_9  and  C_10
REMARK    6  A    between atoms: C_13  and  S_14
REMARK    7  A    between atoms: S_14  and  N_15
REMARK                            x       y       z     vdW  Elec       q    Type
REMARK                         _______ _______ _______ _____ _____    ______ ____
ROOT
ATOM      1  N   UNL     1       3.437   4.167  19.305  0.00  0.00    +0.000 N 
ATOM      2  C   UNL     1       2.678   5.035  20.074  0.00  0.00    +0.000 C 
ATOM      3  O   UNL     1       2.035   4.826  21.082  0.00  0.00    +0.000 OA
ATOM      4  C   UNL     1       2.798   6.398  19.387  0.00  0.00    +0.000 C 
ATOM      5  N   UNL     1       2.317   7.539  19.766  0.00  0.00    +0.000 NA
ATOM      6  C   UNL     1       3.631   6.182  18.207  0.00  0.00    +0.000 A 
ATOM      7  C   UNL     1       4.055   7.070  17.235  0.00  0.00    +0.000 A 
ATOM      8  C   UNL     1       4.934   6.579  16.264  0.00  0.00    +0.000 A 
ATOM      9  C   UNL     1       5.360   5.239  16.290  0.00  0.00    +0.000 A 
ATOM     10  C   UNL     1       4.900   4.355  17.273  0.00  0.00    +0.000 A 
ATOM     11  C   UNL     1       4.025   4.845  18.226  0.00  0.00    +0.000 A 
ENDROOT
BRANCH   5  12
ATOM     12  N   UNL     1       1.639   7.555  20.946  0.00  0.00    +0.000 N 
ATOM     13  H   UNL     1       1.532   6.711  21.515  0.00  0.00    +0.000 HD
BRANCH  12  14
ATOM     14  C   UNL     1       0.885   8.683  21.302  0.00  0.00    +0.000 A 
ATOM     15  C   UNL     1       0.610   9.709  20.384  0.00  0.00    +0.000 A 
ATOM     16  C   UNL     1      -0.141  10.828  20.748  0.00  0.00    +0.000 A 
ATOM     17  C   UNL     1      -0.615  10.929  22.049  0.00  0.00    +0.000 A 
ATOM     18  C   UNL     1      -0.316   9.953  23.000  0.00  0.00    +0.000 A 
ATOM     19  C   UNL     1       0.435   8.839  22.625  0.00  0.00    +0.000 A 
BRANCH  17  20
ATOM     20  S   UNL     1      -1.705  12.262  22.466  0.00  0.00    +0.000 S 
ATOM     21  O   UNL     1      -2.110  12.934  21.245  0.00  0.00    +0.000 OA
ATOM     22  O   UNL     1      -2.647  11.812  23.460  0.00  0.00    +0.000 OA
BRANCH  20  23
ATOM     23  N   UNL     1      -0.600  13.235  23.227  0.00  0.00    +0.000 NA
ATOM     24  H   UNL     1      -0.597  13.246  24.243  0.00  0.00    +0.000 HD
ATOM     25  H   UNL     1       0.185  13.574  22.681  0.00  0.00    +0.000 HD
ENDBRANCH  20  23
ENDBRANCH  17  20
ENDBRANCH  12  14
ENDBRANCH   5  12
BRANCH   1  26
ATOM     26  C   UNL     1       3.633   2.768  19.609  0.00  0.00    +0.000 C 
BRANCH  26  28
ATOM     27  C   UNL     1       1.333   2.223  18.755  0.00  0.00    +0.000 C 
ATOM     28  C   UNL     1       2.808   1.866  18.694  0.00  0.00    +0.000 C 
ENDBRANCH  26  28
ENDBRANCH   1  26
TORSDOF 6
ENDMDL
MODEL 2
REMARK VINA RESULT:      -7.9      0.725      1.316
REMARK  Name = 
REMARK  7 active torsions:
REMARK  status: ('A' for Active; 'I' for Inactive)
REMARK    1  A    between atoms: C_1  and  C_2
REMARK    2  A    between atoms: C_2  and  C_3
REMARK    3  A    between atoms: C_3  and  N_4
REMARK    4  A    between atoms: N_8  and  N_9
REMARK    5  A    between atoms: N_9  and  C_10
REMARK    6  A    between atoms: C_13  and  S_14
REMARK    7  A    between atoms: S_14  and  N_15
REMARK                            x       y       z     vdW  Elec       q    Type
REMARK                         _______ _______ _______ _____ _____    ______ ____
ROOT
ATOM      1  N   UNL     1       3.543   4.192  19.340  0.00  0.00    +0.000 N 
ATOM      2  C   UNL     1       2.734   5.039  20.081  0.00  0.00    +0.000 C 
ATOM      3  O   UNL     1       2.085   4.820  21.083  0.00  0.00    +0.000 OA
ATOM      4  C   UNL     1       2.805   6.393  19.369  0.00  0.00    +0.000 C 
ATOM      5  N   UNL     1       2.266   7.517  19.719  0.00  0.00    +0.000 NA
ATOM      6  C   UNL     1       3.665   6.193  18.207  0.00  0.00    +0.000 A 
ATOM      7  C   UNL     1       4.065   7.080  17.224  0.00  0.00    +0.000 A 
ATOM      8  C   UNL     1       4.980   6.611  16.276  0.00  0.00    +0.000 A 
ATOM      9  C   UNL     1       5.465   5.292  16.335  0.00  0.00    +0.000 A 
ATOM     10  C   UNL     1       5.029   4.407  17.328  0.00  0.00    +0.000 A 
ATOM     11  C   UNL     1       4.118   4.875  18.258  0.00  0.00    +0.000 A 
ENDROOT
BRANCH   5  12
ATOM     12  N   UNL     1       1.569   7.526  20.887  0.00  0.00    +0.000 N 
ATOM     13  H   UNL     1       1.431   6.671  21.435  0.00  0.00    +0.000 HD
BRANCH  12  14
ATOM     14  C   UNL     1       0.840   8.665  21.257  0.00  0.00    +0.000 A 
ATOM     15  C   UNL     1       0.460   8.901  22.588  0.00  0.00    +0.000 A 
ATOM     16  C   UNL     1      -0.266  10.038  22.946  0.00  0.00    +0.000 A 
ATOM     17  C   UNL     1      -0.628  10.946  21.960  0.00  0.00    +0.000 A 
ATOM     18  C   UNL     1      -0.312  10.716  20.620  0.00  0.00    +0.000 A 
ATOM     19  C   UNL     1       0.415   9.577  20.275  0.00  0.00    +0.000 A 
BRANCH  17  20
ATOM     20  S   UNL     1      -1.402  12.467  22.436  0.00  0.00    +0.000 S 
ATOM     21  O   UNL     1      -0.497  13.203  23.299  0.00  0.00    +0.000 OA
ATOM     22  O   UNL     1      -2.037  13.057  21.284  0.00  0.00    +0.000 OA
BRANCH  20  23
ATOM     23  N   UNL     1      -2.595  11.829  23.394  0.00  0.00    +0.000 NA
ATOM     24  H   UNL     1      -2.586  12.064  24.383  0.00  0.00    +0.000 HD
ATOM     25  H   UNL     1      -3.418  11.454  22.935  0.00  0.00    +0.000 HD
ENDBRANCH  20  23
ENDBRANCH  17  20
ENDBRANCH  12  14
ENDBRANCH   5  12
BRANCH   1  26
ATOM     26  C   UNL     1       3.798   2.809  19.675  0.00  0.00    +0.000 C 
BRANCH  26  28
ATOM     27  C   UNL     1       1.579   2.096  18.731  0.00  0.00    +0.000 C 
ATOM     28  C   UNL     1       3.079   1.853  18.725  0.00  0.00    +0.000 C 
ENDBRANCH  26  28
ENDBRANCH   1  26
TORSDOF 6
ENDMDL
MODEL 3
REMARK VINA RESULT:      -7.9      0.797      1.322
REMARK  Name = 
REMARK  7 active torsions:
REMARK  status: ('A' for Active; 'I' for Inactive)
REMARK    1  A    between atoms: C_1  and  C_2
REMARK    2  A    between atoms: C_2  and  C_3
REMARK    3  A    between atoms: C_3  and  N_4
REMARK    4  A    between atoms: N_8  and  N_9
REMARK    5  A    between atoms: N_9  and  C_10
REMARK    6  A    between atoms: C_13  and  S_14
REMARK    7  A    between atoms: S_14  and  N_15
REMARK                            x       y       z     vdW  Elec       q    Type
REMARK                         _______ _______ _______ _____ _____    ______ ____
ROOT
ATOM      1  N   UNL     1       3.024   4.257  19.066  0.00  0.00    +0.000 N 
ATOM      2  C   UNL     1       2.342   5.125  19.904  0.00  0.00    +0.000 C 
ATOM      3  O   UNL     1       1.653   4.891  20.876  0.00  0.00    +0.000 OA
ATOM      4  C   UNL     1       2.626   6.526  19.356  0.00  0.00    +0.000 C 
ATOM      5  N   UNL     1       2.258   7.670  19.837  0.00  0.00    +0.000 NA
ATOM      6  C   UNL     1       3.462   6.335  18.174  0.00  0.00    +0.000 A 
ATOM      7  C   UNL     1       4.005   7.260  17.301  0.00  0.00    +0.000 A 
ATOM      8  C   UNL     1       4.851   6.771  16.301  0.00  0.00    +0.000 A 
ATOM      9  C   UNL     1       5.131   5.396  16.203  0.00  0.00    +0.000 A 
ATOM     10  C   UNL     1       4.553   4.477  17.087  0.00  0.00    +0.000 A 
ATOM     11  C   UNL     1       3.710   4.967  18.069  0.00  0.00    +0.000 A 
ENDROOT
BRANCH   5  12
ATOM     12  N   UNL     1       1.554   7.648  21.001  0.00  0.00    +0.000 N 
ATOM     13  H   UNL     1       1.419   6.781  21.529  0.00  0.00    +0.000 HD
BRANCH  12  14
ATOM     14  C   UNL     1       0.814   8.774  21.391  0.00  0.00    +0.000 A 
ATOM     15  C   UNL     1       0.353   8.935  22.707  0.00  0.00    +0.000 A 
ATOM     16  C   UNL     1      -0.383  10.059  23.086  0.00  0.00    +0.000 A 
ATOM     17  C   UNL     1      -0.671  11.029  22.136  0.00  0.00    +0.000 A 
ATOM     18  C   UNL     1      -0.272  10.875  20.807  0.00  0.00    +0.000 A 
ATOM     19  C   UNL     1       0.463   9.748  20.441  0.00  0.00    +0.000 A 
BRANCH  17  20
ATOM     20  S   UNL     1      -1.459  12.531  22.652  0.00  0.00    +0.000 S 
ATOM     21  O   UNL     1      -2.767  12.211  23.192  0.00  0.00    +0.000 OA
ATOM     22  O   UNL     1      -0.503  13.353  23.351  0.00  0.00    +0.000 OA
BRANCH  20  23
ATOM     23  N   UNL     1      -1.689  13.198  21.151  0.00  0.00    +0.000 NA
ATOM     24  H   UNL     1      -0.953  13.078  20.460  0.00  0.00    +0.000 HD
ATOM     25  H   UNL     1      -2.633  13.466  20.895  0.00  0.00    +0.000 HD
ENDBRANCH  20  23
ENDBRANCH  17  20
ENDBRANCH  12  14
ENDBRANCH   5  12
BRANCH   1  26
ATOM     26  C   UNL     1       3.062   2.822  19.235  0.00  0.00    +0.000 C 
BRANCH  26  28
ATOM     27  C   UNL     1       0.666   2.215  18.778  0.00  0.00    +0.000 C 
ATOM     28  C   UNL     1       2.099   2.112  18.286  0.00  0.00    +0.000 C 
ENDBRANCH  26  28
ENDBRANCH   1  26
TORSDOF 6
ENDMDL
MODEL 4
REMARK VINA RESULT:      -7.7      2.216      3.684
REMARK  Name = 
REMARK  7 active torsions:
REMARK  status: ('A' for Active; 'I' for Inactive)
REMARK    1  A    between atoms: C_1  and  C_2
REMARK    2  A    between atoms: C_2  and  C_3
REMARK    3  A    between atoms: C_3  and  N_4
REMARK    4  A    between atoms: N_8  and  N_9
REMARK    5  A    between atoms: N_9  and  C_10
REMARK    6  A    between atoms: C_13  and  S_14
REMARK    7  A    between atoms: S_14  and  N_15
REMARK                            x       y       z     vdW  Elec       q    Type
REMARK                         _______ _______ _______ _____ _____    ______ ____
ROOT
ATOM      1  N   UNL     1       3.809   5.042  17.549  0.00  0.00    +0.000 N 
ATOM      2  C   UNL     1       3.563   6.202  18.267  0.00  0.00    +0.000 C 
ATOM      3  O   UNL     1       4.031   7.314  18.138  0.00  0.00    +0.000 OA
ATOM      4  C   UNL     1       2.526   5.813  19.325  0.00  0.00    +0.000 C 
ATOM      5  N   UNL     1       1.936   6.571  20.193  0.00  0.00    +0.000 NA
ATOM      6  C   UNL     1       2.274   4.387  19.136  0.00  0.00    +0.000 A 
ATOM      7  C   UNL     1       1.429   3.529  19.817  0.00  0.00    +0.000 A 
ATOM      8  C   UNL     1       1.334   2.218  19.340  0.00  0.00    +0.000 A 
ATOM      9  C   UNL     1       2.069   1.807  18.213  0.00  0.00    +0.000 A 
ATOM     10  C   UNL     1       2.932   2.689  17.553  0.00  0.00    +0.000 A 
ATOM     11  C   UNL     1       3.028   3.982  18.036  0.00  0.00    +0.000 A 
ENDROOT
BRANCH   5  12
ATOM     12  N   UNL     1       2.238   7.896  20.155  0.00  0.00    +0.000 N 
ATOM     13  H   UNL     1       3.115   8.257  20.542  0.00  0.00    +0.000 HD
BRANCH  12  14
ATOM     14  C   UNL     1       1.258   8.826  19.780  0.00  0.00    +0.000 A 
ATOM     15  C   UNL     1       1.078   9.212  18.442  0.00  0.00    +0.000 A 
ATOM     16  C   UNL     1       0.099  10.139  18.079  0.00  0.00    +0.000 A 
ATOM     17  C   UNL     1      -0.704  10.695  19.065  0.00  0.00    +0.000 A 
ATOM     18  C   UNL     1      -0.518  10.373  20.410  0.00  0.00    +0.000 A 
ATOM     19  C   UNL     1       0.463   9.445  20.761  0.00  0.00    +0.000 A 
BRANCH  17  20
ATOM     20  S   UNL     1      -2.052  11.741  18.588  0.00  0.00    +0.000 S 
ATOM     21  O   UNL     1      -3.020  10.949  17.852  0.00  0.00    +0.000 OA
ATOM     22  O   UNL     1      -2.415  12.585  19.698  0.00  0.00    +0.000 OA
BRANCH  20  23
ATOM     23  N   UNL     1      -1.239  12.679  17.489  0.00  0.00    +0.000 NA
ATOM     24  H   UNL     1      -0.441  12.268  17.012  0.00  0.00    +0.000 HD
ATOM     25  H   UNL     1      -1.704  13.512  17.145  0.00  0.00    +0.000 HD
ENDBRANCH  20  23
ENDBRANCH  17  20
ENDBRANCH  12  14
ENDBRANCH   5  12
BRANCH   1  26
ATOM     26  C   UNL     1       4.707   4.957  16.420  0.00  0.00    +0.000 C 
BRANCH  26  28
ATOM     27  C   UNL     1       7.042   5.725  16.950  0.00  0.00    +0.000 C 
ATOM     28  C   UNL     1       6.111   4.529  16.843  0.00  0.00    +0.000 C 
ENDBRANCH  26  28
ENDBRANCH   1  26
TORSDOF 6
ENDMDL
MODEL 5
REMARK VINA RESULT:      -7.7      3.495      8.671
REMARK  Name = 
REMARK  7 active torsions:
REMARK  status: ('A' for Active; 'I' for Inactive)
REMARK    1  A    between atoms: C_1  and  C_2
REMARK    2  A    between atoms: C_2  and  C_3
REMARK    3  A    between atoms: C_3  and  N_4
REMARK    4  A    between atoms: N_8  and  N_9
REMARK    5  A    between atoms: N_9  and  C_10
REMARK    6  A    between atoms: C_13  and  S_14
REMARK    7  A    between atoms: S_14  and  N_15
REMARK                            x       y       z     vdW  Elec       q    Type
REMARK                         _______ _______ _______ _____ _____    ______ ____
ROOT
ATOM      1  N   UNL     1      -1.011  11.082  18.931  0.00  0.00    +0.000 N 
ATOM      2  C   UNL     1      -0.056  10.113  18.668  0.00  0.00    +0.000 C 
ATOM      3  O   UNL     1       0.362   9.697  17.607  0.00  0.00    +0.000 OA
ATOM      4  C   UNL     1       0.414   9.622  20.041  0.00  0.00    +0.000 C 
ATOM      5  N   UNL     1       1.343   8.764  20.316  0.00  0.00    +0.000 NA
ATOM      6  C   UNL     1      -0.369  10.365  21.024  0.00  0.00    +0.000 A 
ATOM      7  C   UNL     1      -0.352  10.315  22.406  0.00  0.00    +0.000 A 
ATOM      8  C   UNL     1      -1.166  11.227  23.086  0.00  0.00    +0.000 A 
ATOM      9  C   UNL     1      -1.959  12.150  22.380  0.00  0.00    +0.000 A 
ATOM     10  C   UNL     1      -1.974  12.166  20.981  0.00  0.00    +0.000 A 
ATOM     11  C   UNL     1      -1.173  11.256  20.315  0.00  0.00    +0.000 A 
ENDROOT
BRANCH   5  12
ATOM     12  N   UNL     1       2.027   8.242  19.262  0.00  0.00    +0.000 N 
ATOM     13  H   UNL     1       2.125   8.754  18.380  0.00  0.00    +0.000 HD
BRANCH  12  14
ATOM     14  C   UNL     1       2.426   6.897  19.285  0.00  0.00    +0.000 A 
ATOM     15  C   UNL     1       2.130   6.057  20.370  0.00  0.00    +0.000 A 
ATOM     16  C   UNL     1       2.532   4.720  20.384  0.00  0.00    +0.000 A 
ATOM     17  C   UNL     1       3.247   4.219  19.305  0.00  0.00    +0.000 A 
ATOM     18  C   UNL     1       3.602   5.040  18.234  0.00  0.00    +0.000 A 
ATOM     19  C   UNL     1       3.195   6.373  18.231  0.00  0.00    +0.000 A 
BRANCH  17  20
ATOM     20  S   UNL     1       3.611   2.485  19.247  0.00  0.00    +0.000 S 
ATOM     21  O   UNL     1       4.648   2.192  20.219  0.00  0.00    +0.000 OA
ATOM     22  O   UNL     1       2.378   1.743  19.170  0.00  0.00    +0.000 OA
BRANCH  20  23
ATOM     23  N   UNL     1       4.313   2.448  17.745  0.00  0.00    +0.000 NA
ATOM     24  H   UNL     1       5.135   1.863  17.619  0.00  0.00    +0.000 HD
ATOM     25  H   UNL     1       3.766   2.788  16.961  0.00  0.00    +0.000 HD
ENDBRANCH  20  23
ENDBRANCH  17  20
ENDBRANCH  12  14
ENDBRANCH   5  12
BRANCH   1  26
ATOM     26  C   UNL     1      -1.702  11.843  17.915  0.00  0.00    +0.000 C 
BRANCH  26  28
ATOM     27  C   UNL     1      -2.778  10.961  15.822  0.00  0.00    +0.000 C 
ATOM     28  C   UNL     1      -2.884  11.072  17.333  0.00  0.00    +0.000 C 
ENDBRANCH  26  28
ENDBRANCH   1  26
TORSDOF 6
ENDMDL
MODEL 6
REMARK VINA RESULT:      -7.7      0.925      1.287
REMARK  Name = 
REMARK  7 active torsions:
REMARK  status: ('A' for Active; 'I' for Inactive)
REMARK    1  A    between atoms: C_1  and  C_2
REMARK    2  A    between atoms: C_2  and  C_3
REMARK    3  A    between atoms: C_3  and  N_4
REMARK    4  A    between atoms: N_8  and  N_9
REMARK    5  A    between atoms: N_9  and  C_10
REMARK    6  A    between atoms: C_13  and  S_14
REMARK    7  A    between atoms: S_14  and  N_15
REMARK                            x       y       z     vdW  Elec       q    Type
REMARK                         _______ _______ _______ _____ _____    ______ ____
ROOT
ATOM      1  N   UNL     1       2.483   4.210  18.861  0.00  0.00    +0.000 N 
ATOM      2  C   UNL     1       1.886   5.112  19.727  0.00  0.00    +0.000 C 
ATOM      3  O   UNL     1       1.090   4.923  20.624  0.00  0.00    +0.000 OA
ATOM      4  C   UNL     1       2.440   6.484  19.331  0.00  0.00    +0.000 C 
ATOM      5  N   UNL     1       2.227   7.632  19.889  0.00  0.00    +0.000 NA
ATOM      6  C   UNL     1       3.328   6.247  18.197  0.00  0.00    +0.000 A 
ATOM      7  C   UNL     1       4.085   7.132  17.452  0.00  0.00    +0.000 A 
ATOM      8  C   UNL     1       4.920   6.588  16.470  0.00  0.00    +0.000 A 
ATOM      9  C   UNL     1       4.977   5.197  16.265  0.00  0.00    +0.000 A 
ATOM     10  C   UNL     1       4.186   4.323  17.019  0.00  0.00    +0.000 A 
ATOM     11  C   UNL     1       3.356   4.870  17.982  0.00  0.00    +0.000 A 
ENDROOT
BRANCH   5  12
ATOM     12  N   UNL     1       1.435   7.638  20.996  0.00  0.00    +0.000 N 
ATOM     13  H   UNL     1       1.183   6.770  21.479  0.00  0.00    +0.000 HD
BRANCH  12  14
ATOM     14  C   UNL     1       0.769   8.813  21.372  0.00  0.00    +0.000 A 
ATOM     15  C   UNL     1       0.759   9.953  20.552  0.00  0.00    +0.000 A 
ATOM     16  C   UNL     1       0.094  11.118  20.936  0.00  0.00    +0.000 A 
ATOM     17  C   UNL     1      -0.561  11.150  22.159  0.00  0.00    +0.000 A 
ATOM     18  C   UNL     1      -0.528  10.053  23.021  0.00  0.00    +0.000 A 
ATOM     19  C   UNL     1       0.140   8.894  22.627  0.00  0.00    +0.000 A 
BRANCH  17  20
ATOM     20  S   UNL     1      -1.543  12.567  22.572  0.00  0.00    +0.000 S 
ATOM     21  O   UNL     1      -0.821  13.370  23.541  0.00  0.00    +0.000 OA
ATOM     22  O   UNL     1      -2.112  13.118  21.367  0.00  0.00    +0.000 OA
BRANCH  20  23
ATOM     23  N   UNL     1      -2.756  11.778  23.382  0.00  0.00    +0.000 NA
ATOM     24  H   UNL     1      -3.531  11.411  22.837  0.00  0.00    +0.000 HD
ATOM     25  H   UNL     1      -2.565  11.466  24.328  0.00  0.00    +0.000 HD
ENDBRANCH  20  23
ENDBRANCH  17  20
ENDBRANCH  12  14
ENDBRANCH   5  12
BRANCH   1  26
ATOM     26  C   UNL     1       2.271   2.781  18.899  0.00  0.00    +0.000 C 
BRANCH  26  28
ATOM     27  C   UNL     1       4.420   2.243  20.087  0.00  0.00    +0.000 C 
ATOM     28  C   UNL     1       2.905   2.145  20.134  0.00  0.00    +0.000 C 
ENDBRANCH  26  28
ENDBRANCH   1  26
TORSDOF 6
ENDMDL
MODEL 7
REMARK VINA RESULT:      -7.6      0.613      1.320
REMARK  Name = 
REMARK  7 active torsions:
REMARK  status: ('A' for Active; 'I' for Inactive)
REMARK    1  A    between atoms: C_1  and  C_2
REMARK    2  A    between atoms: C_2  and  C_3
REMARK    3  A    between atoms: C_3  and  N_4
REMARK    4  A    between atoms: N_8  and  N_9
REMARK    5  A    between atoms: N_9  and  C_10
REMARK    6  A    between atoms: C_13  and  S_14
REMARK    7  A    between atoms: S_14  and  N_15
REMARK                            x       y       z     vdW  Elec       q    Type
REMARK                         _______ _______ _______ _____ _____    ______ ____
ROOT
ATOM      1  N   UNL     1       2.628   4.080  18.472  0.00  0.00    +0.000 N 
ATOM      2  C   UNL     1       2.055   4.945  19.392  0.00  0.00    +0.000 C 
ATOM      3  O   UNL     1       1.260   4.722  20.282  0.00  0.00    +0.000 OA
ATOM      4  C   UNL     1       2.636   6.324  19.070  0.00  0.00    +0.000 C 
ATOM      5  N   UNL     1       2.450   7.444  19.693  0.00  0.00    +0.000 NA
ATOM      6  C   UNL     1       3.513   6.133  17.918  0.00  0.00    +0.000 A 
ATOM      7  C   UNL     1       4.285   7.043  17.219  0.00  0.00    +0.000 A 
ATOM      8  C   UNL     1       5.103   6.537  16.203  0.00  0.00    +0.000 A 
ATOM      9  C   UNL     1       5.129   5.160  15.920  0.00  0.00    +0.000 A 
ATOM     10  C   UNL     1       4.323   4.262  16.629  0.00  0.00    +0.000 A 
ATOM     11  C   UNL     1       3.511   4.770  17.627  0.00  0.00    +0.000 A 
ENDROOT
BRANCH   5  12
ATOM     12  N   UNL     1       1.665   7.403  20.803  0.00  0.00    +0.000 N 
ATOM     13  H   UNL     1       1.510   6.532  21.319  0.00  0.00    +0.000 HD
BRANCH  12  14
ATOM     14  C   UNL     1       0.874   8.512  21.140  0.00  0.00    +0.000 A 
ATOM     15  C   UNL     1       0.326   8.667  22.424  0.00  0.00    +0.000 A 
ATOM     16  C   UNL     1      -0.459   9.774  22.748  0.00  0.00    +0.000 A 
ATOM     17  C   UNL     1      -0.709  10.734  21.777  0.00  0.00    +0.000 A 
ATOM     18  C   UNL     1      -0.223  10.585  20.478  0.00  0.00    +0.000 A 
ATOM     19  C   UNL     1       0.561   9.475  20.165  0.00  0.00    +0.000 A 
BRANCH  17  20
ATOM     20  S   UNL     1      -1.564  12.217  22.234  0.00  0.00    +0.000 S 
ATOM     21  O   UNL     1      -1.907  12.949  21.029  0.00  0.00    +0.000 OA
ATOM     22  O   UNL     1      -2.525  11.914  23.265  0.00  0.00    +0.000 OA
BRANCH  20  23
ATOM     23  N   UNL     1      -0.293  13.005  22.950  0.00  0.00    +0.000 NA
ATOM     24  H   UNL     1      -0.022  12.716  23.886  0.00  0.00    +0.000 HD
ATOM     25  H   UNL     1       0.321  13.548  22.353  0.00  0.00    +0.000 HD
ENDBRANCH  20  23
ENDBRANCH  17  20
ENDBRANCH  12  14
ENDBRANCH   5  12
BRANCH   1  26
ATOM     26  C   UNL     1       2.386   2.656  18.431  0.00  0.00    +0.000 C 
BRANCH  26  28
ATOM     27  C   UNL     1       4.179   2.322  20.162  0.00  0.00    +0.000 C 
ATOM     28  C   UNL     1       3.626   1.857  18.825  0.00  0.00    +0.000 C 
ENDBRANCH  26  28
ENDBRANCH   1  26
TORSDOF 6
ENDMDL
MODEL 8
REMARK VINA RESULT:      -7.6      3.515      8.577
REMARK  Name = 
REMARK  7 active torsions:
REMARK  status: ('A' for Active; 'I' for Inactive)
REMARK    1  A    between atoms: C_1  and  C_2
REMARK    2  A    between atoms: C_2  and  C_3
REMARK    3  A    between atoms: C_3  and  N_4
REMARK    4  A    between atoms: N_8  and  N_9
REMARK    5  A    between atoms: N_9  and  C_10
REMARK    6  A    between atoms: C_13  and  S_14
REMARK    7  A    between atoms: S_14  and  N_15
REMARK                            x       y       z     vdW  Elec       q    Type
REMARK                         _______ _______ _______ _____ _____    ______ ____
ROOT
ATOM      1  N   UNL     1      -0.843  11.640  20.047  0.00  0.00    +0.000 N 
ATOM      2  C   UNL     1       0.341  10.967  19.791  0.00  0.00    +0.000 C 
ATOM      3  O   UNL     1       1.382  10.953  20.415  0.00  0.00    +0.000 OA
ATOM      4  C   UNL     1       0.095  10.190  18.494  0.00  0.00    +0.000 C 
ATOM      5  N   UNL     1       0.885   9.364  17.886  0.00  0.00    +0.000 NA
ATOM      6  C   UNL     1      -1.265  10.522  18.078  0.00  0.00    +0.000 A 
ATOM      7  C   UNL     1      -1.994  10.100  16.981  0.00  0.00    +0.000 A 
ATOM      8  C   UNL     1      -3.324  10.525  16.899  0.00  0.00    +0.000 A 
ATOM      9  C   UNL     1      -3.882  11.342  17.900  0.00  0.00    +0.000 A 
ATOM     10  C   UNL     1      -3.117  11.771  18.990  0.00  0.00    +0.000 A 
ATOM     11  C   UNL     1      -1.800  11.354  19.061  0.00  0.00    +0.000 A 
ENDROOT
BRANCH   5  12
ATOM     12  N   UNL     1       2.084   9.115  18.479  0.00  0.00    +0.000 N 
ATOM     13  H   UNL     1       2.743   9.869  18.692  0.00  0.00    +0.000 HD
BRANCH  12  14
ATOM     14  C   UNL     1       2.535   7.793  18.612  0.00  0.00    +0.000 A 
ATOM     15  C   UNL     1       2.202   7.007  19.727  0.00  0.00    +0.000 A 
ATOM     16  C   UNL     1       2.657   5.693  19.850  0.00  0.00    +0.000 A 
ATOM     17  C   UNL     1       3.463   5.161  18.854  0.00  0.00    +0.000 A 
ATOM     18  C   UNL     1       3.855   5.931  17.758  0.00  0.00    +0.000 A 
ATOM     19  C   UNL     1       3.394   7.243  17.645  0.00  0.00    +0.000 A 
BRANCH  17  20
ATOM     20  S   UNL     1       3.901   3.445  18.927  0.00  0.00    +0.000 S 
ATOM     21  O   UNL     1       3.400   2.888  20.170  0.00  0.00    +0.000 OA
ATOM     22  O   UNL     1       3.658   2.837  17.643  0.00  0.00    +0.000 OA
BRANCH  20  23
ATOM     23  N   UNL     1       5.540   3.633  19.091  0.00  0.00    +0.000 NA
ATOM     24  H   UNL     1       6.081   2.831  19.405  0.00  0.00    +0.000 HD
ATOM     25  H   UNL     1       5.971   4.431  18.637  0.00  0.00    +0.000 HD
ENDBRANCH  20  23
ENDBRANCH  17  20
ENDBRANCH  12  14
ENDBRANCH   5  12
BRANCH   1  26
ATOM     26  C   UNL     1      -1.071  12.477  21.202  0.00  0.00    +0.000 C 
BRANCH  26  28
ATOM     27  C   UNL     1      -2.588  12.139  23.179  0.00  0.00    +0.000 C 
ATOM     28  C   UNL     1      -1.342  11.652  22.458  0.00  0.00    +0.000 C 
ENDBRANCH  26  28
ENDBRANCH   1  26
TORSDOF 6
ENDMDL
MODEL 9
REMARK VINA RESULT:      -7.6      3.505      8.552
REMARK  Name = 
REMARK  7 active torsions:
REMARK  status: ('A' for Active; 'I' for Inactive)
REMARK    1  A    between atoms: C_1  and  C_2
REMARK    2  A    between atoms: C_2  and  C_3
REMARK    3  A    between atoms: C_3  and  N_4
REMARK    4  A    between atoms: N_8  and  N_9
REMARK    5  A    between atoms: N_9  and  C_10
REMARK    6  A    between atoms: C_13  and  S_14
REMARK    7  A    between atoms: S_14  and  N_15
REMARK                            x       y       z     vdW  Elec       q    Type
REMARK                         _______ _______ _______ _____ _____    ______ ____
ROOT
ATOM      1  N   UNL     1      -0.909  11.146  19.038  0.00  0.00    +0.000 N 
ATOM      2  C   UNL     1       0.040  10.156  18.840  0.00  0.00    +0.000 C 
ATOM      3  O   UNL     1       0.519   9.729  17.809  0.00  0.00    +0.000 OA
ATOM      4  C   UNL     1       0.406   9.657  20.240  0.00  0.00    +0.000 C 
ATOM      5  N   UNL     1       1.296   8.779  20.577  0.00  0.00    +0.000 NA
ATOM      6  C   UNL     1      -0.425  10.418  21.169  0.00  0.00    +0.000 A 
ATOM      7  C   UNL     1      -0.501  10.370  22.549  0.00  0.00    +0.000 A 
ATOM      8  C   UNL     1      -1.339  11.300  23.174  0.00  0.00    +0.000 A 
ATOM      9  C   UNL     1      -2.063  12.238  22.416  0.00  0.00    +0.000 A 
ATOM     10  C   UNL     1      -1.984  12.253  21.019  0.00  0.00    +0.000 A 
ATOM     11  C   UNL     1      -1.160  11.325  20.408  0.00  0.00    +0.000 A 
ENDROOT
BRANCH   5  12
ATOM     12  N   UNL     1       2.037   8.241  19.571  0.00  0.00    +0.000 N 
ATOM     13  H   UNL     1       2.411   8.819  18.813  0.00  0.00    +0.000 HD
BRANCH  12  14
ATOM     14  C   UNL     1       2.122   6.848  19.435  0.00  0.00    +0.000 A 
ATOM     15  C   UNL     1       2.452   6.243  18.211  0.00  0.00    +0.000 A 
ATOM     16  C   UNL     1       2.534   4.855  18.086  0.00  0.00    +0.000 A 
ATOM     17  C   UNL     1       2.271   4.060  19.193  0.00  0.00    +0.000 A 
ATOM     18  C   UNL     1       1.889   4.626  20.410  0.00  0.00    +0.000 A 
ATOM     19  C   UNL     1       1.812   6.014  20.524  0.00  0.00    +0.000 A 
BRANCH  17  20
ATOM     20  S   UNL     1       2.536   2.312  19.079  0.00  0.00    +0.000 S 
ATOM     21  O   UNL     1       3.940   2.035  19.321  0.00  0.00    +0.000 OA
ATOM     22  O   UNL     1       1.474   1.624  19.768  0.00  0.00    +0.000 OA
BRANCH  20  23
ATOM     23  N   UNL     1       2.269   2.144  17.451  0.00  0.00    +0.000 NA
ATOM     24  H   UNL     1       2.982   2.492  16.814  0.00  0.00    +0.000 HD
ATOM     25  H   UNL     1       1.555   1.488  17.156  0.00  0.00    +0.000 HD
ENDBRANCH  20  23
ENDBRANCH  17  20
ENDBRANCH  12  14
ENDBRANCH   5  12
BRANCH   1  26
ATOM     26  C   UNL     1      -1.514  11.920  17.978  0.00  0.00    +0.000 C 
BRANCH  26  28
ATOM     27  C   UNL     1      -2.632  10.843  16.000  0.00  0.00    +0.000 C 
ATOM     28  C   UNL     1      -2.789  11.264  17.452  0.00  0.00    +0.000 C 
ENDBRANCH  26  28
ENDBRANCH   1  26
TORSDOF 6
ENDMDL
