MODEL 1
REMARK VINA RESULT:      -8.1      0.000      0.000
REMARK  Name = 
REMARK  2 active torsions:
REMARK  status: ('A' for Active; 'I' for Inactive)
REMARK    1  A    between atoms: C_4  and  C_5
REMARK    2  A    between atoms: C_11  and  C_12
REMARK                            x       y       z     vdW  Elec       q    Type
REMARK                         _______ _______ _______ _____ _____    ______ ____
ROOT
ATOM      1  O   UNL     1       2.041   2.798  17.169  0.00  0.00    +0.000 OA
ATOM      2  C   UNL     1       2.637   3.799  17.532  0.00  0.00    +0.000 C 
ATOM      3  C   UNL     1       4.021   4.173  17.106  0.00  0.00    +0.000 C 
ATOM      4  C   UNL     1       4.131   5.619  17.558  0.00  0.00    +0.000 C 
ATOM      5  C   UNL     1       3.138   5.682  18.720  0.00  0.00    +0.000 C 
ATOM      6  O   UNL     1       2.135   4.705  18.414  0.00  0.00    +0.000 OA
ENDROOT
BRANCH   5   7
ATOM      7  C   UNL     1       2.469   7.029  18.903  0.00  0.00    +0.000 A 
ATOM      8  C   UNL     1       2.375   7.950  17.846  0.00  0.00    +0.000 A 
ATOM      9  C   UNL     1       1.767   9.193  18.032  0.00  0.00    +0.000 A 
ATOM     10  C   UNL     1       1.233   9.521  19.275  0.00  0.00    +0.000 A 
ATOM     11 BR   UNL     1       0.408  11.204  19.529  0.00  0.00    +0.000 Br
ATOM     12  C   UNL     1       1.300   8.616  20.332  0.00  0.00    +0.000 A 
ATOM     13  C   UNL     1       1.918   7.376  20.146  0.00  0.00    +0.000 A 
ENDBRANCH   5   7
BRANCH   4  14
ATOM     14  C   UNL     1       5.546   6.039  17.888  0.00  0.00    +0.000 A 
ATOM     15  C   UNL     1       6.238   5.385  18.920  0.00  0.00    +0.000 A 
ATOM     16  C   UNL     1       7.535   5.769  19.265  0.00  0.00    +0.000 A 
ATOM     17  C   UNL     1       8.161   6.810  18.584  0.00  0.00    +0.000 A 
ATOM     18  C   UNL     1       7.491   7.464  17.553  0.00  0.00    +0.000 A 
ATOM     19  C   UNL     1       6.194   7.081  17.207  0.00  0.00    +0.000 A 
ENDBRANCH   4  14
TORSDOF 2
ENDMDL
MODEL 2
REMARK VINA RESULT:      -8.1      0.086      1.109
REMARK  Name = 
REMARK  2 active torsions:
REMARK  status: ('A' for Active; 'I' for Inactive)
REMARK    1  A    between atoms: C_4  and  C_5
REMARK    2  A    between atoms: C_11  and  C_12
REMARK                            x       y       z     vdW  Elec       q    Type
REMARK                         _______ _______ _______ _____ _____    ______ ____
ROOT
ATOM      1  O   UNL     1       2.111   2.742  17.098  0.00  0.00    +0.000 OA
ATOM      2  C   UNL     1       2.687   3.746  17.488  0.00  0.00    +0.000 C 
ATOM      3  C   UNL     1       4.078   4.138  17.103  0.00  0.00    +0.000 C 
ATOM      4  C   UNL     1       4.161   5.580  17.573  0.00  0.00    +0.000 C 
ATOM      5  C   UNL     1       3.137   5.620  18.709  0.00  0.00    +0.000 C 
ATOM      6  O   UNL     1       2.152   4.636  18.366  0.00  0.00    +0.000 OA
ENDROOT
BRANCH   5   7
ATOM      7  C   UNL     1       2.449   6.959  18.888  0.00  0.00    +0.000 A 
ATOM      8  C   UNL     1       2.281   7.845  17.812  0.00  0.00    +0.000 A 
ATOM      9  C   UNL     1       1.656   9.081  17.995  0.00  0.00    +0.000 A 
ATOM     10  C   UNL     1       1.181   9.435  19.254  0.00  0.00    +0.000 A 
ATOM     11 BR   UNL     1       0.334  11.108  19.503  0.00  0.00    +0.000 Br
ATOM     12  C   UNL     1       1.323   8.564  20.331  0.00  0.00    +0.000 A 
ATOM     13  C   UNL     1       1.957   7.332  20.149  0.00  0.00    +0.000 A 
ENDBRANCH   5   7
BRANCH   4  14
ATOM     14  C   UNL     1       5.563   6.011  17.946  0.00  0.00    +0.000 A 
ATOM     15  C   UNL     1       6.175   7.058  17.239  0.00  0.00    +0.000 A 
ATOM     16  C   UNL     1       7.477   7.458  17.542  0.00  0.00    +0.000 A 
ATOM     17  C   UNL     1       8.187   6.821  18.556  0.00  0.00    +0.000 A 
ATOM     18  C   UNL     1       7.591   5.785  19.272  0.00  0.00    +0.000 A 
ATOM     19  C   UNL     1       6.289   5.383  18.969  0.00  0.00    +0.000 A 
ENDBRANCH   4  14
TORSDOF 2
ENDMDL
MODEL 3
REMARK VINA RESULT:      -8.1      0.125      1.569
REMARK  Name = 
REMARK  2 active torsions:
REMARK  status: ('A' for Active; 'I' for Inactive)
REMARK    1  A    between atoms: C_4  and  C_5
REMARK    2  A    between atoms: C_11  and  C_12
REMARK                            x       y       z     vdW  Elec       q    Type
REMARK                         _______ _______ _______ _____ _____    ______ ____
ROOT
ATOM      1  O   UNL     1       2.143   2.740  17.137  0.00  0.00    +0.000 OA
ATOM      2  C   UNL     1       2.714   3.744  17.530  0.00  0.00    +0.000 C 
ATOM      3  C   UNL     1       4.090   4.162  17.123  0.00  0.00    +0.000 C 
ATOM      4  C   UNL     1       4.164   5.598  17.615  0.00  0.00    +0.000 C 
ATOM      5  C   UNL     1       3.164   5.605  18.773  0.00  0.00    +0.000 C 
ATOM      6  O   UNL     1       2.186   4.613  18.434  0.00  0.00    +0.000 OA
ENDROOT
BRANCH   5   7
ATOM      7  C   UNL     1       2.463   6.931  18.989  0.00  0.00    +0.000 A 
ATOM      8  C   UNL     1       1.959   7.295  20.249  0.00  0.00    +0.000 A 
ATOM      9  C   UNL     1       1.303   8.515  20.430  0.00  0.00    +0.000 A 
ATOM     10  C   UNL     1       1.158   9.388  19.356  0.00  0.00    +0.000 A 
ATOM     11 BR   UNL     1       0.271  11.040  19.601  0.00  0.00    +0.000 Br
ATOM     12  C   UNL     1       1.665   9.053  18.103  0.00  0.00    +0.000 A 
ATOM     13  C   UNL     1       2.312   7.828  17.920  0.00  0.00    +0.000 A 
ENDBRANCH   5   7
BRANCH   4  14
ATOM     14  C   UNL     1       5.568   6.041  17.965  0.00  0.00    +0.000 A 
ATOM     15  C   UNL     1       6.173   7.067  17.222  0.00  0.00    +0.000 A 
ATOM     16  C   UNL     1       7.477   7.479  17.504  0.00  0.00    +0.000 A 
ATOM     17  C   UNL     1       8.195   6.874  18.532  0.00  0.00    +0.000 A 
ATOM     18  C   UNL     1       7.605   5.859  19.283  0.00  0.00    +0.000 A 
ATOM     19  C   UNL     1       6.302   5.446  19.002  0.00  0.00    +0.000 A 
ENDBRANCH   4  14
TORSDOF 2
ENDMDL
MODEL 4
REMARK VINA RESULT:      -8.0      0.549      1.230
REMARK  Name = 
REMARK  2 active torsions:
REMARK  status: ('A' for Active; 'I' for Inactive)
REMARK    1  A    between atoms: C_4  and  C_5
REMARK    2  A    between atoms: C_11  and  C_12
REMARK                            x       y       z     vdW  Elec       q    Type
REMARK                         _______ _______ _______ _____ _____    ______ ____
ROOT
ATOM      1  O   UNL     1       1.439   2.835  18.070  0.00  0.00    +0.000 OA
ATOM      2  C   UNL     1       2.120   3.835  18.228  0.00  0.00    +0.000 C 
ATOM      3  C   UNL     1       3.480   4.046  17.644  0.00  0.00    +0.000 C 
ATOM      4  C   UNL     1       3.711   5.532  17.859  0.00  0.00    +0.000 C 
ATOM      5  C   UNL     1       2.829   5.834  19.072  0.00  0.00    +0.000 C 
ATOM      6  O   UNL     1       1.749   4.894  18.998  0.00  0.00    +0.000 OA
ENDROOT
BRANCH   5   7
ATOM      7  C   UNL     1       2.256   7.236  19.099  0.00  0.00    +0.000 A 
ATOM      8  C   UNL     1       1.772   7.807  20.289  0.00  0.00    +0.000 A 
ATOM      9  C   UNL     1       1.235   9.096  20.297  0.00  0.00    +0.000 A 
ATOM     10  C   UNL     1       1.189   9.832  19.116  0.00  0.00    +0.000 A 
ATOM     11 BR   UNL     1       0.463  11.578  19.125  0.00  0.00    +0.000 Br
ATOM     12  C   UNL     1       1.678   9.292  17.930  0.00  0.00    +0.000 A 
ATOM     13  C   UNL     1       2.207   7.997  17.922  0.00  0.00    +0.000 A 
ENDBRANCH   5   7
BRANCH   4  14
ATOM     14  C   UNL     1       5.171   5.897  18.010  0.00  0.00    +0.000 A 
ATOM     15  C   UNL     1       5.917   5.344  19.063  0.00  0.00    +0.000 A 
ATOM     16  C   UNL     1       7.259   5.684  19.243  0.00  0.00    +0.000 A 
ATOM     17  C   UNL     1       7.877   6.578  18.374  0.00  0.00    +0.000 A 
ATOM     18  C   UNL     1       7.153   7.131  17.320  0.00  0.00    +0.000 A 
ATOM     19  C   UNL     1       5.811   6.792  17.139  0.00  0.00    +0.000 A 
ENDBRANCH   4  14
TORSDOF 2
ENDMDL
MODEL 5
REMARK VINA RESULT:      -7.6      2.064      4.296
REMARK  Name = 
REMARK  2 active torsions:
REMARK  status: ('A' for Active; 'I' for Inactive)
REMARK    1  A    between atoms: C_4  and  C_5
REMARK    2  A    between atoms: C_11  and  C_12
REMARK                            x       y       z     vdW  Elec       q    Type
REMARK                         _______ _______ _______ _____ _____    ______ ____
ROOT
ATOM      1  O   UNL     1       6.161   6.824  16.745  0.00  0.00    +0.000 OA
ATOM      2  C   UNL     1       5.106   6.649  17.332  0.00  0.00    +0.000 C 
ATOM      3  C   UNL     1       4.784   5.462  18.182  0.00  0.00    +0.000 C 
ATOM      4  C   UNL     1       3.531   5.906  18.917  0.00  0.00    +0.000 C 
ATOM      5  C   UNL     1       2.931   6.937  17.961  0.00  0.00    +0.000 C 
ATOM      6  O   UNL     1       4.048   7.503  17.264  0.00  0.00    +0.000 OA
ENDROOT
BRANCH   5   7
ATOM      7  C   UNL     1       2.162   8.052  18.640  0.00  0.00    +0.000 A 
ATOM      8  C   UNL     1       1.804   7.974  19.997  0.00  0.00    +0.000 A 
ATOM      9  C   UNL     1       1.085   9.004  20.607  0.00  0.00    +0.000 A 
ATOM     10  C   UNL     1       0.729  10.130  19.868  0.00  0.00    +0.000 A 
ATOM     11 BR   UNL     1      -0.244  11.525  20.693  0.00  0.00    +0.000 Br
ATOM     12  C   UNL     1       1.089  10.234  18.527  0.00  0.00    +0.000 A 
ATOM     13  C   UNL     1       1.800   9.198  17.915  0.00  0.00    +0.000 A 
ENDBRANCH   5   7
BRANCH   4  14
ATOM     14  C   UNL     1       2.619   4.759  19.294  0.00  0.00    +0.000 A 
ATOM     15  C   UNL     1       1.990   4.015  18.284  0.00  0.00    +0.000 A 
ATOM     16  C   UNL     1       1.121   2.970  18.602  0.00  0.00    +0.000 A 
ATOM     17  C   UNL     1       0.870   2.650  19.933  0.00  0.00    +0.000 A 
ATOM     18  C   UNL     1       1.491   3.374  20.948  0.00  0.00    +0.000 A 
ATOM     19  C   UNL     1       2.360   4.420  20.631  0.00  0.00    +0.000 A 
ENDBRANCH   4  14
TORSDOF 2
ENDMDL
MODEL 6
REMARK VINA RESULT:      -7.6      2.111      4.193
REMARK  Name = 
REMARK  2 active torsions:
REMARK  status: ('A' for Active; 'I' for Inactive)
REMARK    1  A    between atoms: C_4  and  C_5
REMARK    2  A    between atoms: C_11  and  C_12
REMARK                            x       y       z     vdW  Elec       q    Type
REMARK                         _______ _______ _______ _____ _____    ______ ____
ROOT
ATOM      1  O   UNL     1       6.053   6.951  16.724  0.00  0.00    +0.000 OA
ATOM      2  C   UNL     1       4.999   6.761  17.311  0.00  0.00    +0.000 C 
ATOM      3  C   UNL     1       4.683   5.554  18.133  0.00  0.00    +0.000 C 
ATOM      4  C   UNL     1       3.430   5.978  18.882  0.00  0.00    +0.000 C 
ATOM      5  C   UNL     1       2.825   7.029  17.951  0.00  0.00    +0.000 C 
ATOM      6  O   UNL     1       3.939   7.614  17.264  0.00  0.00    +0.000 OA
ENDROOT
BRANCH   5   7
ATOM      7  C   UNL     1       2.056   8.127  18.658  0.00  0.00    +0.000 A 
ATOM      8  C   UNL     1       1.612   9.270  17.970  0.00  0.00    +0.000 A 
ATOM      9  C   UNL     1       0.915  10.279  18.638  0.00  0.00    +0.000 A 
ATOM     10  C   UNL     1       0.642  10.149  19.996  0.00  0.00    +0.000 A 
ATOM     11 BR   UNL     1      -0.302  11.515  20.901  0.00  0.00    +0.000 Br
ATOM     12  C   UNL     1       1.059   9.017  20.693  0.00  0.00    +0.000 A 
ATOM     13  C   UNL     1       1.765   8.011  20.025  0.00  0.00    +0.000 A 
ENDBRANCH   5   7
BRANCH   4  14
ATOM     14  C   UNL     1       2.521   4.821  19.235  0.00  0.00    +0.000 A 
ATOM     15  C   UNL     1       2.023   3.997  18.213  0.00  0.00    +0.000 A 
ATOM     16  C   UNL     1       1.160   2.939  18.506  0.00  0.00    +0.000 A 
ATOM     17  C   UNL     1       0.785   2.686  19.823  0.00  0.00    +0.000 A 
ATOM     18  C   UNL     1       1.276   3.490  20.849  0.00  0.00    +0.000 A 
ATOM     19  C   UNL     1       2.139   4.549  20.557  0.00  0.00    +0.000 A 
ENDBRANCH   4  14
TORSDOF 2
ENDMDL
MODEL 7
REMARK VINA RESULT:      -7.6      2.081      4.080
REMARK  Name = 
REMARK  2 active torsions:
REMARK  status: ('A' for Active; 'I' for Inactive)
REMARK    1  A    between atoms: C_4  and  C_5
REMARK    2  A    between atoms: C_11  and  C_12
REMARK                            x       y       z     vdW  Elec       q    Type
REMARK                         _______ _______ _______ _____ _____    ______ ____
ROOT
ATOM      1  O   UNL     1       6.259   6.674  16.928  0.00  0.00    +0.000 OA
ATOM      2  C   UNL     1       5.179   6.521  17.476  0.00  0.00    +0.000 C 
ATOM      3  C   UNL     1       4.818   5.361  18.347  0.00  0.00    +0.000 C 
ATOM      4  C   UNL     1       3.538   5.831  19.016  0.00  0.00    +0.000 C 
ATOM      5  C   UNL     1       2.982   6.835  18.005  0.00  0.00    +0.000 C 
ATOM      6  O   UNL     1       4.130   7.376  17.339  0.00  0.00    +0.000 OA
ENDROOT
BRANCH   5   7
ATOM      7  C   UNL     1       2.191   7.973  18.619  0.00  0.00    +0.000 A 
ATOM      8  C   UNL     1       1.800   9.087  17.857  0.00  0.00    +0.000 A 
ATOM      9  C   UNL     1       1.082  10.134  18.439  0.00  0.00    +0.000 A 
ATOM     10  C   UNL     1       0.737  10.070  19.786  0.00  0.00    +0.000 A 
ATOM     11 BR   UNL     1      -0.235  11.487  20.575  0.00  0.00    +0.000 Br
ATOM     12  C   UNL     1       1.101   8.968  20.555  0.00  0.00    +0.000 A 
ATOM     13  C   UNL     1       1.828   7.925  19.973  0.00  0.00    +0.000 A 
ENDBRANCH   5   7
BRANCH   4  14
ATOM     14  C   UNL     1       2.605   4.699  19.389  0.00  0.00    +0.000 A 
ATOM     15  C   UNL     1       2.417   4.377  20.743  0.00  0.00    +0.000 A 
ATOM     16  C   UNL     1       1.584   3.320  21.116  0.00  0.00    +0.000 A 
ATOM     17  C   UNL     1       0.925   2.572  20.144  0.00  0.00    +0.000 A 
ATOM     18  C   UNL     1       1.096   2.884  18.797  0.00  0.00    +0.000 A 
ATOM     19  C   UNL     1       1.928   3.940  18.423  0.00  0.00    +0.000 A 
ENDBRANCH   4  14
TORSDOF 2
ENDMDL
MODEL 8
REMARK VINA RESULT:      -7.5      1.342      1.634
REMARK  Name = 
REMARK  2 active torsions:
REMARK  status: ('A' for Active; 'I' for Inactive)
REMARK    1  A    between atoms: C_4  and  C_5
REMARK    2  A    between atoms: C_11  and  C_12
REMARK                            x       y       z     vdW  Elec       q    Type
REMARK                         _______ _______ _______ _____ _____    ______ ____
ROOT
ATOM      1  O   UNL     1       0.625   2.140  18.647  0.00  0.00    +0.000 OA
ATOM      2  C   UNL     1       1.461   3.026  18.575  0.00  0.00    +0.000 C 
ATOM      3  C   UNL     1       2.696   2.972  17.736  0.00  0.00    +0.000 C 
ATOM      4  C   UNL     1       3.176   4.414  17.753  0.00  0.00    +0.000 C 
ATOM      5  C   UNL     1       2.600   4.942  19.068  0.00  0.00    +0.000 C 
ATOM      6  O   UNL     1       1.402   4.184  19.288  0.00  0.00    +0.000 OA
ENDROOT
BRANCH   5   7
ATOM      7  C   UNL     1       2.250   6.416  19.055  0.00  0.00    +0.000 A 
ATOM      8  C   UNL     1       2.311   7.172  17.872  0.00  0.00    +0.000 A 
ATOM      9  C   UNL     1       1.998   8.534  17.877  0.00  0.00    +0.000 A 
ATOM     10  C   UNL     1       1.606   9.148  19.063  0.00  0.00    +0.000 A 
ATOM     11 BR   UNL     1       1.181  10.990  19.071  0.00  0.00    +0.000 Br
ATOM     12  C   UNL     1       1.524   8.413  20.243  0.00  0.00    +0.000 A 
ATOM     13  C   UNL     1       1.847   7.053  20.238  0.00  0.00    +0.000 A 
ENDBRANCH   5   7
BRANCH   4  14
ATOM     14  C   UNL     1       4.675   4.551  17.598  0.00  0.00    +0.000 A 
ATOM     15  C   UNL     1       5.449   4.958  18.696  0.00  0.00    +0.000 A 
ATOM     16  C   UNL     1       6.830   5.119  18.575  0.00  0.00    +0.000 A 
ATOM     17  C   UNL     1       7.459   4.873  17.358  0.00  0.00    +0.000 A 
ATOM     18  C   UNL     1       6.707   4.461  16.261  0.00  0.00    +0.000 A 
ATOM     19  C   UNL     1       5.325   4.300  16.380  0.00  0.00    +0.000 A 
ENDBRANCH   4  14
TORSDOF 2
ENDMDL
MODEL 9
REMARK VINA RESULT:      -7.5      1.307      1.720
REMARK  Name = 
REMARK  2 active torsions:
REMARK  status: ('A' for Active; 'I' for Inactive)
REMARK    1  A    between atoms: C_4  and  C_5
REMARK    2  A    between atoms: C_11  and  C_12
REMARK                            x       y       z     vdW  Elec       q    Type
REMARK                         _______ _______ _______ _____ _____    ______ ____
ROOT
ATOM      1  O   UNL     1       0.596   2.309  18.478  0.00  0.00    +0.000 OA
ATOM      2  C   UNL     1       1.442   3.189  18.466  0.00  0.00    +0.000 C 
ATOM      3  C   UNL     1       2.726   3.132  17.702  0.00  0.00    +0.000 C 
ATOM      4  C   UNL     1       3.215   4.570  17.762  0.00  0.00    +0.000 C 
ATOM      5  C   UNL     1       2.565   5.090  19.046  0.00  0.00    +0.000 C 
ATOM      6  O   UNL     1       1.351   4.341  19.185  0.00  0.00    +0.000 OA
ENDROOT
BRANCH   5   7
ATOM      7  C   UNL     1       2.229   6.567  19.026  0.00  0.00    +0.000 A 
ATOM      8  C   UNL     1       2.382   7.337  17.861  0.00  0.00    +0.000 A 
ATOM      9  C   UNL     1       2.080   8.701  17.861  0.00  0.00    +0.000 A 
ATOM     10  C   UNL     1       1.608   9.304  19.023  0.00  0.00    +0.000 A 
ATOM     11 BR   UNL     1       1.198  11.150  19.024  0.00  0.00    +0.000 Br
ATOM     12  C   UNL     1       1.434   8.555  20.184  0.00  0.00    +0.000 A 
ATOM     13  C   UNL     1       1.746   7.193  20.185  0.00  0.00    +0.000 A 
ENDBRANCH   5   7
BRANCH   4  14
ATOM     14  C   UNL     1       4.722   4.694  17.700  0.00  0.00    +0.000 A 
ATOM     15  C   UNL     1       5.389   4.410  16.497  0.00  0.00    +0.000 A 
ATOM     16  C   UNL     1       6.780   4.490  16.417  0.00  0.00    +0.000 A 
ATOM     17  C   UNL     1       7.526   4.856  17.534  0.00  0.00    +0.000 A 
ATOM     18  C   UNL     1       6.878   5.148  18.733  0.00  0.00    +0.000 A 
ATOM     19  C   UNL     1       5.487   5.068  18.815  0.00  0.00    +0.000 A 
ENDBRANCH   4  14
TORSDOF 2
ENDMDL
