MODEL 1
REMARK VINA RESULT:      -8.6      0.000      0.000
REMARK  Name = 
REMARK  11 active torsions:
REMARK  status: ('A' for Active; 'I' for Inactive)
REMARK    1  A    between atoms: C_1  and  C_2
REMARK    2  A    between atoms: C_2  and  O_3
REMARK    3  A    between atoms: O_3  and  C_4
REMARK    4  A    between atoms: C_4  and  C_6
REMARK    5  A    between atoms: C_9  and  C_10
REMARK    6  A    between atoms: C_11  and  C_12
REMARK    7  A    between atoms: C_11  and  C_13
REMARK    8  A    between atoms: C_19  and  C_20
REMARK    9  A    between atoms: C_19  and  C_21
REMARK   10  A    between atoms: C_24  and  C_25
REMARK   11  A    between atoms: C_24  and  C_26
REMARK                            x       y       z     vdW  Elec       q    Type
REMARK                         _______ _______ _______ _____ _____    ______ ____
ROOT
ATOM      1  C   UNL     1       1.164   9.117  20.328  0.00  0.00    +0.000 C 
ATOM      2  C   UNL     1       1.320   8.938  18.990  0.00  0.00    +0.000 C 
ATOM      3  C   UNL     1       0.703   9.782  17.912  0.00  0.00    +0.000 C 
ENDROOT
BRANCH   2   4
ATOM      4  C   UNL     1       2.249   7.862  18.537  0.00  0.00    +0.000 A 
ATOM      5  C   UNL     1       3.386   8.047  17.749  0.00  0.00    +0.000 A 
ATOM      6  C   UNL     1       4.221   6.937  17.310  0.00  0.00    +0.000 A 
ATOM      7  C   UNL     1       3.962   5.597  17.660  0.00  0.00    +0.000 A 
ATOM      8  C   UNL     1       2.824   5.452  18.443  0.00  0.00    +0.000 A 
ATOM      9  C   UNL     1       1.990   6.553  18.886  0.00  0.00    +0.000 A 
ATOM     10  C   UNL     1       2.388   4.037  18.864  0.00  0.00    +0.000 C 
ATOM     11  C   UNL     1       1.432   4.139  17.585  0.00  0.00    +0.000 C 
ATOM     12  C   UNL     1       3.088   4.378  20.261  0.00  0.00    +0.000 C 
ATOM     13  C   UNL     1       3.046   2.711  18.572  0.00  0.00    +0.000 C 
ATOM     14  C   UNL     1       4.355   2.894  17.864  0.00  0.00    +0.000 C 
ATOM     15  C   UNL     1       4.837   4.341  17.371  0.00  0.00    +0.000 C 
ATOM     16  C   UNL     1       6.203   4.623  18.031  0.00  0.00    +0.000 C 
ATOM     17  C   UNL     1       5.107   4.099  15.873  0.00  0.00    +0.000 C 
ENDBRANCH   2   4
BRANCH   1  21
ATOM     18  C   UNL     1      -1.248  11.813  22.682  0.00  0.00    +0.000 A 
ATOM     19  C   UNL     1      -1.080  10.492  23.071  0.00  0.00    +0.000 A 
ATOM     20  C   UNL     1      -0.285   9.642  22.279  0.00  0.00    +0.000 A 
ATOM     21  C   UNL     1       0.369  10.099  21.121  0.00  0.00    +0.000 A 
ATOM     22  C   UNL     1       0.235  11.453  20.800  0.00  0.00    +0.000 A 
ATOM     23  C   UNL     1      -0.571  12.309  21.575  0.00  0.00    +0.000 A 
BRANCH  18  24
ATOM     24  C   UNL     1      -2.216  12.650  23.488  0.00  0.00    +0.000 C 
ATOM     25  O   UNL     1      -1.929  13.723  23.978  0.00  0.00    +0.000 OA
BRANCH  24  26
ATOM     26  O   UNL     1      -3.393  11.979  23.656  0.00  0.00    +0.000 OA
BRANCH  26  28
ATOM     27  C   UNL     1      -5.600  12.876  24.019  0.00  0.00    +0.000 C 
ATOM     28  C   UNL     1      -4.268  12.516  24.661  0.00  0.00    +0.000 C 
ENDBRANCH  26  28
ENDBRANCH  24  26
ENDBRANCH  18  24
ENDBRANCH   1  21
TORSDOF 5
ENDMDL
MODEL 2
REMARK VINA RESULT:      -8.5      0.812      1.244
REMARK  Name = 
REMARK  11 active torsions:
REMARK  status: ('A' for Active; 'I' for Inactive)
REMARK    1  A    between atoms: C_1  and  C_2
REMARK    2  A    between atoms: C_2  and  O_3
REMARK    3  A    between atoms: O_3  and  C_4
REMARK    4  A    between atoms: C_4  and  C_6
REMARK    5  A    between atoms: C_9  and  C_10
REMARK    6  A    between atoms: C_11  and  C_12
REMARK    7  A    between atoms: C_11  and  C_13
REMARK    8  A    between atoms: C_19  and  C_20
REMARK    9  A    between atoms: C_19  and  C_21
REMARK   10  A    between atoms: C_24  and  C_25
REMARK   11  A    between atoms: C_24  and  C_26
REMARK                            x       y       z     vdW  Elec       q    Type
REMARK                         _______ _______ _______ _____ _____    ______ ____
ROOT
ATOM      1  C   UNL     1       0.935   9.037  20.179  0.00  0.00    +0.000 C 
ATOM      2  C   UNL     1       1.470   9.086  18.931  0.00  0.00    +0.000 C 
ATOM      3  C   UNL     1       1.324  10.220  17.956  0.00  0.00    +0.000 C 
ENDROOT
BRANCH   2   4
ATOM      4  C   UNL     1       2.349   7.957  18.507  0.00  0.00    +0.000 A 
ATOM      5  C   UNL     1       3.500   8.072  17.725  0.00  0.00    +0.000 A 
ATOM      6  C   UNL     1       4.283   6.915  17.314  0.00  0.00    +0.000 A 
ATOM      7  C   UNL     1       3.956   5.596  17.687  0.00  0.00    +0.000 A 
ATOM      8  C   UNL     1       2.807   5.521  18.463  0.00  0.00    +0.000 A 
ATOM      9  C   UNL     1       2.023   6.670  18.878  0.00  0.00    +0.000 A 
ATOM     10  C   UNL     1       2.299   4.137  18.906  0.00  0.00    +0.000 C 
ATOM     11  C   UNL     1       1.359   4.262  17.617  0.00  0.00    +0.000 C 
ATOM     12  C   UNL     1       3.003   4.470  20.303  0.00  0.00    +0.000 C 
ATOM     13  C   UNL     1       2.894   2.776  18.644  0.00  0.00    +0.000 C 
ATOM     14  C   UNL     1       4.216   2.882  17.945  0.00  0.00    +0.000 C 
ATOM     15  C   UNL     1       4.771   4.293  17.430  0.00  0.00    +0.000 C 
ATOM     16  C   UNL     1       6.145   4.521  18.097  0.00  0.00    +0.000 C 
ATOM     17  C   UNL     1       5.042   4.011  15.939  0.00  0.00    +0.000 C 
ENDBRANCH   2   4
BRANCH   1  21
ATOM     18  C   UNL     1      -1.630  11.635  22.480  0.00  0.00    +0.000 A 
ATOM     19  C   UNL     1      -1.013  10.544  23.075  0.00  0.00    +0.000 A 
ATOM     20  C   UNL     1      -0.182   9.719  22.293  0.00  0.00    +0.000 A 
ATOM     21  C   UNL     1       0.066   9.985  20.934  0.00  0.00    +0.000 A 
ATOM     22  C   UNL     1      -0.514  11.134  20.389  0.00  0.00    +0.000 A 
ATOM     23  C   UNL     1      -1.360  11.957  21.156  0.00  0.00    +0.000 A 
BRANCH  18  24
ATOM     24  C   UNL     1      -2.616  12.412  23.324  0.00  0.00    +0.000 C 
ATOM     25  O   UNL     1      -3.501  11.891  23.971  0.00  0.00    +0.000 OA
BRANCH  24  26
ATOM     26  O   UNL     1      -2.422  13.753  23.161  0.00  0.00    +0.000 OA
BRANCH  26  28
ATOM     27  C   UNL     1      -2.150  15.101  25.140  0.00  0.00    +0.000 C 
ATOM     28  C   UNL     1      -1.440  14.341  24.030  0.00  0.00    +0.000 C 
ENDBRANCH  26  28
ENDBRANCH  24  26
ENDBRANCH  18  24
ENDBRANCH   1  21
TORSDOF 5
ENDMDL
MODEL 3
REMARK VINA RESULT:      -8.2      4.472     10.249
REMARK  Name = 
REMARK  11 active torsions:
REMARK  status: ('A' for Active; 'I' for Inactive)
REMARK    1  A    between atoms: C_1  and  C_2
REMARK    2  A    between atoms: C_2  and  O_3
REMARK    3  A    between atoms: O_3  and  C_4
REMARK    4  A    between atoms: C_4  and  C_6
REMARK    5  A    between atoms: C_9  and  C_10
REMARK    6  A    between atoms: C_11  and  C_12
REMARK    7  A    between atoms: C_11  and  C_13
REMARK    8  A    between atoms: C_19  and  C_20
REMARK    9  A    between atoms: C_19  and  C_21
REMARK   10  A    between atoms: C_24  and  C_25
REMARK   11  A    between atoms: C_24  and  C_26
REMARK                            x       y       z     vdW  Elec       q    Type
REMARK                         _______ _______ _______ _____ _____    ______ ____
ROOT
ATOM      1  C   UNL     1       2.735   7.602  18.605  0.00  0.00    +0.000 C 
ATOM      2  C   UNL     1       1.982   7.453  19.726  0.00  0.00    +0.000 C 
ATOM      3  C   UNL     1       1.944   6.236  20.605  0.00  0.00    +0.000 C 
ENDROOT
BRANCH   2   4
ATOM      4  C   UNL     1       1.175   8.623  20.181  0.00  0.00    +0.000 A 
ATOM      5  C   UNL     1       0.630   8.789  21.456  0.00  0.00    +0.000 A 
ATOM      6  C   UNL     1      -0.185   9.942  21.812  0.00  0.00    +0.000 A 
ATOM      7  C   UNL     1      -0.471  10.987  20.912  0.00  0.00    +0.000 A 
ATOM      8  C   UNL     1       0.086  10.788  19.656  0.00  0.00    +0.000 A 
ATOM      9  C   UNL     1       0.902   9.643  19.294  0.00  0.00    +0.000 A 
ATOM     10  C   UNL     1      -0.182  11.825  18.551  0.00  0.00    +0.000 C 
ATOM     11  C   UNL     1      -1.355  10.821  18.133  0.00  0.00    +0.000 C 
ATOM     12  C   UNL     1       1.272  12.389  18.908  0.00  0.00    +0.000 C 
ATOM     13  C   UNL     1      -0.972  13.108  18.621  0.00  0.00    +0.000 C 
ATOM     14  C   UNL     1      -1.433  13.391  20.020  0.00  0.00    +0.000 C 
ATOM     15  C   UNL     1      -1.212  12.327  21.197  0.00  0.00    +0.000 C 
ATOM     16  C   UNL     1      -0.398  13.027  22.306  0.00  0.00    +0.000 C 
ATOM     17  C   UNL     1      -2.643  12.146  21.742  0.00  0.00    +0.000 C 
ENDBRANCH   2   4
BRANCH   1  21
ATOM     18  C   UNL     1       5.528   5.092  16.477  0.00  0.00    +0.000 A 
ATOM     19  C   UNL     1       5.865   6.394  16.817  0.00  0.00    +0.000 A 
ATOM     20  C   UNL     1       4.929   7.183  17.513  0.00  0.00    +0.000 A 
ATOM     21  C   UNL     1       3.673   6.682  17.900  0.00  0.00    +0.000 A 
ATOM     22  C   UNL     1       3.397   5.344  17.603  0.00  0.00    +0.000 A 
ATOM     23  C   UNL     1       4.319   4.550  16.894  0.00  0.00    +0.000 A 
BRANCH  18  24
ATOM     24  C   UNL     1       6.509   4.329  15.616  0.00  0.00    +0.000 C 
ATOM     25  O   UNL     1       7.706   4.311  15.818  0.00  0.00    +0.000 OA
BRANCH  24  26
ATOM     26  O   UNL     1       5.865   3.769  14.550  0.00  0.00    +0.000 OA
BRANCH  26  28
ATOM     27  C   UNL     1       5.877   3.126  12.228  0.00  0.00    +0.000 C 
ATOM     28  C   UNL     1       6.395   4.116  13.261  0.00  0.00    +0.000 C 
ENDBRANCH  26  28
ENDBRANCH  24  26
ENDBRANCH  18  24
ENDBRANCH   1  21
TORSDOF 5
ENDMDL
MODEL 4
REMARK VINA RESULT:      -8.2      3.261      3.783
REMARK  Name = 
REMARK  11 active torsions:
REMARK  status: ('A' for Active; 'I' for Inactive)
REMARK    1  A    between atoms: C_1  and  C_2
REMARK    2  A    between atoms: C_2  and  O_3
REMARK    3  A    between atoms: O_3  and  C_4
REMARK    4  A    between atoms: C_4  and  C_6
REMARK    5  A    between atoms: C_9  and  C_10
REMARK    6  A    between atoms: C_11  and  C_12
REMARK    7  A    between atoms: C_11  and  C_13
REMARK    8  A    between atoms: C_19  and  C_20
REMARK    9  A    between atoms: C_19  and  C_21
REMARK   10  A    between atoms: C_24  and  C_25
REMARK   11  A    between atoms: C_24  and  C_26
REMARK                            x       y       z     vdW  Elec       q    Type
REMARK                         _______ _______ _______ _____ _____    ______ ____
ROOT
ATOM      1  C   UNL     1      -0.079   9.033  17.747  0.00  0.00    +0.000 C 
ATOM      2  C   UNL     1       1.227   9.334  17.967  0.00  0.00    +0.000 C 
ATOM      3  C   UNL     1       1.768  10.688  18.331  0.00  0.00    +0.000 C 
ENDROOT
BRANCH   2   4
ATOM      4  C   UNL     1       2.215   8.216  17.927  0.00  0.00    +0.000 A 
ATOM      5  C   UNL     1       3.489   8.276  17.359  0.00  0.00    +0.000 A 
ATOM      6  C   UNL     1       4.380   7.125  17.319  0.00  0.00    +0.000 A 
ATOM      7  C   UNL     1       4.040   5.872  17.865  0.00  0.00    +0.000 A 
ATOM      8  C   UNL     1       2.767   5.850  18.420  0.00  0.00    +0.000 A 
ATOM      9  C   UNL     1       1.874   6.993  18.465  0.00  0.00    +0.000 A 
ATOM     10  C   UNL     1       2.238   4.532  19.013  0.00  0.00    +0.000 C 
ATOM     11  C   UNL     1       1.558   4.359  17.575  0.00  0.00    +0.000 C 
ATOM     12  C   UNL     1       2.649   5.156  20.428  0.00  0.00    +0.000 C 
ATOM     13  C   UNL     1       2.925   3.193  19.122  0.00  0.00    +0.000 C 
ATOM     14  C   UNL     1       4.351   3.271  18.667  0.00  0.00    +0.000 C 
ATOM     15  C   UNL     1       4.939   4.608  18.007  0.00  0.00    +0.000 C 
ATOM     16  C   UNL     1       6.150   5.049  18.857  0.00  0.00    +0.000 C 
ATOM     17  C   UNL     1       5.501   4.088  16.669  0.00  0.00    +0.000 C 
ENDBRANCH   2   4
BRANCH   1  21
ATOM     18  C   UNL     1      -3.645  11.456  17.952  0.00  0.00    +0.000 A 
ATOM     19  C   UNL     1      -2.665  11.557  18.928  0.00  0.00    +0.000 A 
ATOM     20  C   UNL     1      -1.514  10.752  18.827  0.00  0.00    +0.000 A 
ATOM     21  C   UNL     1      -1.314   9.869  17.752  0.00  0.00    +0.000 A 
ATOM     22  C   UNL     1      -2.289   9.846  16.750  0.00  0.00    +0.000 A 
ATOM     23  C   UNL     1      -3.452  10.635  16.848  0.00  0.00    +0.000 A 
BRANCH  18  24
ATOM     24  C   UNL     1      -4.920  12.239  18.172  0.00  0.00    +0.000 C 
ATOM     25  O   UNL     1      -5.404  12.439  19.267  0.00  0.00    +0.000 OA
BRANCH  24  26
ATOM     26  O   UNL     1      -5.474  12.584  16.973  0.00  0.00    +0.000 OA
BRANCH  26  28
ATOM     27  C   UNL     1      -6.909  14.470  16.535  0.00  0.00    +0.000 C 
ATOM     28  C   UNL     1      -6.837  13.034  17.034  0.00  0.00    +0.000 C 
ENDBRANCH  26  28
ENDBRANCH  24  26
ENDBRANCH  18  24
ENDBRANCH   1  21
TORSDOF 5
ENDMDL
MODEL 5
REMARK VINA RESULT:      -8.1      2.865      3.476
REMARK  Name = 
REMARK  11 active torsions:
REMARK  status: ('A' for Active; 'I' for Inactive)
REMARK    1  A    between atoms: C_1  and  C_2
REMARK    2  A    between atoms: C_2  and  O_3
REMARK    3  A    between atoms: O_3  and  C_4
REMARK    4  A    between atoms: C_4  and  C_6
REMARK    5  A    between atoms: C_9  and  C_10
REMARK    6  A    between atoms: C_11  and  C_12
REMARK    7  A    between atoms: C_11  and  C_13
REMARK    8  A    between atoms: C_19  and  C_20
REMARK    9  A    between atoms: C_19  and  C_21
REMARK   10  A    between atoms: C_24  and  C_25
REMARK   11  A    between atoms: C_24  and  C_26
REMARK                            x       y       z     vdW  Elec       q    Type
REMARK                         _______ _______ _______ _____ _____    ______ ____
ROOT
ATOM      1  C   UNL     1      -0.155   9.054  17.641  0.00  0.00    +0.000 C 
ATOM      2  C   UNL     1       1.140   9.353  17.922  0.00  0.00    +0.000 C 
ATOM      3  C   UNL     1       1.666  10.706  18.310  0.00  0.00    +0.000 C 
ENDROOT
BRANCH   2   4
ATOM      4  C   UNL     1       2.126   8.233  17.929  0.00  0.00    +0.000 A 
ATOM      5  C   UNL     1       3.418   8.284  17.400  0.00  0.00    +0.000 A 
ATOM      6  C   UNL     1       4.308   7.131  17.406  0.00  0.00    +0.000 A 
ATOM      7  C   UNL     1       3.949   5.886  17.960  0.00  0.00    +0.000 A 
ATOM      8  C   UNL     1       2.659   5.874  18.475  0.00  0.00    +0.000 A 
ATOM      9  C   UNL     1       1.767   7.019  18.475  0.00  0.00    +0.000 A 
ATOM     10  C   UNL     1       2.110   4.566  19.071  0.00  0.00    +0.000 C 
ATOM     11  C   UNL     1       1.475   4.373  17.615  0.00  0.00    +0.000 C 
ATOM     12  C   UNL     1       2.477   5.210  20.488  0.00  0.00    +0.000 C 
ATOM     13  C   UNL     1       2.790   3.228  19.220  0.00  0.00    +0.000 C 
ATOM     14  C   UNL     1       4.230   3.298  18.809  0.00  0.00    +0.000 C 
ATOM     15  C   UNL     1       4.841   4.623  18.148  0.00  0.00    +0.000 C 
ATOM     16  C   UNL     1       6.025   5.076  19.029  0.00  0.00    +0.000 C 
ATOM     17  C   UNL     1       5.443   4.083  16.836  0.00  0.00    +0.000 C 
ENDBRANCH   2   4
BRANCH   1  21
ATOM     18  C   UNL     1      -3.735  11.464  17.674  0.00  0.00    +0.000 A 
ATOM     19  C   UNL     1      -2.872  11.467  18.760  0.00  0.00    +0.000 A 
ATOM     20  C   UNL     1      -1.712  10.669  18.712  0.00  0.00    +0.000 A 
ATOM     21  C   UNL     1      -1.387   9.892  17.586  0.00  0.00    +0.000 A 
ATOM     22  C   UNL     1      -2.243   9.971  16.484  0.00  0.00    +0.000 A 
ATOM     23  C   UNL     1      -3.414  10.753  16.525  0.00  0.00    +0.000 A 
BRANCH  18  24
ATOM     24  C   UNL     1      -5.031  12.230  17.823  0.00  0.00    +0.000 C 
ATOM     25  O   UNL     1      -5.687  12.628  16.883  0.00  0.00    +0.000 OA
BRANCH  24  26
ATOM     26  O   UNL     1      -5.280  12.481  19.142  0.00  0.00    +0.000 OA
BRANCH  26  28
ATOM     27  C   UNL     1      -6.588  12.211  21.147  0.00  0.00    +0.000 C 
ATOM     28  C   UNL     1      -6.421  11.802  19.691  0.00  0.00    +0.000 C 
ENDBRANCH  26  28
ENDBRANCH  24  26
ENDBRANCH  18  24
ENDBRANCH   1  21
TORSDOF 5
ENDMDL
MODEL 6
REMARK VINA RESULT:      -8.1      2.532      2.923
REMARK  Name = 
REMARK  11 active torsions:
REMARK  status: ('A' for Active; 'I' for Inactive)
REMARK    1  A    between atoms: C_1  and  C_2
REMARK    2  A    between atoms: C_2  and  O_3
REMARK    3  A    between atoms: O_3  and  C_4
REMARK    4  A    between atoms: C_4  and  C_6
REMARK    5  A    between atoms: C_9  and  C_10
REMARK    6  A    between atoms: C_11  and  C_12
REMARK    7  A    between atoms: C_11  and  C_13
REMARK    8  A    between atoms: C_19  and  C_20
REMARK    9  A    between atoms: C_19  and  C_21
REMARK   10  A    between atoms: C_24  and  C_25
REMARK   11  A    between atoms: C_24  and  C_26
REMARK                            x       y       z     vdW  Elec       q    Type
REMARK                         _______ _______ _______ _____ _____    ______ ____
ROOT
ATOM      1  C   UNL     1       0.170   9.184  18.267  0.00  0.00    +0.000 C 
ATOM      2  C   UNL     1       1.491   9.402  18.039  0.00  0.00    +0.000 C 
ATOM      3  C   UNL     1       2.161  10.745  17.966  0.00  0.00    +0.000 C 
ENDROOT
BRANCH   2   4
ATOM      4  C   UNL     1       2.383   8.211  17.930  0.00  0.00    +0.000 A 
ATOM      5  C   UNL     1       3.626   8.181  17.296  0.00  0.00    +0.000 A 
ATOM      6  C   UNL     1       4.420   6.964  17.193  0.00  0.00    +0.000 A 
ATOM      7  C   UNL     1       4.011   5.732  17.739  0.00  0.00    +0.000 A 
ATOM      8  C   UNL     1       2.771   5.800  18.360  0.00  0.00    +0.000 A 
ATOM      9  C   UNL     1       1.975   7.009  18.469  0.00  0.00    +0.000 A 
ATOM     10  C   UNL     1       2.170   4.517  18.963  0.00  0.00    +0.000 C 
ATOM     11  C   UNL     1       1.405   4.425  17.561  0.00  0.00    +0.000 C 
ATOM     12  C   UNL     1       2.702   5.081  20.362  0.00  0.00    +0.000 C 
ATOM     13  C   UNL     1       2.753   3.127  19.015  0.00  0.00    +0.000 C 
ATOM     14  C   UNL     1       4.155   3.101  18.486  0.00  0.00    +0.000 C 
ATOM     15  C   UNL     1       4.813   4.398  17.814  0.00  0.00    +0.000 C 
ATOM     16  C   UNL     1       6.097   4.727  18.605  0.00  0.00    +0.000 C 
ATOM     17  C   UNL     1       5.260   3.861  16.441  0.00  0.00    +0.000 C 
ENDBRANCH   2   4
BRANCH   1  21
ATOM     18  C   UNL     1      -3.126  11.863  19.038  0.00  0.00    +0.000 A 
ATOM     19  C   UNL     1      -2.050  11.797  19.911  0.00  0.00    +0.000 A 
ATOM     20  C   UNL     1      -0.992  10.913  19.626  0.00  0.00    +0.000 A 
ATOM     21  C   UNL     1      -0.979  10.115  18.468  0.00  0.00    +0.000 A 
ATOM     22  C   UNL     1      -2.045  10.261  17.576  0.00  0.00    +0.000 A 
ATOM     23  C   UNL     1      -3.116  11.130  17.858  0.00  0.00    +0.000 A 
BRANCH  18  24
ATOM     24  C   UNL     1      -4.297  12.725  19.452  0.00  0.00    +0.000 C 
ATOM     25  O   UNL     1      -4.328  13.364  20.484  0.00  0.00    +0.000 OA
BRANCH  24  26
ATOM     26  O   UNL     1      -5.321  12.591  18.559  0.00  0.00    +0.000 OA
BRANCH  26  28
ATOM     27  C   UNL     1      -6.742  10.652  18.717  0.00  0.00    +0.000 C 
ATOM     28  C   UNL     1      -6.557  12.110  19.110  0.00  0.00    +0.000 C 
ENDBRANCH  26  28
ENDBRANCH  24  26
ENDBRANCH  18  24
ENDBRANCH   1  21
TORSDOF 5
ENDMDL
MODEL 7
REMARK VINA RESULT:      -8.1      0.844      1.255
REMARK  Name = 
REMARK  11 active torsions:
REMARK  status: ('A' for Active; 'I' for Inactive)
REMARK    1  A    between atoms: C_1  and  C_2
REMARK    2  A    between atoms: C_2  and  O_3
REMARK    3  A    between atoms: O_3  and  C_4
REMARK    4  A    between atoms: C_4  and  C_6
REMARK    5  A    between atoms: C_9  and  C_10
REMARK    6  A    between atoms: C_11  and  C_12
REMARK    7  A    between atoms: C_11  and  C_13
REMARK    8  A    between atoms: C_19  and  C_20
REMARK    9  A    between atoms: C_19  and  C_21
REMARK   10  A    between atoms: C_24  and  C_25
REMARK   11  A    between atoms: C_24  and  C_26
REMARK                            x       y       z     vdW  Elec       q    Type
REMARK                         _______ _______ _______ _____ _____    ______ ____
ROOT
ATOM      1  C   UNL     1       1.209   9.431  20.324  0.00  0.00    +0.000 C 
ATOM      2  C   UNL     1       1.207   9.097  19.008  0.00  0.00    +0.000 C 
ATOM      3  C   UNL     1       0.401   9.768  17.931  0.00  0.00    +0.000 C 
ENDROOT
BRANCH   2   4
ATOM      4  C   UNL     1       2.142   8.023  18.562  0.00  0.00    +0.000 A 
ATOM      5  C   UNL     1       3.272   8.209  17.763  0.00  0.00    +0.000 A 
ATOM      6  C   UNL     1       4.114   7.101  17.332  0.00  0.00    +0.000 A 
ATOM      7  C   UNL     1       3.869   5.763  17.701  0.00  0.00    +0.000 A 
ATOM      8  C   UNL     1       2.738   5.617  18.494  0.00  0.00    +0.000 A 
ATOM      9  C   UNL     1       1.897   6.717  18.929  0.00  0.00    +0.000 A 
ATOM     10  C   UNL     1       2.317   4.204  18.935  0.00  0.00    +0.000 C 
ATOM     11  C   UNL     1       1.352   4.282  17.662  0.00  0.00    +0.000 C 
ATOM     12  C   UNL     1       3.024   4.569  20.323  0.00  0.00    +0.000 C 
ATOM     13  C   UNL     1       2.985   2.881  18.655  0.00  0.00    +0.000 C 
ATOM     14  C   UNL     1       4.288   3.067  17.936  0.00  0.00    +0.000 C 
ATOM     15  C   UNL     1       4.753   4.511  17.422  0.00  0.00    +0.000 C 
ATOM     16  C   UNL     1       6.122   4.813  18.069  0.00  0.00    +0.000 C 
ATOM     17  C   UNL     1       5.016   4.253  15.925  0.00  0.00    +0.000 C 
ENDBRANCH   2   4
BRANCH   1  21
ATOM     18  C   UNL     1      -0.825  12.528  22.537  0.00  0.00    +0.000 A 
ATOM     19  C   UNL     1       0.066  12.853  21.525  0.00  0.00    +0.000 A 
ATOM     20  C   UNL     1       0.710  11.815  20.823  0.00  0.00    +0.000 A 
ATOM     21  C   UNL     1       0.455  10.460  21.098  0.00  0.00    +0.000 A 
ATOM     22  C   UNL     1      -0.503  10.172  22.075  0.00  0.00    +0.000 A 
ATOM     23  C   UNL     1      -1.141  11.200  22.794  0.00  0.00    +0.000 A 
BRANCH  18  24
ATOM     24  C   UNL     1      -1.390  13.672  23.350  0.00  0.00    +0.000 C 
ATOM     25  O   UNL     1      -0.701  14.483  23.934  0.00  0.00    +0.000 OA
BRANCH  24  26
ATOM     26  O   UNL     1      -2.751  13.585  23.404  0.00  0.00    +0.000 OA
BRANCH  26  28
ATOM     27  C   UNL     1      -4.178  15.350  24.214  0.00  0.00    +0.000 C 
ATOM     28  C   UNL     1      -3.354  14.127  24.590  0.00  0.00    +0.000 C 
ENDBRANCH  26  28
ENDBRANCH  24  26
ENDBRANCH  18  24
ENDBRANCH   1  21
TORSDOF 5
ENDMDL
MODEL 8
REMARK VINA RESULT:      -8.1      1.773      2.112
REMARK  Name = 
REMARK  11 active torsions:
REMARK  status: ('A' for Active; 'I' for Inactive)
REMARK    1  A    between atoms: C_1  and  C_2
REMARK    2  A    between atoms: C_2  and  O_3
REMARK    3  A    between atoms: O_3  and  C_4
REMARK    4  A    between atoms: C_4  and  C_6
REMARK    5  A    between atoms: C_9  and  C_10
REMARK    6  A    between atoms: C_11  and  C_12
REMARK    7  A    between atoms: C_11  and  C_13
REMARK    8  A    between atoms: C_19  and  C_20
REMARK    9  A    between atoms: C_19  and  C_21
REMARK   10  A    between atoms: C_24  and  C_25
REMARK   11  A    between atoms: C_24  and  C_26
REMARK                            x       y       z     vdW  Elec       q    Type
REMARK                         _______ _______ _______ _____ _____    ______ ____
ROOT
ATOM      1  C   UNL     1       0.389   9.258  18.628  0.00  0.00    +0.000 C 
ATOM      2  C   UNL     1       1.651   9.420  18.152  0.00  0.00    +0.000 C 
ATOM      3  C   UNL     1       2.318  10.733  17.857  0.00  0.00    +0.000 C 
ENDROOT
BRANCH   2   4
ATOM      4  C   UNL     1       2.489   8.197  17.976  0.00  0.00    +0.000 A 
ATOM      5  C   UNL     1       3.704   8.136  17.290  0.00  0.00    +0.000 A 
ATOM      6  C   UNL     1       4.444   6.893  17.124  0.00  0.00    +0.000 A 
ATOM      7  C   UNL     1       4.007   5.663  17.654  0.00  0.00    +0.000 A 
ATOM      8  C   UNL     1       2.796   5.763  18.328  0.00  0.00    +0.000 A 
ATOM      9  C   UNL     1       2.055   6.998  18.500  0.00  0.00    +0.000 A 
ATOM     10  C   UNL     1       2.169   4.488  18.921  0.00  0.00    +0.000 C 
ATOM     11  C   UNL     1       1.345   4.464  17.550  0.00  0.00    +0.000 C 
ATOM     12  C   UNL     1       2.779   4.992  20.311  0.00  0.00    +0.000 C 
ATOM     13  C   UNL     1       2.697   3.075  18.914  0.00  0.00    +0.000 C 
ATOM     14  C   UNL     1       4.075   3.009  18.327  0.00  0.00    +0.000 C 
ATOM     15  C   UNL     1       4.757   4.298  17.663  0.00  0.00    +0.000 C 
ATOM     16  C   UNL     1       6.084   4.555  18.408  0.00  0.00    +0.000 C 
ATOM     17  C   UNL     1       5.128   3.781  16.259  0.00  0.00    +0.000 C 
ENDBRANCH   2   4
BRANCH   1  21
ATOM     18  C   UNL     1      -2.693  12.053  19.774  0.00  0.00    +0.000 A 
ATOM     19  C   UNL     1      -1.574  11.870  20.573  0.00  0.00    +0.000 A 
ATOM     20  C   UNL     1      -0.588  10.950  20.165  0.00  0.00    +0.000 A 
ATOM     21  C   UNL     1      -0.689  10.234  18.960  0.00  0.00    +0.000 A 
ATOM     22  C   UNL     1      -1.795  10.499  18.147  0.00  0.00    +0.000 A 
ATOM     23  C   UNL     1      -2.795  11.404  18.550  0.00  0.00    +0.000 A 
BRANCH  18  24
ATOM     24  C   UNL     1      -3.786  12.948  20.315  0.00  0.00    +0.000 C 
ATOM     25  O   UNL     1      -4.798  13.218  19.701  0.00  0.00    +0.000 OA
BRANCH  24  26
ATOM     26  O   UNL     1      -3.414  13.469  21.521  0.00  0.00    +0.000 OA
BRANCH  26  28
ATOM     27  C   UNL     1      -3.509  12.461  23.708  0.00  0.00    +0.000 C 
ATOM     28  C   UNL     1      -4.296  13.171  22.616  0.00  0.00    +0.000 C 
ENDBRANCH  26  28
ENDBRANCH  24  26
ENDBRANCH  18  24
ENDBRANCH   1  21
TORSDOF 5
ENDMDL
MODEL 9
REMARK VINA RESULT:      -8.0      1.058      1.179
REMARK  Name = 
REMARK  11 active torsions:
REMARK  status: ('A' for Active; 'I' for Inactive)
REMARK    1  A    between atoms: C_1  and  C_2
REMARK    2  A    between atoms: C_2  and  O_3
REMARK    3  A    between atoms: O_3  and  C_4
REMARK    4  A    between atoms: C_4  and  C_6
REMARK    5  A    between atoms: C_9  and  C_10
REMARK    6  A    between atoms: C_11  and  C_12
REMARK    7  A    between atoms: C_11  and  C_13
REMARK    8  A    between atoms: C_19  and  C_20
REMARK    9  A    between atoms: C_19  and  C_21
REMARK   10  A    between atoms: C_24  and  C_25
REMARK   11  A    between atoms: C_24  and  C_26
REMARK                            x       y       z     vdW  Elec       q    Type
REMARK                         _______ _______ _______ _____ _____    ______ ____
ROOT
ATOM      1  C   UNL     1       0.735   9.344  19.446  0.00  0.00    +0.000 C 
ATOM      2  C   UNL     1       1.708   9.433  18.503  0.00  0.00    +0.000 C 
ATOM      3  C   UNL     1       2.116  10.684  17.777  0.00  0.00    +0.000 C 
ENDROOT
BRANCH   2   4
ATOM      4  C   UNL     1       2.506   8.207  18.209  0.00  0.00    +0.000 A 
ATOM      5  C   UNL     1       3.683   8.163  17.459  0.00  0.00    +0.000 A 
ATOM      6  C   UNL     1       4.382   6.917  17.178  0.00  0.00    +0.000 A 
ATOM      7  C   UNL     1       3.943   5.666  17.653  0.00  0.00    +0.000 A 
ATOM      8  C   UNL     1       2.771   5.749  18.393  0.00  0.00    +0.000 A 
ATOM      9  C   UNL     1       2.070   6.987  18.680  0.00  0.00    +0.000 A 
ATOM     10  C   UNL     1       2.143   4.454  18.939  0.00  0.00    +0.000 C 
ATOM     11  C   UNL     1       1.251   4.533  17.613  0.00  0.00    +0.000 C 
ATOM     12  C   UNL     1       2.834   4.856  20.324  0.00  0.00    +0.000 C 
ATOM     13  C   UNL     1       2.635   3.033  18.817  0.00  0.00    +0.000 C 
ATOM     14  C   UNL     1       3.980   2.974  18.157  0.00  0.00    +0.000 C 
ATOM     15  C   UNL     1       4.658   4.287  17.538  0.00  0.00    +0.000 C 
ATOM     16  C   UNL     1       6.027   4.468  18.228  0.00  0.00    +0.000 C 
ATOM     17  C   UNL     1       4.945   3.851  16.088  0.00  0.00    +0.000 C 
ENDBRANCH   2   4
BRANCH   1  21
ATOM     18  C   UNL     1      -1.964  12.183  21.257  0.00  0.00    +0.000 A 
ATOM     19  C   UNL     1      -0.902  11.659  21.979  0.00  0.00    +0.000 A 
ATOM     20  C   UNL     1      -0.040  10.736  21.354  0.00  0.00    +0.000 A 
ATOM     21  C   UNL     1      -0.208  10.352  20.012  0.00  0.00    +0.000 A 
ATOM     22  C   UNL     1      -1.245  10.955  19.296  0.00  0.00    +0.000 A 
ATOM     23  C   UNL     1      -2.122  11.867  19.914  0.00  0.00    +0.000 A 
BRANCH  18  24
ATOM     24  C   UNL     1      -2.937  13.065  22.008  0.00  0.00    +0.000 C 
ATOM     25  O   UNL     1      -2.704  14.218  22.307  0.00  0.00    +0.000 OA
BRANCH  24  26
ATOM     26  O   UNL     1      -4.040  12.347  22.371  0.00  0.00    +0.000 OA
BRANCH  26  28
ATOM     27  C   UNL     1      -4.446  12.417  24.746  0.00  0.00    +0.000 C 
ATOM     28  C   UNL     1      -4.860  12.953  23.383  0.00  0.00    +0.000 C 
ENDBRANCH  26  28
ENDBRANCH  24  26
ENDBRANCH  18  24
ENDBRANCH   1  21
TORSDOF 5
ENDMDL
