MODEL 1
REMARK VINA RESULT:      -6.6      0.000      0.000
REMARK  Name = 
REMARK  6 active torsions:
REMARK  status: ('A' for Active; 'I' for Inactive)
REMARK    1  A    between atoms: C_1  and  C_2
REMARK    2  A    between atoms: C_2  and  C_3
REMARK    3  A    between atoms: C_6  and  N_7
REMARK    4  A    between atoms: C_8  and  C_10
REMARK    5  A    between atoms: C_10  and  S_11
REMARK    6  A    between atoms: S_11  and  C_12
REMARK                            x       y       z     vdW  Elec       q    Type
REMARK                         _______ _______ _______ _____ _____    ______ ____
ROOT
ATOM      1  N   UNL     1       6.746   5.893  15.552  0.00  0.00    +0.000 N 
ATOM      2  C   UNL     1       7.384   5.567  16.720  0.00  0.00    +0.000 C 
ATOM      3  O   UNL     1       7.883   4.468  16.889  0.00  0.00    +0.000 OA
ATOM      4  H   UNL     1       6.436   6.871  15.443  0.00  0.00    +0.000 HD
ENDROOT
BRANCH   1   8
ATOM      5  C   UNL     1       5.948   3.287  12.255  0.00  0.00    +0.000 A 
ATOM      6  C   UNL     1       7.134   4.030  12.286  0.00  0.00    +0.000 A 
ATOM      7  C   UNL     1       7.416   4.876  13.357  0.00  0.00    +0.000 A 
ATOM      8  C   UNL     1       6.514   5.012  14.436  0.00  0.00    +0.000 A 
ATOM      9  C   UNL     1       5.338   4.236  14.413  0.00  0.00    +0.000 A 
ATOM     10  C   UNL     1       5.054   3.388  13.333  0.00  0.00    +0.000 A 
BRANCH   5  12
ATOM     11  C   UNL     1       6.399   1.097  11.084  0.00  0.00    +0.000 C 
ATOM     12  C   UNL     1       5.633   2.418  11.060  0.00  0.00    +0.000 C 
ENDBRANCH   5  12
ENDBRANCH   1   8
BRANCH   2  13
ATOM     13  C   UNL     1       7.525   6.580  17.823  0.00  0.00    +0.000 C 
BRANCH  13  14
ATOM     14  S   UNL     1       7.500   5.705  19.423  0.00  0.00    +0.000 S 
BRANCH  14  15
ATOM     15  C   UNL     1       5.883   4.953  19.220  0.00  0.00    +0.000 A 
ATOM     16  N   UNL     1       4.724   5.633  19.285  0.00  0.00    +0.000 NA
ATOM     17  N   UNL     1       3.749   4.743  19.146  0.00  0.00    +0.000 NA
ATOM     18  C   UNL     1       4.329   3.535  19.002  0.00  0.00    +0.000 A 
ATOM     19  N   UNL     1       5.668   3.639  19.042  0.00  0.00    +0.000 N 
ATOM     20  H   UNL     1       6.372   2.875  18.967  0.00  0.00    +0.000 HD
ENDBRANCH  14  15
ENDBRANCH  13  14
ENDBRANCH   2  13
TORSDOF 5
ENDMDL
MODEL 2
REMARK VINA RESULT:      -6.6      1.060      1.666
REMARK  Name = 
REMARK  6 active torsions:
REMARK  status: ('A' for Active; 'I' for Inactive)
REMARK    1  A    between atoms: C_1  and  C_2
REMARK    2  A    between atoms: C_2  and  C_3
REMARK    3  A    between atoms: C_6  and  N_7
REMARK    4  A    between atoms: C_8  and  C_10
REMARK    5  A    between atoms: C_10  and  S_11
REMARK    6  A    between atoms: S_11  and  C_12
REMARK                            x       y       z     vdW  Elec       q    Type
REMARK                         _______ _______ _______ _____ _____    ______ ____
ROOT
ATOM      1  N   UNL     1       7.406   5.479  16.011  0.00  0.00    +0.000 N 
ATOM      2  C   UNL     1       6.840   6.510  16.714  0.00  0.00    +0.000 C 
ATOM      3  O   UNL     1       5.733   6.938  16.438  0.00  0.00    +0.000 OA
ATOM      4  H   UNL     1       8.301   5.105  16.363  0.00  0.00    +0.000 HD
ENDROOT
BRANCH   1   8
ATOM      5  C   UNL     1       5.835   3.534  12.540  0.00  0.00    +0.000 A 
ATOM      6  C   UNL     1       5.141   3.464  13.753  0.00  0.00    +0.000 A 
ATOM      7  C   UNL     1       5.631   4.100  14.892  0.00  0.00    +0.000 A 
ATOM      8  C   UNL     1       6.843   4.827  14.857  0.00  0.00    +0.000 A 
ATOM      9  C   UNL     1       7.518   4.920  13.624  0.00  0.00    +0.000 A 
ATOM     10  C   UNL     1       7.025   4.277  12.480  0.00  0.00    +0.000 A 
BRANCH   5  12
ATOM     11  C   UNL     1       3.886   3.189  10.974  0.00  0.00    +0.000 C 
ATOM     12  C   UNL     1       5.317   2.792  11.331  0.00  0.00    +0.000 C 
ENDBRANCH   5  12
ENDBRANCH   1   8
BRANCH   2  13
ATOM     13  C   UNL     1       7.560   7.124  17.884  0.00  0.00    +0.000 C 
BRANCH  13  14
ATOM     14  S   UNL     1       7.899   5.817  19.109  0.00  0.00    +0.000 S 
BRANCH  14  15
ATOM     15  C   UNL     1       6.251   5.106  19.113  0.00  0.00    +0.000 A 
ATOM     16  N   UNL     1       5.157   5.744  19.565  0.00  0.00    +0.000 NA
ATOM     17  N   UNL     1       4.145   4.892  19.462  0.00  0.00    +0.000 NA
ATOM     18  C   UNL     1       4.638   3.747  18.950  0.00  0.00    +0.000 A 
ATOM     19  N   UNL     1       5.958   3.855  18.719  0.00  0.00    +0.000 N 
ATOM     20  H   UNL     1       6.602   3.131  18.338  0.00  0.00    +0.000 HD
ENDBRANCH  14  15
ENDBRANCH  13  14
ENDBRANCH   2  13
TORSDOF 5
ENDMDL
MODEL 3
REMARK VINA RESULT:      -6.6      4.775      7.598
REMARK  Name = 
REMARK  6 active torsions:
REMARK  status: ('A' for Active; 'I' for Inactive)
REMARK    1  A    between atoms: C_1  and  C_2
REMARK    2  A    between atoms: C_2  and  C_3
REMARK    3  A    between atoms: C_6  and  N_7
REMARK    4  A    between atoms: C_8  and  C_10
REMARK    5  A    between atoms: C_10  and  S_11
REMARK    6  A    between atoms: S_11  and  C_12
REMARK                            x       y       z     vdW  Elec       q    Type
REMARK                         _______ _______ _______ _____ _____    ______ ____
ROOT
ATOM      1  N   UNL     1       3.387   6.266  18.703  0.00  0.00    +0.000 N 
ATOM      2  C   UNL     1       3.010   5.057  18.180  0.00  0.00    +0.000 C 
ATOM      3  O   UNL     1       1.880   4.867  17.765  0.00  0.00    +0.000 OA
ATOM      4  H   UNL     1       4.383   6.385  18.943  0.00  0.00    +0.000 HD
ENDROOT
BRANCH   1   8
ATOM      5  C   UNL     1       0.832   9.665  19.177  0.00  0.00    +0.000 A 
ATOM      6  C   UNL     1       1.066   8.811  20.261  0.00  0.00    +0.000 A 
ATOM      7  C   UNL     1       1.904   7.705  20.129  0.00  0.00    +0.000 A 
ATOM      8  C   UNL     1       2.534   7.411  18.899  0.00  0.00    +0.000 A 
ATOM      9  C   UNL     1       2.321   8.294  17.822  0.00  0.00    +0.000 A 
ATOM     10  C   UNL     1       1.475   9.405  17.957  0.00  0.00    +0.000 A 
BRANCH   5  12
ATOM     11  C   UNL     1      -1.427  10.607  18.562  0.00  0.00    +0.000 C 
ATOM     12  C   UNL     1      -0.122  10.826  19.324  0.00  0.00    +0.000 C 
ENDBRANCH   5  12
ENDBRANCH   1   8
BRANCH   2  13
ATOM     13  C   UNL     1       4.000   3.931  18.065  0.00  0.00    +0.000 C 
BRANCH  13  14
ATOM     14  S   UNL     1       5.647   4.553  18.541  0.00  0.00    +0.000 S 
BRANCH  14  15
ATOM     15  C   UNL     1       6.338   4.595  16.885  0.00  0.00    +0.000 A 
ATOM     16  N   UNL     1       7.232   5.507  16.465  0.00  0.00    +0.000 NA
ATOM     17  N   UNL     1       7.464   5.257  15.183  0.00  0.00    +0.000 NA
ATOM     18  C   UNL     1       6.704   4.197  14.840  0.00  0.00    +0.000 A 
ATOM     19  N   UNL     1       5.990   3.760  15.891  0.00  0.00    +0.000 N 
ATOM     20  H   UNL     1       5.313   2.968  15.921  0.00  0.00    +0.000 HD
ENDBRANCH  14  15
ENDBRANCH  13  14
ENDBRANCH   2  13
TORSDOF 5
ENDMDL
MODEL 4
REMARK VINA RESULT:      -6.5      4.372      5.941
REMARK  Name = 
REMARK  6 active torsions:
REMARK  status: ('A' for Active; 'I' for Inactive)
REMARK    1  A    between atoms: C_1  and  C_2
REMARK    2  A    between atoms: C_2  and  C_3
REMARK    3  A    between atoms: C_6  and  N_7
REMARK    4  A    between atoms: C_8  and  C_10
REMARK    5  A    between atoms: C_10  and  S_11
REMARK    6  A    between atoms: S_11  and  C_12
REMARK                            x       y       z     vdW  Elec       q    Type
REMARK                         _______ _______ _______ _____ _____    ______ ____
ROOT
ATOM      1  N   UNL     1       5.950   3.769  18.755  0.00  0.00    +0.000 N 
ATOM      2  C   UNL     1       4.850   3.485  19.521  0.00  0.00    +0.000 C 
ATOM      3  O   UNL     1       4.136   4.368  19.964  0.00  0.00    +0.000 OA
ATOM      4  H   UNL     1       6.449   2.970  18.334  0.00  0.00    +0.000 HD
ENDROOT
BRANCH   1   8
ATOM      5  C   UNL     1       7.526   7.638  17.834  0.00  0.00    +0.000 A 
ATOM      6  C   UNL     1       6.365   7.187  17.195  0.00  0.00    +0.000 A 
ATOM      7  C   UNL     1       5.831   5.934  17.490  0.00  0.00    +0.000 A 
ATOM      8  C   UNL     1       6.446   5.083  18.435  0.00  0.00    +0.000 A 
ATOM      9  C   UNL     1       7.595   5.558  19.099  0.00  0.00    +0.000 A 
ATOM     10  C   UNL     1       8.133   6.817  18.798  0.00  0.00    +0.000 A 
BRANCH   5  12
ATOM     11  C   UNL     1       8.812   9.654  18.642  0.00  0.00    +0.000 C 
ATOM     12  C   UNL     1       8.121   8.975  17.461  0.00  0.00    +0.000 C 
ENDBRANCH   5  12
ENDBRANCH   1   8
BRANCH   2  13
ATOM     13  C   UNL     1       4.464   2.059  19.807  0.00  0.00    +0.000 C 
BRANCH  13  14
ATOM     14  S   UNL     1       3.767   1.329  18.288  0.00  0.00    +0.000 S 
BRANCH  14  15
ATOM     15  C   UNL     1       2.386   2.465  18.129  0.00  0.00    +0.000 A 
ATOM     16  N   UNL     1       2.196   3.276  17.073  0.00  0.00    +0.000 NA
ATOM     17  N   UNL     1       1.116   4.001  17.335  0.00  0.00    +0.000 NA
ATOM     18  C   UNL     1       0.667   3.623  18.549  0.00  0.00    +0.000 A 
ATOM     19  N   UNL     1       1.444   2.658  19.068  0.00  0.00    +0.000 N 
ATOM     20  H   UNL     1       1.346   2.183  19.990  0.00  0.00    +0.000 HD
ENDBRANCH  14  15
ENDBRANCH  13  14
ENDBRANCH   2  13
TORSDOF 5
ENDMDL
MODEL 5
REMARK VINA RESULT:      -6.5      4.724      7.825
REMARK  Name = 
REMARK  6 active torsions:
REMARK  status: ('A' for Active; 'I' for Inactive)
REMARK    1  A    between atoms: C_1  and  C_2
REMARK    2  A    between atoms: C_2  and  C_3
REMARK    3  A    between atoms: C_6  and  N_7
REMARK    4  A    between atoms: C_8  and  C_10
REMARK    5  A    between atoms: C_10  and  S_11
REMARK    6  A    between atoms: S_11  and  C_12
REMARK                            x       y       z     vdW  Elec       q    Type
REMARK                         _______ _______ _______ _____ _____    ______ ____
ROOT
ATOM      1  N   UNL     1       3.387   6.375  18.248  0.00  0.00    +0.000 N 
ATOM      2  C   UNL     1       2.988   5.132  17.835  0.00  0.00    +0.000 C 
ATOM      3  O   UNL     1       1.808   4.841  17.736  0.00  0.00    +0.000 OA
ATOM      4  H   UNL     1       4.398   6.579  18.214  0.00  0.00    +0.000 HD
ENDROOT
BRANCH   1   8
ATOM      5  C   UNL     1       0.866   9.548  19.619  0.00  0.00    +0.000 A 
ATOM      6  C   UNL     1       1.275   9.510  18.281  0.00  0.00    +0.000 A 
ATOM      7  C   UNL     1       2.088   8.478  17.813  0.00  0.00    +0.000 A 
ATOM      8  C   UNL     1       2.526   7.448  18.675  0.00  0.00    +0.000 A 
ATOM      9  C   UNL     1       2.082   7.474  20.012  0.00  0.00    +0.000 A 
ATOM     10  C   UNL     1       1.267   8.515  20.481  0.00  0.00    +0.000 A 
BRANCH   5  12
ATOM     11  C   UNL     1      -0.168  10.662  21.633  0.00  0.00    +0.000 C 
ATOM     12  C   UNL     1       0.032  10.702  20.120  0.00  0.00    +0.000 C 
ENDBRANCH   5  12
ENDBRANCH   1   8
BRANCH   2  13
ATOM     13  C   UNL     1       4.002   4.090  17.450  0.00  0.00    +0.000 C 
BRANCH  13  14
ATOM     14  S   UNL     1       5.659   4.687  17.925  0.00  0.00    +0.000 S 
BRANCH  14  15
ATOM     15  C   UNL     1       6.345   4.729  16.267  0.00  0.00    +0.000 A 
ATOM     16  N   UNL     1       7.323   5.566  15.878  0.00  0.00    +0.000 NA
ATOM     17  N   UNL     1       7.525   5.346  14.585  0.00  0.00    +0.000 NA
ATOM     18  C   UNL     1       6.664   4.381  14.205  0.00  0.00    +0.000 A 
ATOM     19  N   UNL     1       5.913   3.974  15.243  0.00  0.00    +0.000 N 
ATOM     20  H   UNL     1       5.163   3.251  15.245  0.00  0.00    +0.000 HD
ENDBRANCH  14  15
ENDBRANCH  13  14
ENDBRANCH   2  13
TORSDOF 5
ENDMDL
MODEL 6
REMARK VINA RESULT:      -6.4      3.135      6.164
REMARK  Name = 
REMARK  6 active torsions:
REMARK  status: ('A' for Active; 'I' for Inactive)
REMARK    1  A    between atoms: C_1  and  C_2
REMARK    2  A    between atoms: C_2  and  C_3
REMARK    3  A    between atoms: C_6  and  N_7
REMARK    4  A    between atoms: C_8  and  C_10
REMARK    5  A    between atoms: C_10  and  S_11
REMARK    6  A    between atoms: S_11  and  C_12
REMARK                            x       y       z     vdW  Elec       q    Type
REMARK                         _______ _______ _______ _____ _____    ______ ____
ROOT
ATOM      1  N   UNL     1       4.376   4.245  16.511  0.00  0.00    +0.000 N 
ATOM      2  C   UNL     1       4.776   5.511  16.174  0.00  0.00    +0.000 C 
ATOM      3  O   UNL     1       4.441   6.481  16.831  0.00  0.00    +0.000 OA
ATOM      4  H   UNL     1       4.777   3.465  15.968  0.00  0.00    +0.000 HD
ENDROOT
BRANCH   1   8
ATOM      5  C   UNL     1       1.819   3.224  19.785  0.00  0.00    +0.000 A 
ATOM      6  C   UNL     1       1.263   3.607  18.559  0.00  0.00    +0.000 A 
ATOM      7  C   UNL     1       2.080   3.933  17.478  0.00  0.00    +0.000 A 
ATOM      8  C   UNL     1       3.488   3.892  17.589  0.00  0.00    +0.000 A 
ATOM      9  C   UNL     1       4.039   3.473  18.816  0.00  0.00    +0.000 A 
ATOM     10  C   UNL     1       3.216   3.149  19.904  0.00  0.00    +0.000 A 
BRANCH   5  12
ATOM     11  C   UNL     1       1.699   2.456  22.187  0.00  0.00    +0.000 C 
ATOM     12  C   UNL     1       0.919   2.929  20.961  0.00  0.00    +0.000 C 
ENDBRANCH   5  12
ENDBRANCH   1   8
BRANCH   2  13
ATOM     13  C   UNL     1       5.682   5.739  14.995  0.00  0.00    +0.000 C 
BRANCH  13  14
ATOM     14  S   UNL     1       7.203   4.760  15.232  0.00  0.00    +0.000 S 
BRANCH  14  15
ATOM     15  C   UNL     1       7.501   5.253  16.932  0.00  0.00    +0.000 A 
ATOM     16  N   UNL     1       7.516   4.400  17.972  0.00  0.00    +0.000 NA
ATOM     17  N   UNL     1       7.709   5.128  19.063  0.00  0.00    +0.000 NA
ATOM     18  C   UNL     1       7.806   6.415  18.673  0.00  0.00    +0.000 A 
ATOM     19  N   UNL     1       7.681   6.521  17.339  0.00  0.00    +0.000 N 
ATOM     20  H   UNL     1       7.705   7.387  16.761  0.00  0.00    +0.000 HD
ENDBRANCH  14  15
ENDBRANCH  13  14
ENDBRANCH   2  13
TORSDOF 5
ENDMDL
MODEL 7
REMARK VINA RESULT:      -6.4      2.897      4.103
REMARK  Name = 
REMARK  6 active torsions:
REMARK  status: ('A' for Active; 'I' for Inactive)
REMARK    1  A    between atoms: C_1  and  C_2
REMARK    2  A    between atoms: C_2  and  C_3
REMARK    3  A    between atoms: C_6  and  N_7
REMARK    4  A    between atoms: C_8  and  C_10
REMARK    5  A    between atoms: C_10  and  S_11
REMARK    6  A    between atoms: S_11  and  C_12
REMARK                            x       y       z     vdW  Elec       q    Type
REMARK                         _______ _______ _______ _____ _____    ______ ____
ROOT
ATOM      1  N   UNL     1       4.021   5.277  18.459  0.00  0.00    +0.000 N 
ATOM      2  C   UNL     1       2.665   5.303  18.653  0.00  0.00    +0.000 C 
ATOM      3  O   UNL     1       1.886   5.105  17.736  0.00  0.00    +0.000 OA
ATOM      4  H   UNL     1       4.617   5.355  19.298  0.00  0.00    +0.000 HD
ENDROOT
BRANCH   1   8
ATOM      5  C   UNL     1       6.064   4.838  14.726  0.00  0.00    +0.000 A 
ATOM      6  C   UNL     1       5.817   3.714  15.523  0.00  0.00    +0.000 A 
ATOM      7  C   UNL     1       5.143   3.835  16.737  0.00  0.00    +0.000 A 
ATOM      8  C   UNL     1       4.697   5.093  17.200  0.00  0.00    +0.000 A 
ATOM      9  C   UNL     1       4.919   6.215  16.377  0.00  0.00    +0.000 A 
ATOM     10  C   UNL     1       5.600   6.091  15.157  0.00  0.00    +0.000 A 
BRANCH   5  12
ATOM     11  C   UNL     1       6.308   3.569  12.558  0.00  0.00    +0.000 C 
ATOM     12  C   UNL     1       6.844   4.694  13.441  0.00  0.00    +0.000 C 
ENDBRANCH   5  12
ENDBRANCH   1   8
BRANCH   2  13
ATOM     13  C   UNL     1       2.092   5.540  20.023  0.00  0.00    +0.000 C 
BRANCH  13  14
ATOM     14  S   UNL     1       1.238   4.024  20.568  0.00  0.00    +0.000 S 
BRANCH  14  15
ATOM     15  C   UNL     1       2.456   2.865  19.937  0.00  0.00    +0.000 A 
ATOM     16  N   UNL     1       3.685   2.707  20.460  0.00  0.00    +0.000 NA
ATOM     17  N   UNL     1       4.312   1.816  19.704  0.00  0.00    +0.000 NA
ATOM     18  C   UNL     1       3.456   1.446  18.730  0.00  0.00    +0.000 A 
ATOM     19  N   UNL     1       2.283   2.088  18.856  0.00  0.00    +0.000 N 
ATOM     20  H   UNL     1       1.442   2.010  18.245  0.00  0.00    +0.000 HD
ENDBRANCH  14  15
ENDBRANCH  13  14
ENDBRANCH   2  13
TORSDOF 5
ENDMDL
MODEL 8
REMARK VINA RESULT:      -6.3      4.078      5.838
REMARK  Name = 
REMARK  6 active torsions:
REMARK  status: ('A' for Active; 'I' for Inactive)
REMARK    1  A    between atoms: C_1  and  C_2
REMARK    2  A    between atoms: C_2  and  C_3
REMARK    3  A    between atoms: C_6  and  N_7
REMARK    4  A    between atoms: C_8  and  C_10
REMARK    5  A    between atoms: C_10  and  S_11
REMARK    6  A    between atoms: S_11  and  C_12
REMARK                            x       y       z     vdW  Elec       q    Type
REMARK                         _______ _______ _______ _____ _____    ______ ____
ROOT
ATOM      1  N   UNL     1       5.253   4.085  17.459  0.00  0.00    +0.000 N 
ATOM      2  C   UNL     1       3.885   4.131  17.513  0.00  0.00    +0.000 C 
ATOM      3  O   UNL     1       3.291   5.170  17.745  0.00  0.00    +0.000 OA
ATOM      4  H   UNL     1       5.682   3.195  17.161  0.00  0.00    +0.000 HD
ENDROOT
BRANCH   1   8
ATOM      5  C   UNL     1       7.849   7.402  18.206  0.00  0.00    +0.000 A 
ATOM      6  C   UNL     1       7.957   6.242  18.983  0.00  0.00    +0.000 A 
ATOM      7  C   UNL     1       7.127   5.148  18.748  0.00  0.00    +0.000 A 
ATOM      8  C   UNL     1       6.153   5.178  17.725  0.00  0.00    +0.000 A 
ATOM      9  C   UNL     1       6.073   6.335  16.926  0.00  0.00    +0.000 A 
ATOM     10  C   UNL     1       6.907   7.437  17.166  0.00  0.00    +0.000 A 
BRANCH   5  12
ATOM     11  C   UNL     1       8.159   9.890  17.921  0.00  0.00    +0.000 C 
ATOM     12  C   UNL     1       8.719   8.598  18.512  0.00  0.00    +0.000 C 
ENDBRANCH   5  12
ENDBRANCH   1   8
BRANCH   2  13
ATOM     13  C   UNL     1       3.066   2.898  17.245  0.00  0.00    +0.000 C 
BRANCH  13  14
ATOM     14  S   UNL     1       3.450   1.656  18.525  0.00  0.00    +0.000 S 
BRANCH  14  15
ATOM     15  C   UNL     1       2.645   2.508  19.885  0.00  0.00    +0.000 A 
ATOM     16  N   UNL     1       3.086   2.482  21.156  0.00  0.00    +0.000 NA
ATOM     17  N   UNL     1       2.213   3.171  21.879  0.00  0.00    +0.000 NA
ATOM     18  C   UNL     1       1.252   3.604  21.039  0.00  0.00    +0.000 A 
ATOM     19  N   UNL     1       1.501   3.204  19.780  0.00  0.00    +0.000 N 
ATOM     20  H   UNL     1       0.929   3.381  18.927  0.00  0.00    +0.000 HD
ENDBRANCH  14  15
ENDBRANCH  13  14
ENDBRANCH   2  13
TORSDOF 5
ENDMDL
MODEL 9
REMARK VINA RESULT:      -6.2      3.057      4.267
REMARK  Name = 
REMARK  6 active torsions:
REMARK  status: ('A' for Active; 'I' for Inactive)
REMARK    1  A    between atoms: C_1  and  C_2
REMARK    2  A    between atoms: C_2  and  C_3
REMARK    3  A    between atoms: C_6  and  N_7
REMARK    4  A    between atoms: C_8  and  C_10
REMARK    5  A    between atoms: C_10  and  S_11
REMARK    6  A    between atoms: S_11  and  C_12
REMARK                            x       y       z     vdW  Elec       q    Type
REMARK                         _______ _______ _______ _____ _____    ______ ____
ROOT
ATOM      1  N   UNL     1       3.994   5.567  18.659  0.00  0.00    +0.000 N 
ATOM      2  C   UNL     1       2.643   5.706  18.835  0.00  0.00    +0.000 C 
ATOM      3  O   UNL     1       1.861   5.569  17.909  0.00  0.00    +0.000 OA
ATOM      4  H   UNL     1       4.584   5.599  19.505  0.00  0.00    +0.000 HD
ENDROOT
BRANCH   1   8
ATOM      5  C   UNL     1       5.958   4.740  14.950  0.00  0.00    +0.000 A 
ATOM      6  C   UNL     1       5.600   6.055  15.272  0.00  0.00    +0.000 A 
ATOM      7  C   UNL     1       4.969   6.345  16.480  0.00  0.00    +0.000 A 
ATOM      8  C   UNL     1       4.669   5.324  17.409  0.00  0.00    +0.000 A 
ATOM      9  C   UNL     1       5.063   4.009  17.093  0.00  0.00    +0.000 A 
ATOM     10  C   UNL     1       5.694   3.718  15.875  0.00  0.00    +0.000 A 
BRANCH   5  12
ATOM     11  C   UNL     1       5.749   3.478  12.774  0.00  0.00    +0.000 C 
ATOM     12  C   UNL     1       6.591   4.438  13.612  0.00  0.00    +0.000 C 
ENDBRANCH   5  12
ENDBRANCH   1   8
BRANCH   2  13
ATOM     13  C   UNL     1       2.074   5.995  20.197  0.00  0.00    +0.000 C 
BRANCH  13  14
ATOM     14  S   UNL     1       2.356   4.544  21.266  0.00  0.00    +0.000 S 
BRANCH  14  15
ATOM     15  C   UNL     1       1.837   3.307  20.072  0.00  0.00    +0.000 A 
ATOM     16  N   UNL     1       2.686   2.517  19.390  0.00  0.00    +0.000 NA
ATOM     17  N   UNL     1       1.949   1.780  18.570  0.00  0.00    +0.000 NA
ATOM     18  C   UNL     1       0.662   2.133  18.763  0.00  0.00    +0.000 A 
ATOM     19  N   UNL     1       0.564   3.088  19.703  0.00  0.00    +0.000 N 
ATOM     20  H   UNL     1      -0.298   3.558  20.051  0.00  0.00    +0.000 HD
ENDBRANCH  14  15
ENDBRANCH  13  14
ENDBRANCH   2  13
TORSDOF 5
ENDMDL
