MODEL 1
REMARK VINA RESULT:      -7.4      0.000      0.000
REMARK  Name = 
REMARK  4 active torsions:
REMARK  status: ('A' for Active; 'I' for Inactive)
REMARK    1  A    between atoms: C_6  and  O_7
REMARK    2  A    between atoms: C_8  and  O_9
REMARK    3  A    between atoms: N_13  and  C_14
REMARK    4  A    between atoms: C_14  and  C_15
REMARK                            x       y       z     vdW  Elec       q    Type
REMARK                         _______ _______ _______ _____ _____    ______ ____
ROOT
ATOM      1  O   UNL     1       2.428   8.517  17.248  0.00  0.00    +0.000 OA
ATOM      2  C   UNL     1       1.966   8.617  18.370  0.00  0.00    +0.000 C 
ATOM      3  C   UNL     1       0.987   9.635  18.762  0.00  0.00    +0.000 A 
ATOM      4  C   UNL     1       0.392  10.646  18.024  0.00  0.00    +0.000 A 
ATOM      5  C   UNL     1      -0.571  11.441  18.664  0.00  0.00    +0.000 A 
ATOM      6  C   UNL     1      -0.914  11.182  19.999  0.00  0.00    +0.000 A 
ATOM      7  C   UNL     1      -0.295  10.158  20.725  0.00  0.00    +0.000 A 
ATOM      8  C   UNL     1       0.674   9.417  20.092  0.00  0.00    +0.000 A 
ATOM      9  C   UNL     1       1.515   8.321  20.564  0.00  0.00    +0.000 C 
ATOM     10  O   UNL     1       1.585   7.920  21.713  0.00  0.00    +0.000 OA
ATOM     11  N   UNL     1       2.203   7.855  19.480  0.00  0.00    +0.000 N 
ENDROOT
BRANCH   6  12
ATOM     12  O   UNL     1      -1.871  11.911  20.651  0.00  0.00    +0.000 OA
ATOM     13  H   UNL     1      -1.504  12.236  21.490  0.00  0.00    +0.000 HD
ENDBRANCH   6  12
BRANCH   7  14
ATOM     14  O   UNL     1      -0.679   9.909  22.005  0.00  0.00    +0.000 OA
ATOM     15  H   UNL     1       0.145   9.862  22.527  0.00  0.00    +0.000 HD
ENDBRANCH   7  14
BRANCH  11  16
ATOM     16  C   UNL     1       3.059   6.683  19.529  0.00  0.00    +0.000 C 
BRANCH  16  17
ATOM     17  C   UNL     1       2.266   5.419  19.265  0.00  0.00    +0.000 A 
ATOM     18  C   UNL     1       1.950   5.013  17.955  0.00  0.00    +0.000 A 
ATOM     19  C   UNL     1       1.342   3.779  17.718  0.00  0.00    +0.000 A 
ATOM     20  C   UNL     1       1.020   2.955  18.793  0.00  0.00    +0.000 A 
ATOM     21  F   UNL     1       0.478   1.753  18.557  0.00  0.00    +0.000 F 
ATOM     22  C   UNL     1       1.265   3.369  20.095  0.00  0.00    +0.000 A 
ATOM     23  F   UNL     1       0.927   2.580  21.124  0.00  0.00    +0.000 F 
ATOM     24  C   UNL     1       1.877   4.595  20.328  0.00  0.00    +0.000 A 
ATOM     25  F   UNL     1       2.104   4.986  21.590  0.00  0.00    +0.000 F 
ENDBRANCH  16  17
ENDBRANCH  11  16
TORSDOF 4
ENDMDL
MODEL 2
REMARK VINA RESULT:      -7.3      4.969      6.871
REMARK  Name = 
REMARK  4 active torsions:
REMARK  status: ('A' for Active; 'I' for Inactive)
REMARK    1  A    between atoms: C_6  and  O_7
REMARK    2  A    between atoms: C_8  and  O_9
REMARK    3  A    between atoms: N_13  and  C_14
REMARK    4  A    between atoms: C_14  and  C_15
REMARK                            x       y       z     vdW  Elec       q    Type
REMARK                         _______ _______ _______ _____ _____    ______ ____
ROOT
ATOM      1  O   UNL     1       2.482   6.836  18.036  0.00  0.00    +0.000 OA
ATOM      2  C   UNL     1       3.138   5.967  18.580  0.00  0.00    +0.000 C 
ATOM      3  C   UNL     1       2.581   4.995  19.525  0.00  0.00    +0.000 A 
ATOM      4  C   UNL     1       1.286   4.832  19.993  0.00  0.00    +0.000 A 
ATOM      5  C   UNL     1       1.035   3.756  20.859  0.00  0.00    +0.000 A 
ATOM      6  C   UNL     1       2.076   2.880  21.202  0.00  0.00    +0.000 A 
ATOM      7  C   UNL     1       3.376   3.069  20.721  0.00  0.00    +0.000 A 
ATOM      8  C   UNL     1       3.609   4.152  19.906  0.00  0.00    +0.000 A 
ATOM      9  C   UNL     1       4.830   4.640  19.274  0.00  0.00    +0.000 C 
ATOM     10  O   UNL     1       5.954   4.205  19.462  0.00  0.00    +0.000 OA
ATOM     11  N   UNL     1       4.467   5.672  18.456  0.00  0.00    +0.000 N 
ENDROOT
BRANCH   6  12
ATOM     12  O   UNL     1       1.868   1.800  22.016  0.00  0.00    +0.000 OA
ATOM     13  H   UNL     1       2.310   1.957  22.868  0.00  0.00    +0.000 HD
ENDBRANCH   6  12
BRANCH   7  14
ATOM     14  O   UNL     1       4.352   2.179  21.042  0.00  0.00    +0.000 OA
ATOM     15  H   UNL     1       4.342   1.505  20.335  0.00  0.00    +0.000 HD
ENDBRANCH   7  14
BRANCH  11  16
ATOM     16  C   UNL     1       5.397   6.340  17.563  0.00  0.00    +0.000 C 
BRANCH  16  17
ATOM     17  C   UNL     1       5.724   5.470  16.367  0.00  0.00    +0.000 A 
ATOM     18  C   UNL     1       4.854   4.446  15.946  0.00  0.00    +0.000 A 
ATOM     19  C   UNL     1       5.098   3.745  14.764  0.00  0.00    +0.000 A 
ATOM     20  C   UNL     1       6.228   4.043  14.010  0.00  0.00    +0.000 A 
ATOM     21  F   UNL     1       6.433   3.398  12.854  0.00  0.00    +0.000 F 
ATOM     22  C   UNL     1       7.131   5.003  14.444  0.00  0.00    +0.000 A 
ATOM     23  F   UNL     1       8.231   5.264  13.725  0.00  0.00    +0.000 F 
ATOM     24  C   UNL     1       6.883   5.705  15.618  0.00  0.00    +0.000 A 
ATOM     25  F   UNL     1       7.765   6.628  16.031  0.00  0.00    +0.000 F 
ENDBRANCH  16  17
ENDBRANCH  11  16
TORSDOF 4
ENDMDL
MODEL 3
REMARK VINA RESULT:      -7.2      3.989      7.097
REMARK  Name = 
REMARK  4 active torsions:
REMARK  status: ('A' for Active; 'I' for Inactive)
REMARK    1  A    between atoms: C_6  and  O_7
REMARK    2  A    between atoms: C_8  and  O_9
REMARK    3  A    between atoms: N_13  and  C_14
REMARK    4  A    between atoms: C_14  and  C_15
REMARK                            x       y       z     vdW  Elec       q    Type
REMARK                         _______ _______ _______ _____ _____    ______ ____
ROOT
ATOM      1  O   UNL     1       2.724   3.355  16.675  0.00  0.00    +0.000 OA
ATOM      2  C   UNL     1       3.713   4.016  16.933  0.00  0.00    +0.000 C 
ATOM      3  C   UNL     1       4.829   4.212  16.004  0.00  0.00    +0.000 A 
ATOM      4  C   UNL     1       5.023   3.741  14.714  0.00  0.00    +0.000 A 
ATOM      5  C   UNL     1       6.182   4.151  14.037  0.00  0.00    +0.000 A 
ATOM      6  C   UNL     1       7.081   5.027  14.661  0.00  0.00    +0.000 A 
ATOM      7  C   UNL     1       6.866   5.485  15.965  0.00  0.00    +0.000 A 
ATOM      8  C   UNL     1       5.746   5.040  16.627  0.00  0.00    +0.000 A 
ATOM      9  C   UNL     1       5.255   5.297  17.976  0.00  0.00    +0.000 C 
ATOM     10  O   UNL     1       5.851   5.905  18.849  0.00  0.00    +0.000 OA
ATOM     11  N   UNL     1       4.021   4.717  18.066  0.00  0.00    +0.000 N 
ENDROOT
BRANCH   6  12
ATOM     12  O   UNL     1       8.205   5.479  14.024  0.00  0.00    +0.000 OA
ATOM     13  H   UNL     1       7.944   6.110  13.332  0.00  0.00    +0.000 HD
ENDBRANCH   6  12
BRANCH   7  14
ATOM     14  O   UNL     1       7.738   6.364  16.526  0.00  0.00    +0.000 OA
ATOM     15  H   UNL     1       8.516   5.837  16.790  0.00  0.00    +0.000 HD
ENDBRANCH   7  14
BRANCH  11  16
ATOM     16  C   UNL     1       3.161   4.860  19.227  0.00  0.00    +0.000 C 
BRANCH  16  17
ATOM     17  C   UNL     1       2.618   6.271  19.331  0.00  0.00    +0.000 A 
ATOM     18  C   UNL     1       2.714   7.174  18.256  0.00  0.00    +0.000 A 
ATOM     19  C   UNL     1       2.089   8.421  18.314  0.00  0.00    +0.000 A 
ATOM     20  C   UNL     1       1.389   8.785  19.460  0.00  0.00    +0.000 A 
ATOM     21  F   UNL     1       0.754   9.964  19.494  0.00  0.00    +0.000 F 
ATOM     22  C   UNL     1       1.341   7.934  20.555  0.00  0.00    +0.000 A 
ATOM     23  F   UNL     1       0.686   8.303  21.665  0.00  0.00    +0.000 F 
ATOM     24  C   UNL     1       1.958   6.689  20.492  0.00  0.00    +0.000 A 
ATOM     25  F   UNL     1       1.908   5.877  21.558  0.00  0.00    +0.000 F 
ENDBRANCH  16  17
ENDBRANCH  11  16
TORSDOF 4
ENDMDL
MODEL 4
REMARK VINA RESULT:      -7.2      5.536      6.868
REMARK  Name = 
REMARK  4 active torsions:
REMARK  status: ('A' for Active; 'I' for Inactive)
REMARK    1  A    between atoms: C_6  and  O_7
REMARK    2  A    between atoms: C_8  and  O_9
REMARK    3  A    between atoms: N_13  and  C_14
REMARK    4  A    between atoms: C_14  and  C_15
REMARK                            x       y       z     vdW  Elec       q    Type
REMARK                         _______ _______ _______ _____ _____    ______ ____
ROOT
ATOM      1  O   UNL     1       5.238   7.262  15.378  0.00  0.00    +0.000 OA
ATOM      2  C   UNL     1       5.234   6.620  16.412  0.00  0.00    +0.000 C 
ATOM      3  C   UNL     1       4.227   6.776  17.466  0.00  0.00    +0.000 A 
ATOM      4  C   UNL     1       3.125   7.614  17.544  0.00  0.00    +0.000 A 
ATOM      5  C   UNL     1       2.293   7.495  18.668  0.00  0.00    +0.000 A 
ATOM      6  C   UNL     1       2.580   6.535  19.650  0.00  0.00    +0.000 A 
ATOM      7  C   UNL     1       3.701   5.704  19.551  0.00  0.00    +0.000 A 
ATOM      8  C   UNL     1       4.526   5.864  18.462  0.00  0.00    +0.000 A 
ATOM      9  C   UNL     1       5.765   5.194  18.082  0.00  0.00    +0.000 C 
ATOM     10  O   UNL     1       6.385   4.398  18.767  0.00  0.00    +0.000 OA
ATOM     11  N   UNL     1       6.091   5.641  16.833  0.00  0.00    +0.000 N 
ENDROOT
BRANCH   6  12
ATOM     12  O   UNL     1       1.777   6.362  20.744  0.00  0.00    +0.000 OA
ATOM     13  H   UNL     1       2.301   5.967  21.462  0.00  0.00    +0.000 HD
ENDBRANCH   6  12
BRANCH   7  14
ATOM     14  O   UNL     1       3.929   4.758  20.500  0.00  0.00    +0.000 OA
ATOM     15  H   UNL     1       4.344   4.007  20.035  0.00  0.00    +0.000 HD
ENDBRANCH   7  14
BRANCH  11  16
ATOM     16  C   UNL     1       7.204   5.111  16.066  0.00  0.00    +0.000 C 
BRANCH  16  17
ATOM     17  C   UNL     1       6.725   4.492  14.769  0.00  0.00    +0.000 A 
ATOM     18  C   UNL     1       5.612   3.630  14.735  0.00  0.00    +0.000 A 
ATOM     19  C   UNL     1       5.098   3.178  13.519  0.00  0.00    +0.000 A 
ATOM     20  C   UNL     1       5.710   3.562  12.329  0.00  0.00    +0.000 A 
ATOM     21  F   UNL     1       5.186   3.161  11.164  0.00  0.00    +0.000 F 
ATOM     22  C   UNL     1       6.848   4.356  12.348  0.00  0.00    +0.000 A 
ATOM     23  F   UNL     1       7.447   4.698  11.199  0.00  0.00    +0.000 F 
ATOM     24  C   UNL     1       7.354   4.812  13.560  0.00  0.00    +0.000 A 
ATOM     25  F   UNL     1       8.456   5.575  13.566  0.00  0.00    +0.000 F 
ENDBRANCH  16  17
ENDBRANCH  11  16
TORSDOF 4
ENDMDL
MODEL 5
REMARK VINA RESULT:      -7.1      2.995      4.441
REMARK  Name = 
REMARK  4 active torsions:
REMARK  status: ('A' for Active; 'I' for Inactive)
REMARK    1  A    between atoms: C_6  and  O_7
REMARK    2  A    between atoms: C_8  and  O_9
REMARK    3  A    between atoms: N_13  and  C_14
REMARK    4  A    between atoms: C_14  and  C_15
REMARK                            x       y       z     vdW  Elec       q    Type
REMARK                         _______ _______ _______ _____ _____    ______ ____
ROOT
ATOM      1  O   UNL     1       2.130   5.781  20.692  0.00  0.00    +0.000 OA
ATOM      2  C   UNL     1       2.055   6.741  19.949  0.00  0.00    +0.000 C 
ATOM      3  C   UNL     1       1.466   8.027  20.334  0.00  0.00    +0.000 A 
ATOM      4  C   UNL     1       0.901   8.438  21.531  0.00  0.00    +0.000 A 
ATOM      5  C   UNL     1       0.470   9.770  21.627  0.00  0.00    +0.000 A 
ATOM      6  C   UNL     1       0.639  10.637  20.537  0.00  0.00    +0.000 A 
ATOM      7  C   UNL     1       1.207  10.198  19.337  0.00  0.00    +0.000 A 
ATOM      8  C   UNL     1       1.587   8.879  19.250  0.00  0.00    +0.000 A 
ATOM      9  C   UNL     1       2.170   8.111  18.155  0.00  0.00    +0.000 C 
ATOM     10  O   UNL     1       2.330   8.507  17.013  0.00  0.00    +0.000 OA
ATOM     11  N   UNL     1       2.481   6.879  18.657  0.00  0.00    +0.000 N 
ENDROOT
BRANCH   6  12
ATOM     12  O   UNL     1       0.263  11.952  20.599  0.00  0.00    +0.000 OA
ATOM     13  H   UNL     1      -0.407  12.121  19.916  0.00  0.00    +0.000 HD
ENDBRANCH   6  12
BRANCH   7  14
ATOM     14  O   UNL     1       1.392  11.074  18.315  0.00  0.00    +0.000 OA
ATOM     15  H   UNL     1       1.243  11.962  18.694  0.00  0.00    +0.000 HD
ENDBRANCH   7  14
BRANCH  11  16
ATOM     16  C   UNL     1       3.191   5.869  17.893  0.00  0.00    +0.000 C 
BRANCH  16  17
ATOM     17  C   UNL     1       4.690   6.066  17.992  0.00  0.00    +0.000 A 
ATOM     18  C   UNL     1       5.376   6.923  17.110  0.00  0.00    +0.000 A 
ATOM     19  C   UNL     1       6.730   7.203  17.298  0.00  0.00    +0.000 A 
ATOM     20  C   UNL     1       7.415   6.607  18.352  0.00  0.00    +0.000 A 
ATOM     21  F   UNL     1       8.703   6.914  18.554  0.00  0.00    +0.000 F 
ATOM     22  C   UNL     1       6.771   5.708  19.191  0.00  0.00    +0.000 A 
ATOM     23  F   UNL     1       7.445   5.118  20.187  0.00  0.00    +0.000 F 
ATOM     24  C   UNL     1       5.419   5.436  19.006  0.00  0.00    +0.000 A 
ATOM     25  F   UNL     1       4.809   4.563  19.820  0.00  0.00    +0.000 F 
ENDBRANCH  16  17
ENDBRANCH  11  16
TORSDOF 4
ENDMDL
MODEL 6
REMARK VINA RESULT:      -7.0      1.107      2.320
REMARK  Name = 
REMARK  4 active torsions:
REMARK  status: ('A' for Active; 'I' for Inactive)
REMARK    1  A    between atoms: C_6  and  O_7
REMARK    2  A    between atoms: C_8  and  O_9
REMARK    3  A    between atoms: N_13  and  C_14
REMARK    4  A    between atoms: C_14  and  C_15
REMARK                            x       y       z     vdW  Elec       q    Type
REMARK                         _______ _______ _______ _____ _____    ______ ____
ROOT
ATOM      1  O   UNL     1       1.076   7.374  21.559  0.00  0.00    +0.000 OA
ATOM      2  C   UNL     1       1.444   7.924  20.538  0.00  0.00    +0.000 C 
ATOM      3  C   UNL     1       0.947   9.228  20.087  0.00  0.00    +0.000 A 
ATOM      4  C   UNL     1       0.020  10.086  20.658  0.00  0.00    +0.000 A 
ATOM      5  C   UNL     1      -0.213  11.313  20.019  0.00  0.00    +0.000 A 
ATOM      6  C   UNL     1       0.502  11.642  18.858  0.00  0.00    +0.000 A 
ATOM      7  C   UNL     1       1.429  10.757  18.298  0.00  0.00    +0.000 A 
ATOM      8  C   UNL     1       1.613   9.542  18.916  0.00  0.00    +0.000 A 
ATOM      9  C   UNL     1       2.464   8.406  18.579  0.00  0.00    +0.000 C 
ATOM     10  O   UNL     1       3.122   8.285  17.560  0.00  0.00    +0.000 OA
ATOM     11  N   UNL     1       2.364   7.517  19.612  0.00  0.00    +0.000 N 
ENDROOT
BRANCH   6  12
ATOM     12  O   UNL     1       0.330  12.842  18.223  0.00  0.00    +0.000 OA
ATOM     13  H   UNL     1      -0.472  12.797  17.674  0.00  0.00    +0.000 HD
ENDBRANCH   6  12
BRANCH   7  14
ATOM     14  O   UNL     1       2.132  11.123  17.194  0.00  0.00    +0.000 OA
ATOM     15  H   UNL     1       3.014  11.391  17.516  0.00  0.00    +0.000 HD
ENDBRANCH   7  14
BRANCH  11  16
ATOM     16  C   UNL     1       3.163   6.307  19.695  0.00  0.00    +0.000 C 
BRANCH  16  17
ATOM     17  C   UNL     1       2.322   5.079  19.415  0.00  0.00    +0.000 A 
ATOM     18  C   UNL     1       1.900   4.762  18.110  0.00  0.00    +0.000 A 
ATOM     19  C   UNL     1       1.246   3.558  17.845  0.00  0.00    +0.000 A 
ATOM     20  C   UNL     1       0.983   2.675  18.888  0.00  0.00    +0.000 A 
ATOM     21  F   UNL     1       0.395   1.502  18.622  0.00  0.00    +0.000 F 
ATOM     22  C   UNL     1       1.333   3.002  20.191  0.00  0.00    +0.000 A 
ATOM     23  F   UNL     1       1.051   2.158  21.193  0.00  0.00    +0.000 F 
ATOM     24  C   UNL     1       1.991   4.199  20.452  0.00  0.00    +0.000 A 
ATOM     25  F   UNL     1       2.320   4.506  21.715  0.00  0.00    +0.000 F 
ENDBRANCH  16  17
ENDBRANCH  11  16
TORSDOF 4
ENDMDL
MODEL 7
REMARK VINA RESULT:      -7.0      1.765      2.586
REMARK  Name = 
REMARK  4 active torsions:
REMARK  status: ('A' for Active; 'I' for Inactive)
REMARK    1  A    between atoms: C_6  and  O_7
REMARK    2  A    between atoms: C_8  and  O_9
REMARK    3  A    between atoms: N_13  and  C_14
REMARK    4  A    between atoms: C_14  and  C_15
REMARK                            x       y       z     vdW  Elec       q    Type
REMARK                         _______ _______ _______ _____ _____    ______ ____
ROOT
ATOM      1  O   UNL     1       2.127   6.635  20.904  0.00  0.00    +0.000 OA
ATOM      2  C   UNL     1       1.890   7.557  20.146  0.00  0.00    +0.000 C 
ATOM      3  C   UNL     1       1.010   8.681  20.478  0.00  0.00    +0.000 A 
ATOM      4  C   UNL     1       0.295   8.957  21.634  0.00  0.00    +0.000 A 
ATOM      5  C   UNL     1      -0.424  10.161  21.686  0.00  0.00    +0.000 A 
ATOM      6  C   UNL     1      -0.381  11.046  20.599  0.00  0.00    +0.000 A 
ATOM      7  C   UNL     1       0.344  10.744  19.441  0.00  0.00    +0.000 A 
ATOM      8  C   UNL     1       1.008   9.541  19.394  0.00  0.00    +0.000 A 
ATOM      9  C   UNL     1       1.813   8.922  18.346  0.00  0.00    +0.000 C 
ATOM     10  O   UNL     1       1.954   9.345  17.212  0.00  0.00    +0.000 OA
ATOM     11  N   UNL     1       2.355   7.787  18.881  0.00  0.00    +0.000 N 
ENDROOT
BRANCH   6  12
ATOM     12  O   UNL     1      -1.039  12.246  20.621  0.00  0.00    +0.000 OA
ATOM     13  H   UNL     1      -0.759  12.745  21.407  0.00  0.00    +0.000 HD
ENDBRANCH   6  12
BRANCH   7  14
ATOM     14  O   UNL     1       0.396  11.641  18.422  0.00  0.00    +0.000 OA
ATOM     15  H   UNL     1       1.316  11.968  18.400  0.00  0.00    +0.000 HD
ENDBRANCH   7  14
BRANCH  11  16
ATOM     16  C   UNL     1       3.316   6.959  18.175  0.00  0.00    +0.000 C 
BRANCH  16  17
ATOM     17  C   UNL     1       3.046   5.487  18.412  0.00  0.00    +0.000 A 
ATOM     18  C   UNL     1       1.896   4.862  17.894  0.00  0.00    +0.000 A 
ATOM     19  C   UNL     1       1.728   3.480  18.001  0.00  0.00    +0.000 A 
ATOM     20  C   UNL     1       2.695   2.719  18.651  0.00  0.00    +0.000 A 
ATOM     21  F   UNL     1       2.550   1.389  18.712  0.00  0.00    +0.000 F 
ATOM     22  C   UNL     1       3.801   3.328  19.226  0.00  0.00    +0.000 A 
ATOM     23  F   UNL     1       4.713   2.591  19.874  0.00  0.00    +0.000 F 
ATOM     24  C   UNL     1       3.970   4.704  19.112  0.00  0.00    +0.000 A 
ATOM     25  F   UNL     1       5.041   5.283  19.675  0.00  0.00    +0.000 F 
ENDBRANCH  16  17
ENDBRANCH  11  16
TORSDOF 4
ENDMDL
MODEL 8
REMARK VINA RESULT:      -7.0      3.305      4.610
REMARK  Name = 
REMARK  4 active torsions:
REMARK  status: ('A' for Active; 'I' for Inactive)
REMARK    1  A    between atoms: C_6  and  O_7
REMARK    2  A    between atoms: C_8  and  O_9
REMARK    3  A    between atoms: N_13  and  C_14
REMARK    4  A    between atoms: C_14  and  C_15
REMARK                            x       y       z     vdW  Elec       q    Type
REMARK                         _______ _______ _______ _____ _____    ______ ____
ROOT
ATOM      1  O   UNL     1       1.885   5.954  20.719  0.00  0.00    +0.000 OA
ATOM      2  C   UNL     1       1.869   6.930  19.992  0.00  0.00    +0.000 C 
ATOM      3  C   UNL     1       1.369   8.246  20.401  0.00  0.00    +0.000 A 
ATOM      4  C   UNL     1       0.841   8.674  21.609  0.00  0.00    +0.000 A 
ATOM      5  C   UNL     1       0.499  10.030  21.728  0.00  0.00    +0.000 A 
ATOM      6  C   UNL     1       0.719  10.901  20.651  0.00  0.00    +0.000 A 
ATOM      7  C   UNL     1       1.249  10.444  19.440  0.00  0.00    +0.000 A 
ATOM      8  C   UNL     1       1.539   9.104  19.330  0.00  0.00    +0.000 A 
ATOM      9  C   UNL     1       2.063   8.317  18.218  0.00  0.00    +0.000 C 
ATOM     10  O   UNL     1       2.241   8.719  17.081  0.00  0.00    +0.000 OA
ATOM     11  N   UNL     1       2.294   7.059  18.699  0.00  0.00    +0.000 N 
ENDROOT
BRANCH   6  12
ATOM     12  O   UNL     1       0.432  12.237  20.735  0.00  0.00    +0.000 OA
ATOM     13  H   UNL     1      -0.039  12.406  21.569  0.00  0.00    +0.000 HD
ENDBRANCH   6  12
BRANCH   7  14
ATOM     14  O   UNL     1       1.485  11.322  18.430  0.00  0.00    +0.000 OA
ATOM     15  H   UNL     1       0.945  12.111  18.630  0.00  0.00    +0.000 HD
ENDBRANCH   7  14
BRANCH  11  16
ATOM     16  C   UNL     1       2.931   6.016  17.914  0.00  0.00    +0.000 C 
BRANCH  16  17
ATOM     17  C   UNL     1       4.419   5.956  18.194  0.00  0.00    +0.000 A 
ATOM     18  C   UNL     1       4.921   5.329  19.350  0.00  0.00    +0.000 A 
ATOM     19  C   UNL     1       6.295   5.158  19.527  0.00  0.00    +0.000 A 
ATOM     20  C   UNL     1       7.177   5.639  18.564  0.00  0.00    +0.000 A 
ATOM     21  F   UNL     1       8.492   5.433  18.717  0.00  0.00    +0.000 F 
ATOM     22  C   UNL     1       6.701   6.319  17.451  0.00  0.00    +0.000 A 
ATOM     23  F   UNL     1       7.559   6.802  16.542  0.00  0.00    +0.000 F 
ATOM     24  C   UNL     1       5.332   6.481  17.273  0.00  0.00    +0.000 A 
ATOM     25  F   UNL     1       4.884   7.143  16.196  0.00  0.00    +0.000 F 
ENDBRANCH  16  17
ENDBRANCH  11  16
TORSDOF 4
ENDMDL
MODEL 9
REMARK VINA RESULT:      -7.0      1.151      1.673
REMARK  Name = 
REMARK  4 active torsions:
REMARK  status: ('A' for Active; 'I' for Inactive)
REMARK    1  A    between atoms: C_6  and  O_7
REMARK    2  A    between atoms: C_8  and  O_9
REMARK    3  A    between atoms: N_13  and  C_14
REMARK    4  A    between atoms: C_14  and  C_15
REMARK                            x       y       z     vdW  Elec       q    Type
REMARK                         _______ _______ _______ _____ _____    ______ ____
ROOT
ATOM      1  O   UNL     1       2.257   8.329  17.269  0.00  0.00    +0.000 OA
ATOM      2  C   UNL     1       1.832   8.553  18.387  0.00  0.00    +0.000 C 
ATOM      3  C   UNL     1       0.802   9.553  18.684  0.00  0.00    +0.000 A 
ATOM      4  C   UNL     1       0.112  10.414  17.844  0.00  0.00    +0.000 A 
ATOM      5  C   UNL     1      -0.878  11.229  18.415  0.00  0.00    +0.000 A 
ATOM      6  C   UNL     1      -1.152  11.134  19.787  0.00  0.00    +0.000 A 
ATOM      7  C   UNL     1      -0.439  10.261  20.615  0.00  0.00    +0.000 A 
ATOM      8  C   UNL     1       0.554   9.501  20.044  0.00  0.00    +0.000 A 
ATOM      9  C   UNL     1       1.484   8.535  20.620  0.00  0.00    +0.000 C 
ATOM     10  O   UNL     1       1.624   8.301  21.808  0.00  0.00    +0.000 OA
ATOM     11  N   UNL     1       2.162   7.968  19.578  0.00  0.00    +0.000 N 
ENDROOT
BRANCH   6  12
ATOM     12  O   UNL     1      -2.132  11.886  20.378  0.00  0.00    +0.000 OA
ATOM     13  H   UNL     1      -1.817  12.802  20.467  0.00  0.00    +0.000 HD
ENDBRANCH   6  12
BRANCH   7  14
ATOM     14  O   UNL     1      -0.757  10.167  21.933  0.00  0.00    +0.000 OA
ATOM     15  H   UNL     1       0.091  10.204  22.416  0.00  0.00    +0.000 HD
ENDBRANCH   7  14
BRANCH  11  16
ATOM     16  C   UNL     1       3.096   6.869  19.745  0.00  0.00    +0.000 C 
BRANCH  16  17
ATOM     17  C   UNL     1       2.421   5.537  19.486  0.00  0.00    +0.000 A 
ATOM     18  C   UNL     1       1.569   4.950  20.440  0.00  0.00    +0.000 A 
ATOM     19  C   UNL     1       0.847   3.795  20.136  0.00  0.00    +0.000 A 
ATOM     20  C   UNL     1       0.994   3.203  18.885  0.00  0.00    +0.000 A 
ATOM     21  F   UNL     1       0.265   2.121  18.582  0.00  0.00    +0.000 F 
ATOM     22  C   UNL     1       1.880   3.731  17.956  0.00  0.00    +0.000 A 
ATOM     23  F   UNL     1       2.035   3.139  16.764  0.00  0.00    +0.000 F 
ATOM     24  C   UNL     1       2.593   4.886  18.259  0.00  0.00    +0.000 A 
ATOM     25  F   UNL     1       3.450   5.384  17.356  0.00  0.00    +0.000 F 
ENDBRANCH  16  17
ENDBRANCH  11  16
TORSDOF 4
ENDMDL
