MODEL 1
REMARK VINA RESULT:      -9.3      0.000      0.000
REMARK  Name = 
REMARK  7 active torsions:
REMARK  status: ('A' for Active; 'I' for Inactive)
REMARK    1  A    between atoms: N_3  and  C_4
REMARK    2  A    between atoms: C_7  and  O_8
REMARK    3  A    between atoms: O_8  and  C_9
REMARK    4  A    between atoms: N_17  and  C_18
REMARK    5  A    between atoms: N_25  and  C_26
REMARK    6  A    between atoms: C_26  and  C_27
REMARK    7  A    between atoms: C_27  and  N_28
REMARK                            x       y       z     vdW  Elec       q    Type
REMARK                         _______ _______ _______ _____ _____    ______ ____
ROOT
ATOM      1  O   UNL     1       7.649   8.879  17.575  0.00  0.00    +0.000 OA
ATOM      2  C   UNL     1       8.388   8.395  18.426  0.00  0.00    +0.000 C 
ATOM      3  N   UNL     1       8.310   7.082  18.868  0.00  0.00    +0.000 N 
ATOM      4  N   UNL     1       9.351   9.122  19.113  0.00  0.00    +0.000 N 
ATOM      5  H   UNL     1       8.809   6.854  19.716  0.00  0.00    +0.000 HD
ATOM      6  H   UNL     1       9.776   8.660  19.901  0.00  0.00    +0.000 HD
ENDROOT
BRANCH   4   7
ATOM      7  C   UNL     1       9.325  10.538  19.174  0.00  0.00    +0.000 A 
ATOM      8  C   UNL     1       9.101  11.267  20.350  0.00  0.00    +0.000 A 
ATOM      9  C   UNL     1       9.399  12.639  20.444  0.00  0.00    +0.000 A 
ATOM     10  C   UNL     1      10.002  13.222  19.320  0.00  0.00    +0.000 A 
ATOM     11  C   UNL     1      10.159  12.520  18.126  0.00  0.00    +0.000 A 
ATOM     12  C   UNL     1      10.848  13.393  17.264  0.00  0.00    +0.000 A 
ATOM     13  N   UNL     1      11.199  14.519  17.869  0.00  0.00    +0.000 NA
ATOM     14  N   UNL     1      10.533  14.461  19.044  0.00  0.00    +0.000 N 
ATOM     15  C   UNL     1       9.713  11.201  18.012  0.00  0.00    +0.000 A 
BRANCH  14  16
ATOM     16  C   UNL     1      10.270  15.746  19.664  0.00  0.00    +0.000 C 
BRANCH  16  17
ATOM     17  C   UNL     1       8.980  16.340  19.052  0.00  0.00    +0.000 C 
BRANCH  17  18
ATOM     18  N   UNL     1       7.747  15.969  19.758  0.00  0.00    +0.000 NA
ATOM     19  C   UNL     1       6.883  17.128  20.036  0.00  0.00    +0.000 C 
ATOM     20  C   UNL     1       5.779  17.086  18.998  0.00  0.00    +0.000 C 
ATOM     21  C   UNL     1       5.558  15.606  18.818  0.00  0.00    +0.000 C 
ATOM     22  F   UNL     1       5.077  15.331  17.588  0.00  0.00    +0.000 F 
ATOM     23  F   UNL     1       4.668  15.143  19.724  0.00  0.00    +0.000 F 
ATOM     24  C   UNL     1       6.925  14.979  19.036  0.00  0.00    +0.000 C 
ENDBRANCH  17  18
ENDBRANCH  16  17
ENDBRANCH  14  16
ENDBRANCH   4   7
BRANCH   3  25
ATOM     25  C   UNL     1       7.384   6.125  18.398  0.00  0.00    +0.000 A 
ATOM     26  C   UNL     1       7.264   5.770  17.048  0.00  0.00    +0.000 A 
ATOM     27  C   UNL     1       6.324   4.828  16.631  0.00  0.00    +0.000 A 
ATOM     28  C   UNL     1       5.497   4.208  17.559  0.00  0.00    +0.000 A 
ATOM     29  C   UNL     1       5.574   4.580  18.912  0.00  0.00    +0.000 A 
ATOM     30  C   UNL     1       6.531   5.507  19.327  0.00  0.00    +0.000 A 
BRANCH  28  31
ATOM     31  O   UNL     1       4.604   3.302  17.041  0.00  0.00    +0.000 OA
BRANCH  31  32
ATOM     32  C   UNL     1       3.417   3.055  17.688  0.00  0.00    +0.000 A 
ATOM     33  C   UNL     1       2.425   4.023  17.513  0.00  0.00    +0.000 A 
ATOM     34  C   UNL     1       1.191   3.884  18.148  0.00  0.00    +0.000 A 
ATOM     35  C   UNL     1       0.946   2.776  18.956  0.00  0.00    +0.000 A 
ATOM     36  C   UNL     1       1.916   1.784  19.096  0.00  0.00    +0.000 A 
ATOM     37  C   UNL     1       3.140   1.908  18.437  0.00  0.00    +0.000 A 
ENDBRANCH  31  32
ENDBRANCH  28  31
ENDBRANCH   3  25
TORSDOF 7
ENDMDL
MODEL 2
REMARK VINA RESULT:      -9.0      1.335      2.259
REMARK  Name = 
REMARK  7 active torsions:
REMARK  status: ('A' for Active; 'I' for Inactive)
REMARK    1  A    between atoms: N_3  and  C_4
REMARK    2  A    between atoms: C_7  and  O_8
REMARK    3  A    between atoms: O_8  and  C_9
REMARK    4  A    between atoms: N_17  and  C_18
REMARK    5  A    between atoms: N_25  and  C_26
REMARK    6  A    between atoms: C_26  and  C_27
REMARK    7  A    between atoms: C_27  and  N_28
REMARK                            x       y       z     vdW  Elec       q    Type
REMARK                         _______ _______ _______ _____ _____    ______ ____
ROOT
ATOM      1  O   UNL     1       7.704   9.220  17.687  0.00  0.00    +0.000 OA
ATOM      2  C   UNL     1       8.464   8.695  18.494  0.00  0.00    +0.000 C 
ATOM      3  N   UNL     1       8.408   7.358  18.860  0.00  0.00    +0.000 N 
ATOM      4  N   UNL     1       9.433   9.392  19.204  0.00  0.00    +0.000 N 
ATOM      5  H   UNL     1       8.926   7.087  19.684  0.00  0.00    +0.000 HD
ATOM      6  H   UNL     1       9.878   8.890  19.955  0.00  0.00    +0.000 HD
ENDROOT
BRANCH   4   7
ATOM      7  C   UNL     1       9.394  10.802  19.348  0.00  0.00    +0.000 A 
ATOM      8  C   UNL     1       9.276  11.696  18.275  0.00  0.00    +0.000 A 
ATOM      9  C   UNL     1       8.917  13.043  18.464  0.00  0.00    +0.000 A 
ATOM     10  C   UNL     1       8.612  13.426  19.778  0.00  0.00    +0.000 A 
ATOM     11  C   UNL     1       8.798  12.561  20.855  0.00  0.00    +0.000 A 
ATOM     12  C   UNL     1       8.331  13.259  21.983  0.00  0.00    +0.000 A 
ATOM     13  N   UNL     1       7.795  14.429  21.661  0.00  0.00    +0.000 NA
ATOM     14  N   UNL     1       8.131  14.576  20.360  0.00  0.00    +0.000 N 
ATOM     15  C   UNL     1       9.304  11.273  20.655  0.00  0.00    +0.000 A 
BRANCH  14  16
ATOM     16  C   UNL     1       8.177  15.948  19.891  0.00  0.00    +0.000 C 
BRANCH  16  17
ATOM     17  C   UNL     1       7.067  16.151  18.835  0.00  0.00    +0.000 C 
BRANCH  17  18
ATOM     18  N   UNL     1       5.846  15.372  19.080  0.00  0.00    +0.000 NA
ATOM     19  C   UNL     1       4.812  16.147  19.786  0.00  0.00    +0.000 C 
ATOM     20  C   UNL     1       3.807  16.563  18.730  0.00  0.00    +0.000 C 
ATOM     21  C   UNL     1       3.806  15.379  17.797  0.00  0.00    +0.000 C 
ATOM     22  F   UNL     1       3.463  15.745  16.545  0.00  0.00    +0.000 F 
ATOM     23  F   UNL     1       2.922  14.445  18.213  0.00  0.00    +0.000 F 
ATOM     24  C   UNL     1       5.226  14.839  17.852  0.00  0.00    +0.000 C 
ENDBRANCH  17  18
ENDBRANCH  16  17
ENDBRANCH  14  16
ENDBRANCH   4   7
BRANCH   3  25
ATOM     25  C   UNL     1       7.482   6.420  18.354  0.00  0.00    +0.000 A 
ATOM     26  C   UNL     1       6.742   5.554  19.170  0.00  0.00    +0.000 A 
ATOM     27  C   UNL     1       5.849   4.635  18.621  0.00  0.00    +0.000 A 
ATOM     28  C   UNL     1       5.662   4.576  17.246  0.00  0.00    +0.000 A 
ATOM     29  C   UNL     1       6.425   5.408  16.408  0.00  0.00    +0.000 A 
ATOM     30  C   UNL     1       7.302   6.341  16.963  0.00  0.00    +0.000 A 
BRANCH  28  31
ATOM     31  O   UNL     1       4.765   3.631  16.812  0.00  0.00    +0.000 OA
BRANCH  31  32
ATOM     32  C   UNL     1       3.567   3.464  17.464  0.00  0.00    +0.000 A 
ATOM     33  C   UNL     1       3.368   2.207  18.040  0.00  0.00    +0.000 A 
ATOM     34  C   UNL     1       2.175   1.922  18.703  0.00  0.00    +0.000 A 
ATOM     35  C   UNL     1       1.180   2.894  18.793  0.00  0.00    +0.000 A 
ATOM     36  C   UNL     1       1.394   4.164  18.261  0.00  0.00    +0.000 A 
ATOM     37  C   UNL     1       2.599   4.459  17.623  0.00  0.00    +0.000 A 
ENDBRANCH  31  32
ENDBRANCH  28  31
ENDBRANCH   3  25
TORSDOF 7
ENDMDL
MODEL 3
REMARK VINA RESULT:      -8.9      1.094      1.583
REMARK  Name = 
REMARK  7 active torsions:
REMARK  status: ('A' for Active; 'I' for Inactive)
REMARK    1  A    between atoms: N_3  and  C_4
REMARK    2  A    between atoms: C_7  and  O_8
REMARK    3  A    between atoms: O_8  and  C_9
REMARK    4  A    between atoms: N_17  and  C_18
REMARK    5  A    between atoms: N_25  and  C_26
REMARK    6  A    between atoms: C_26  and  C_27
REMARK    7  A    between atoms: C_27  and  N_28
REMARK                            x       y       z     vdW  Elec       q    Type
REMARK                         _______ _______ _______ _____ _____    ______ ____
ROOT
ATOM      1  O   UNL     1       7.630   9.331  17.632  0.00  0.00    +0.000 OA
ATOM      2  C   UNL     1       8.366   8.685  18.370  0.00  0.00    +0.000 C 
ATOM      3  N   UNL     1       8.217   7.329  18.624  0.00  0.00    +0.000 N 
ATOM      4  N   UNL     1       9.399   9.246  19.109  0.00  0.00    +0.000 N 
ATOM      5  H   UNL     1       8.731   6.951  19.408  0.00  0.00    +0.000 HD
ATOM      6  H   UNL     1       9.821   8.650  19.804  0.00  0.00    +0.000 HD
ENDROOT
BRANCH   4   7
ATOM      7  C   UNL     1       9.468  10.637  19.373  0.00  0.00    +0.000 A 
ATOM      8  C   UNL     1       9.358  11.199  20.652  0.00  0.00    +0.000 A 
ATOM      9  C   UNL     1       9.749  12.523  20.921  0.00  0.00    +0.000 A 
ATOM     10  C   UNL     1      10.326  13.229  19.856  0.00  0.00    +0.000 A 
ATOM     11  C   UNL     1      10.371  12.701  18.566  0.00  0.00    +0.000 A 
ATOM     12  C   UNL     1      11.068  13.649  17.795  0.00  0.00    +0.000 A 
ATOM     13  N   UNL     1      11.524  14.654  18.531  0.00  0.00    +0.000 NA
ATOM     14  N   UNL     1      10.920  14.463  19.725  0.00  0.00    +0.000 N 
ATOM     15  C   UNL     1       9.834  11.439  18.294  0.00  0.00    +0.000 A 
BRANCH  14  16
ATOM     16  C   UNL     1      10.776  15.656  20.537  0.00  0.00    +0.000 C 
BRANCH  16  17
ATOM     17  C   UNL     1      10.408  16.843  19.616  0.00  0.00    +0.000 C 
BRANCH  17  18
ATOM     18  N   UNL     1       8.968  17.115  19.523  0.00  0.00    +0.000 NA
ATOM     19  C   UNL     1       8.408  16.758  18.209  0.00  0.00    +0.000 C 
ATOM     20  C   UNL     1       7.698  15.433  18.402  0.00  0.00    +0.000 C 
ATOM     21  C   UNL     1       7.149  15.558  19.801  0.00  0.00    +0.000 C 
ATOM     22  F   UNL     1       7.004  14.348  20.378  0.00  0.00    +0.000 F 
ATOM     23  F   UNL     1       5.938  16.159  19.786  0.00  0.00    +0.000 F 
ATOM     24  C   UNL     1       8.165  16.413  20.542  0.00  0.00    +0.000 C 
ENDBRANCH  17  18
ENDBRANCH  16  17
ENDBRANCH  14  16
ENDBRANCH   4   7
BRANCH   3  25
ATOM     25  C   UNL     1       7.214   6.508  18.066  0.00  0.00    +0.000 A 
ATOM     26  C   UNL     1       5.917   6.961  17.787  0.00  0.00    +0.000 A 
ATOM     27  C   UNL     1       4.956   6.107  17.248  0.00  0.00    +0.000 A 
ATOM     28  C   UNL     1       5.277   4.788  16.957  0.00  0.00    +0.000 A 
ATOM     29  C   UNL     1       6.559   4.303  17.266  0.00  0.00    +0.000 A 
ATOM     30  C   UNL     1       7.524   5.167  17.787  0.00  0.00    +0.000 A 
BRANCH  28  31
ATOM     31  O   UNL     1       4.255   4.033  16.435  0.00  0.00    +0.000 OA
BRANCH  31  32
ATOM     32  C   UNL     1       3.276   3.530  17.259  0.00  0.00    +0.000 A 
ATOM     33  C   UNL     1       3.585   2.322  17.889  0.00  0.00    +0.000 A 
ATOM     34  C   UNL     1       2.652   1.711  18.727  0.00  0.00    +0.000 A 
ATOM     35  C   UNL     1       1.410   2.308  18.938  0.00  0.00    +0.000 A 
ATOM     36  C   UNL     1       1.117   3.536  18.348  0.00  0.00    +0.000 A 
ATOM     37  C   UNL     1       2.061   4.163  17.534  0.00  0.00    +0.000 A 
ENDBRANCH  31  32
ENDBRANCH  28  31
ENDBRANCH   3  25
TORSDOF 7
ENDMDL
MODEL 4
REMARK VINA RESULT:      -8.9      1.276      2.188
REMARK  Name = 
REMARK  7 active torsions:
REMARK  status: ('A' for Active; 'I' for Inactive)
REMARK    1  A    between atoms: N_3  and  C_4
REMARK    2  A    between atoms: C_7  and  O_8
REMARK    3  A    between atoms: O_8  and  C_9
REMARK    4  A    between atoms: N_17  and  C_18
REMARK    5  A    between atoms: N_25  and  C_26
REMARK    6  A    between atoms: C_26  and  C_27
REMARK    7  A    between atoms: C_27  and  N_28
REMARK                            x       y       z     vdW  Elec       q    Type
REMARK                         _______ _______ _______ _____ _____    ______ ____
ROOT
ATOM      1  O   UNL     1       7.729   9.230  17.690  0.00  0.00    +0.000 OA
ATOM      2  C   UNL     1       8.485   8.688  18.490  0.00  0.00    +0.000 C 
ATOM      3  N   UNL     1       8.420   7.346  18.835  0.00  0.00    +0.000 N 
ATOM      4  N   UNL     1       9.455   9.368  19.214  0.00  0.00    +0.000 N 
ATOM      5  H   UNL     1       8.934   7.058  19.655  0.00  0.00    +0.000 HD
ATOM      6  H   UNL     1       9.896   8.851  19.958  0.00  0.00    +0.000 HD
ENDROOT
BRANCH   4   7
ATOM      7  C   UNL     1       9.423  10.776  19.380  0.00  0.00    +0.000 A 
ATOM      8  C   UNL     1       9.249  11.685  18.329  0.00  0.00    +0.000 A 
ATOM      9  C   UNL     1       8.900  13.029  18.556  0.00  0.00    +0.000 A 
ATOM     10  C   UNL     1       8.663  13.392  19.890  0.00  0.00    +0.000 A 
ATOM     11  C   UNL     1       8.905  12.512  20.943  0.00  0.00    +0.000 A 
ATOM     12  C   UNL     1       8.495  13.192  22.104  0.00  0.00    +0.000 A 
ATOM     13  N   UNL     1       7.943  14.366  21.827  0.00  0.00    +0.000 NA
ATOM     14  N   UNL     1       8.212  14.533  20.513  0.00  0.00    +0.000 N 
ATOM     15  C   UNL     1       9.399  11.227  20.698  0.00  0.00    +0.000 A 
BRANCH  14  16
ATOM     16  C   UNL     1       8.234  15.911  20.063  0.00  0.00    +0.000 C 
BRANCH  16  17
ATOM     17  C   UNL     1       6.813  16.505  20.206  0.00  0.00    +0.000 C 
BRANCH  17  18
ATOM     18  N   UNL     1       6.087  16.654  18.939  0.00  0.00    +0.000 NA
ATOM     19  C   UNL     1       6.568  15.729  17.899  0.00  0.00    +0.000 C 
ATOM     20  C   UNL     1       5.554  14.604  17.839  0.00  0.00    +0.000 C 
ATOM     21  C   UNL     1       4.257  15.318  18.119  0.00  0.00    +0.000 C 
ATOM     22  F   UNL     1       3.352  14.487  18.676  0.00  0.00    +0.000 F 
ATOM     23  F   UNL     1       3.724  15.805  16.975  0.00  0.00    +0.000 F 
ATOM     24  C   UNL     1       4.631  16.451  19.062  0.00  0.00    +0.000 C 
ENDBRANCH  17  18
ENDBRANCH  16  17
ENDBRANCH  14  16
ENDBRANCH   4   7
BRANCH   3  25
ATOM     25  C   UNL     1       7.491   6.420  18.311  0.00  0.00    +0.000 A 
ATOM     26  C   UNL     1       7.233   6.282  16.940  0.00  0.00    +0.000 A 
ATOM     27  C   UNL     1       6.296   5.363  16.472  0.00  0.00    +0.000 A 
ATOM     28  C   UNL     1       5.610   4.548  17.363  0.00  0.00    +0.000 A 
ATOM     29  C   UNL     1       5.824   4.699  18.744  0.00  0.00    +0.000 A 
ATOM     30  C   UNL     1       6.779   5.606  19.207  0.00  0.00    +0.000 A 
BRANCH  28  31
ATOM     31  O   UNL     1       4.705   3.684  16.797  0.00  0.00    +0.000 OA
BRANCH  31  32
ATOM     32  C   UNL     1       3.513   3.420  17.429  0.00  0.00    +0.000 A 
ATOM     33  C   UNL     1       3.409   2.152  18.007  0.00  0.00    +0.000 A 
ATOM     34  C   UNL     1       2.232   1.770  18.650  0.00  0.00    +0.000 A 
ATOM     35  C   UNL     1       1.158   2.657  18.718  0.00  0.00    +0.000 A 
ATOM     36  C   UNL     1       1.275   3.938  18.184  0.00  0.00    +0.000 A 
ATOM     37  C   UNL     1       2.463   4.331  17.566  0.00  0.00    +0.000 A 
ENDBRANCH  31  32
ENDBRANCH  28  31
ENDBRANCH   3  25
TORSDOF 7
ENDMDL
MODEL 5
REMARK VINA RESULT:      -8.9      7.619     11.681
REMARK  Name = 
REMARK  7 active torsions:
REMARK  status: ('A' for Active; 'I' for Inactive)
REMARK    1  A    between atoms: N_3  and  C_4
REMARK    2  A    between atoms: C_7  and  O_8
REMARK    3  A    between atoms: O_8  and  C_9
REMARK    4  A    between atoms: N_17  and  C_18
REMARK    5  A    between atoms: N_25  and  C_26
REMARK    6  A    between atoms: C_26  and  C_27
REMARK    7  A    between atoms: C_27  and  N_28
REMARK                            x       y       z     vdW  Elec       q    Type
REMARK                         _______ _______ _______ _____ _____    ______ ____
ROOT
ATOM      1  O   UNL     1       1.100   9.584  19.792  0.00  0.00    +0.000 OA
ATOM      2  C   UNL     1       1.154   9.934  18.617  0.00  0.00    +0.000 C 
ATOM      3  N   UNL     1       0.351  10.918  18.061  0.00  0.00    +0.000 N 
ATOM      4  N   UNL     1       1.977   9.333  17.673  0.00  0.00    +0.000 N 
ATOM      5  H   UNL     1       0.321  10.970  17.052  0.00  0.00    +0.000 HD
ATOM      6  H   UNL     1       1.810   9.591  16.713  0.00  0.00    +0.000 HD
ENDROOT
BRANCH   4   7
ATOM      7  C   UNL     1       2.541   8.048  17.873  0.00  0.00    +0.000 A 
ATOM      8  C   UNL     1       1.810   6.928  18.291  0.00  0.00    +0.000 A 
ATOM      9  C   UNL     1       2.315   5.621  18.168  0.00  0.00    +0.000 A 
ATOM     10  C   UNL     1       3.561   5.493  17.536  0.00  0.00    +0.000 A 
ATOM     11  C   UNL     1       4.322   6.607  17.186  0.00  0.00    +0.000 A 
ATOM     12  C   UNL     1       5.455   6.095  16.528  0.00  0.00    +0.000 A 
ATOM     13  N   UNL     1       5.392   4.780  16.371  0.00  0.00    +0.000 NA
ATOM     14  N   UNL     1       4.333   4.428  17.133  0.00  0.00    +0.000 N 
ATOM     15  C   UNL     1       3.862   7.898  17.460  0.00  0.00    +0.000 A 
BRANCH  14  16
ATOM     16  C   UNL     1       4.346   3.056  17.603  0.00  0.00    +0.000 C 
BRANCH  16  17
ATOM     17  C   UNL     1       2.892   2.530  17.646  0.00  0.00    +0.000 C 
BRANCH  17  18
ATOM     18  N   UNL     1       2.461   2.043  18.962  0.00  0.00    +0.000 NA
ATOM     19  C   UNL     1       3.374   2.451  20.044  0.00  0.00    +0.000 C 
ATOM     20  C   UNL     1       2.700   3.616  20.743  0.00  0.00    +0.000 C 
ATOM     21  C   UNL     1       1.241   3.247  20.656  0.00  0.00    +0.000 C 
ATOM     22  F   UNL     1       0.459   4.346  20.675  0.00  0.00    +0.000 F 
ATOM     23  F   UNL     1       0.884   2.466  21.701  0.00  0.00    +0.000 F 
ATOM     24  C   UNL     1       1.108   2.488  19.346  0.00  0.00    +0.000 C 
ENDBRANCH  17  18
ENDBRANCH  16  17
ENDBRANCH  14  16
ENDBRANCH   4   7
BRANCH   3  25
ATOM     25  C   UNL     1      -0.627  11.656  18.763  0.00  0.00    +0.000 A 
ATOM     26  C   UNL     1      -0.317  12.713  19.630  0.00  0.00    +0.000 A 
ATOM     27  C   UNL     1      -1.317  13.403  20.311  0.00  0.00    +0.000 A 
ATOM     28  C   UNL     1      -2.651  13.064  20.127  0.00  0.00    +0.000 A 
ATOM     29  C   UNL     1      -2.981  11.981  19.294  0.00  0.00    +0.000 A 
ATOM     30  C   UNL     1      -1.977  11.307  18.597  0.00  0.00    +0.000 A 
BRANCH  28  31
ATOM     31  O   UNL     1      -3.555  13.803  20.852  0.00  0.00    +0.000 OA
BRANCH  31  32
ATOM     32  C   UNL     1      -4.028  13.330  22.052  0.00  0.00    +0.000 A 
ATOM     33  C   UNL     1      -5.408  13.447  22.240  0.00  0.00    +0.000 A 
ATOM     34  C   UNL     1      -5.991  13.023  23.434  0.00  0.00    +0.000 A 
ATOM     35  C   UNL     1      -5.195  12.479  24.441  0.00  0.00    +0.000 A 
ATOM     36  C   UNL     1      -3.826  12.318  24.239  0.00  0.00    +0.000 A 
ATOM     37  C   UNL     1      -3.247  12.715  23.033  0.00  0.00    +0.000 A 
ENDBRANCH  31  32
ENDBRANCH  28  31
ENDBRANCH   3  25
TORSDOF 7
ENDMDL
MODEL 6
REMARK VINA RESULT:      -8.8      0.621      1.027
REMARK  Name = 
REMARK  7 active torsions:
REMARK  status: ('A' for Active; 'I' for Inactive)
REMARK    1  A    between atoms: N_3  and  C_4
REMARK    2  A    between atoms: C_7  and  O_8
REMARK    3  A    between atoms: O_8  and  C_9
REMARK    4  A    between atoms: N_17  and  C_18
REMARK    5  A    between atoms: N_25  and  C_26
REMARK    6  A    between atoms: C_26  and  C_27
REMARK    7  A    between atoms: C_27  and  N_28
REMARK                            x       y       z     vdW  Elec       q    Type
REMARK                         _______ _______ _______ _____ _____    ______ ____
ROOT
ATOM      1  O   UNL     1       7.584   9.192  17.737  0.00  0.00    +0.000 OA
ATOM      2  C   UNL     1       8.402   8.660  18.480  0.00  0.00    +0.000 C 
ATOM      3  N   UNL     1       8.402   7.310  18.798  0.00  0.00    +0.000 N 
ATOM      4  N   UNL     1       9.389   9.359  19.163  0.00  0.00    +0.000 N 
ATOM      5  H   UNL     1       8.972   7.023  19.581  0.00  0.00    +0.000 HD
ATOM      6  H   UNL     1       9.888   8.843  19.870  0.00  0.00    +0.000 HD
ENDROOT
BRANCH   4   7
ATOM      7  C   UNL     1       9.319  10.761  19.363  0.00  0.00    +0.000 A 
ATOM      8  C   UNL     1       9.184  11.367  20.620  0.00  0.00    +0.000 A 
ATOM      9  C   UNL     1       9.442  12.735  20.818  0.00  0.00    +0.000 A 
ATOM     10  C   UNL     1       9.912  13.447  19.705  0.00  0.00    +0.000 A 
ATOM     11  C   UNL     1       9.978  12.866  18.439  0.00  0.00    +0.000 A 
ATOM     12  C   UNL     1      10.550  13.845  17.606  0.00  0.00    +0.000 A 
ATOM     13  N   UNL     1      10.917  14.925  18.282  0.00  0.00    +0.000 NA
ATOM     14  N   UNL     1      10.370  14.728  19.502  0.00  0.00    +0.000 N 
ATOM     15  C   UNL     1       9.569  11.545  18.240  0.00  0.00    +0.000 A 
BRANCH  14  16
ATOM     16  C   UNL     1      10.123  15.937  20.265  0.00  0.00    +0.000 C 
BRANCH  16  17
ATOM     17  C   UNL     1       8.946  16.703  19.617  0.00  0.00    +0.000 C 
BRANCH  17  18
ATOM     18  N   UNL     1       7.732  16.757  20.441  0.00  0.00    +0.000 NA
ATOM     19  C   UNL     1       6.842  17.870  20.067  0.00  0.00    +0.000 C 
ATOM     20  C   UNL     1       5.727  17.255  19.244  0.00  0.00    +0.000 C 
ATOM     21  C   UNL     1       5.541  15.911  19.900  0.00  0.00    +0.000 C 
ATOM     22  F   UNL     1       5.052  15.006  19.028  0.00  0.00    +0.000 F 
ATOM     23  F   UNL     1       4.674  16.001  20.934  0.00  0.00    +0.000 F 
ATOM     24  C   UNL     1       6.926  15.522  20.392  0.00  0.00    +0.000 C 
ENDBRANCH  17  18
ENDBRANCH  16  17
ENDBRANCH  14  16
ENDBRANCH   4   7
BRANCH   3  25
ATOM     25  C   UNL     1       7.476   6.364  18.306  0.00  0.00    +0.000 A 
ATOM     26  C   UNL     1       7.218   6.178  16.941  0.00  0.00    +0.000 A 
ATOM     27  C   UNL     1       6.284   5.240  16.505  0.00  0.00    +0.000 A 
ATOM     28  C   UNL     1       5.602   4.454  17.424  0.00  0.00    +0.000 A 
ATOM     29  C   UNL     1       5.816   4.652  18.799  0.00  0.00    +0.000 A 
ATOM     30  C   UNL     1       6.767   5.578  19.230  0.00  0.00    +0.000 A 
BRANCH  28  31
ATOM     31  O   UNL     1       4.700   3.567  16.889  0.00  0.00    +0.000 OA
BRANCH  31  32
ATOM     32  C   UNL     1       3.466   3.399  17.471  0.00  0.00    +0.000 A 
ATOM     33  C   UNL     1       3.157   2.092  17.856  0.00  0.00    +0.000 A 
ATOM     34  C   UNL     1       1.920   1.806  18.433  0.00  0.00    +0.000 A 
ATOM     35  C   UNL     1       0.991   2.827  18.627  0.00  0.00    +0.000 A 
ATOM     36  C   UNL     1       1.313   4.140  18.287  0.00  0.00    +0.000 A 
ATOM     37  C   UNL     1       2.562   4.431  17.737  0.00  0.00    +0.000 A 
ENDBRANCH  31  32
ENDBRANCH  28  31
ENDBRANCH   3  25
TORSDOF 7
ENDMDL
MODEL 7
REMARK VINA RESULT:      -8.7      1.288      2.210
REMARK  Name = 
REMARK  7 active torsions:
REMARK  status: ('A' for Active; 'I' for Inactive)
REMARK    1  A    between atoms: N_3  and  C_4
REMARK    2  A    between atoms: C_7  and  O_8
REMARK    3  A    between atoms: O_8  and  C_9
REMARK    4  A    between atoms: N_17  and  C_18
REMARK    5  A    between atoms: N_25  and  C_26
REMARK    6  A    between atoms: C_26  and  C_27
REMARK    7  A    between atoms: C_27  and  N_28
REMARK                            x       y       z     vdW  Elec       q    Type
REMARK                         _______ _______ _______ _____ _____    ______ ____
ROOT
ATOM      1  O   UNL     1       7.762   9.165  17.684  0.00  0.00    +0.000 OA
ATOM      2  C   UNL     1       8.485   8.641  18.525  0.00  0.00    +0.000 C 
ATOM      3  N   UNL     1       8.401   7.309  18.902  0.00  0.00    +0.000 N 
ATOM      4  N   UNL     1       9.433   9.336  19.264  0.00  0.00    +0.000 N 
ATOM      5  H   UNL     1       8.884   7.041  19.749  0.00  0.00    +0.000 HD
ATOM      6  H   UNL     1       9.844   8.837  20.038  0.00  0.00    +0.000 HD
ENDROOT
BRANCH   4   7
ATOM      7  C   UNL     1       9.403  10.747  19.392  0.00  0.00    +0.000 A 
ATOM      8  C   UNL     1       9.192  11.627  18.322  0.00  0.00    +0.000 A 
ATOM      9  C   UNL     1       8.848  12.976  18.522  0.00  0.00    +0.000 A 
ATOM     10  C   UNL     1       8.654  13.376  19.853  0.00  0.00    +0.000 A 
ATOM     11  C   UNL     1       8.933  12.526  20.922  0.00  0.00    +0.000 A 
ATOM     12  C   UNL     1       8.562  13.239  22.076  0.00  0.00    +0.000 A 
ATOM     13  N   UNL     1       7.998  14.403  21.785  0.00  0.00    +0.000 NA
ATOM     14  N   UNL     1       8.221  14.533  20.458  0.00  0.00    +0.000 N 
ATOM     15  C   UNL     1       9.423  11.236  20.696  0.00  0.00    +0.000 A 
BRANCH  14  16
ATOM     16  C   UNL     1       8.225  15.898  19.969  0.00  0.00    +0.000 C 
BRANCH  16  17
ATOM     17  C   UNL     1       6.787  16.462  20.052  0.00  0.00    +0.000 C 
BRANCH  17  18
ATOM     18  N   UNL     1       6.103  16.574  18.758  0.00  0.00    +0.000 NA
ATOM     19  C   UNL     1       6.367  15.424  17.876  0.00  0.00    +0.000 C 
ATOM     20  C   UNL     1       5.134  14.546  17.953  0.00  0.00    +0.000 C 
ATOM     21  C   UNL     1       4.023  15.556  18.092  0.00  0.00    +0.000 C 
ATOM     22  F   UNL     1       2.964  15.030  18.739  0.00  0.00    +0.000 F 
ATOM     23  F   UNL     1       3.602  15.970  16.875  0.00  0.00    +0.000 F 
ATOM     24  C   UNL     1       4.639  16.708  18.870  0.00  0.00    +0.000 C 
ENDBRANCH  17  18
ENDBRANCH  16  17
ENDBRANCH  14  16
ENDBRANCH   4   7
BRANCH   3  25
ATOM     25  C   UNL     1       7.486   6.374  18.370  0.00  0.00    +0.000 A 
ATOM     26  C   UNL     1       6.783   5.452  19.157  0.00  0.00    +0.000 A 
ATOM     27  C   UNL     1       5.899   4.541  18.583  0.00  0.00    +0.000 A 
ATOM     28  C   UNL     1       5.685   4.543  17.211  0.00  0.00    +0.000 A 
ATOM     29  C   UNL     1       6.410   5.433  16.399  0.00  0.00    +0.000 A 
ATOM     30  C   UNL     1       7.278   6.358  16.981  0.00  0.00    +0.000 A 
BRANCH  28  31
ATOM     31  O   UNL     1       4.800   3.599  16.749  0.00  0.00    +0.000 OA
BRANCH  31  32
ATOM     32  C   UNL     1       3.641   3.342  17.441  0.00  0.00    +0.000 A 
ATOM     33  C   UNL     1       2.718   4.391  17.476  0.00  0.00    +0.000 A 
ATOM     34  C   UNL     1       1.519   4.245  18.174  0.00  0.00    +0.000 A 
ATOM     35  C   UNL     1       1.240   3.051  18.836  0.00  0.00    +0.000 A 
ATOM     36  C   UNL     1       2.137   1.986  18.764  0.00  0.00    +0.000 A 
ATOM     37  C   UNL     1       3.323   2.120  18.041  0.00  0.00    +0.000 A 
ENDBRANCH  31  32
ENDBRANCH  28  31
ENDBRANCH   3  25
TORSDOF 7
ENDMDL
MODEL 8
REMARK VINA RESULT:      -8.7      7.902     11.883
REMARK  Name = 
REMARK  7 active torsions:
REMARK  status: ('A' for Active; 'I' for Inactive)
REMARK    1  A    between atoms: N_3  and  C_4
REMARK    2  A    between atoms: C_7  and  O_8
REMARK    3  A    between atoms: O_8  and  C_9
REMARK    4  A    between atoms: N_17  and  C_18
REMARK    5  A    between atoms: N_25  and  C_26
REMARK    6  A    between atoms: C_26  and  C_27
REMARK    7  A    between atoms: C_27  and  N_28
REMARK                            x       y       z     vdW  Elec       q    Type
REMARK                         _______ _______ _______ _____ _____    ______ ____
ROOT
ATOM      1  O   UNL     1      -0.767   8.272  21.259  0.00  0.00    +0.000 OA
ATOM      2  C   UNL     1       0.294   8.868  21.409  0.00  0.00    +0.000 C 
ATOM      3  N   UNL     1       0.392  10.210  21.744  0.00  0.00    +0.000 N 
ATOM      4  N   UNL     1       1.538   8.291  21.187  0.00  0.00    +0.000 N 
ATOM      5  H   UNL     1       1.295  10.648  21.624  0.00  0.00    +0.000 HD
ATOM      6  H   UNL     1       2.323   8.923  21.177  0.00  0.00    +0.000 HD
ENDROOT
BRANCH   4   7
ATOM      7  C   UNL     1       1.695   7.108  20.422  0.00  0.00    +0.000 A 
ATOM      8  C   UNL     1       2.161   7.086  19.100  0.00  0.00    +0.000 A 
ATOM      9  C   UNL     1       2.609   5.901  18.488  0.00  0.00    +0.000 A 
ATOM     10  C   UNL     1       2.634   4.755  19.297  0.00  0.00    +0.000 A 
ATOM     11  C   UNL     1       2.105   4.757  20.587  0.00  0.00    +0.000 A 
ATOM     12  C   UNL     1       2.366   3.474  21.102  0.00  0.00    +0.000 A 
ATOM     13  N   UNL     1       3.086   2.737  20.268  0.00  0.00    +0.000 NA
ATOM     14  N   UNL     1       3.086   3.466  19.130  0.00  0.00    +0.000 N 
ATOM     15  C   UNL     1       1.524   5.913  21.116  0.00  0.00    +0.000 A 
BRANCH  14  16
ATOM     16  C   UNL     1       3.302   2.705  17.915  0.00  0.00    +0.000 C 
BRANCH  16  17
ATOM     17  C   UNL     1       3.945   3.629  16.855  0.00  0.00    +0.000 C 
BRANCH  17  18
ATOM     18  N   UNL     1       5.396   3.805  17.005  0.00  0.00    +0.000 NA
ATOM     19  C   UNL     1       6.088   3.927  15.710  0.00  0.00    +0.000 C 
ATOM     20  C   UNL     1       6.372   5.405  15.525  0.00  0.00    +0.000 C 
ATOM     21  C   UNL     1       6.650   5.862  16.934  0.00  0.00    +0.000 C 
ATOM     22  F   UNL     1       6.355   7.170  17.089  0.00  0.00    +0.000 F 
ATOM     23  F   UNL     1       7.955   5.692  17.242  0.00  0.00    +0.000 F 
ATOM     24  C   UNL     1       5.770   4.983  17.809  0.00  0.00    +0.000 C 
ENDBRANCH  17  18
ENDBRANCH  16  17
ENDBRANCH  14  16
ENDBRANCH   4   7
BRANCH   3  25
ATOM     25  C   UNL     1      -0.706  11.070  21.966  0.00  0.00    +0.000 A 
ATOM     26  C   UNL     1      -1.427  11.101  23.168  0.00  0.00    +0.000 A 
ATOM     27  C   UNL     1      -2.513  11.958  23.335  0.00  0.00    +0.000 A 
ATOM     28  C   UNL     1      -2.890  12.817  22.311  0.00  0.00    +0.000 A 
ATOM     29  C   UNL     1      -2.206  12.773  21.084  0.00  0.00    +0.000 A 
ATOM     30  C   UNL     1      -1.106  11.927  20.929  0.00  0.00    +0.000 A 
BRANCH  28  31
ATOM     31  O   UNL     1      -3.977  13.613  22.578  0.00  0.00    +0.000 OA
BRANCH  31  32
ATOM     32  C   UNL     1      -5.243  13.080  22.570  0.00  0.00    +0.000 A 
ATOM     33  C   UNL     1      -5.925  13.137  23.788  0.00  0.00    +0.000 A 
ATOM     34  C   UNL     1      -7.208  12.601  23.898  0.00  0.00    +0.000 A 
ATOM     35  C   UNL     1      -7.811  12.008  22.790  0.00  0.00    +0.000 A 
ATOM     36  C   UNL     1      -7.152  11.990  21.562  0.00  0.00    +0.000 A 
ATOM     37  C   UNL     1      -5.881  12.553  21.444  0.00  0.00    +0.000 A 
ENDBRANCH  31  32
ENDBRANCH  28  31
ENDBRANCH   3  25
TORSDOF 7
ENDMDL
MODEL 9
REMARK VINA RESULT:      -8.6      3.856     11.617
REMARK  Name = 
REMARK  7 active torsions:
REMARK  status: ('A' for Active; 'I' for Inactive)
REMARK    1  A    between atoms: N_3  and  C_4
REMARK    2  A    between atoms: C_7  and  O_8
REMARK    3  A    between atoms: O_8  and  C_9
REMARK    4  A    between atoms: N_17  and  C_18
REMARK    5  A    between atoms: N_25  and  C_26
REMARK    6  A    between atoms: C_26  and  C_27
REMARK    7  A    between atoms: C_27  and  N_28
REMARK                            x       y       z     vdW  Elec       q    Type
REMARK                         _______ _______ _______ _____ _____    ______ ____
ROOT
ATOM      1  O   UNL     1       7.781   9.772  17.847  0.00  0.00    +0.000 OA
ATOM      2  C   UNL     1       8.710   9.404  18.558  0.00  0.00    +0.000 C 
ATOM      3  N   UNL     1       9.825  10.178  18.844  0.00  0.00    +0.000 N 
ATOM      4  N   UNL     1       8.802   8.131  19.106  0.00  0.00    +0.000 N 
ATOM      5  H   UNL     1      10.621   9.704  19.247  0.00  0.00    +0.000 HD
ATOM      6  H   UNL     1       9.686   7.893  19.527  0.00  0.00    +0.000 HD
ENDROOT
BRANCH   4   7
ATOM      7  C   UNL     1       8.047   7.040  18.608  0.00  0.00    +0.000 A 
ATOM      8  C   UNL     1       7.668   5.932  19.380  0.00  0.00    +0.000 A 
ATOM      9  C   UNL     1       6.664   5.041  18.960  0.00  0.00    +0.000 A 
ATOM     10  C   UNL     1       6.010   5.361  17.762  0.00  0.00    +0.000 A 
ATOM     11  C   UNL     1       6.432   6.418  16.957  0.00  0.00    +0.000 A 
ATOM     12  C   UNL     1       5.511   6.472  15.894  0.00  0.00    +0.000 A 
ATOM     13  N   UNL     1       4.523   5.600  16.044  0.00  0.00    +0.000 NA
ATOM     14  N   UNL     1       4.938   4.835  17.078  0.00  0.00    +0.000 N 
ATOM     15  C   UNL     1       7.533   7.196  17.323  0.00  0.00    +0.000 A 
BRANCH  14  16
ATOM     16  C   UNL     1       4.371   3.501  17.120  0.00  0.00    +0.000 C 
BRANCH  16  17
ATOM     17  C   UNL     1       2.831   3.617  17.216  0.00  0.00    +0.000 C 
BRANCH  17  18
ATOM     18  N   UNL     1       2.225   2.785  18.263  0.00  0.00    +0.000 NA
ATOM     19  C   UNL     1       3.226   2.186  19.162  0.00  0.00    +0.000 C 
ATOM     20  C   UNL     1       3.205   3.021  20.427  0.00  0.00    +0.000 C 
ATOM     21  C   UNL     1       1.749   3.396  20.546  0.00  0.00    +0.000 C 
ATOM     22  F   UNL     1       1.598   4.557  21.215  0.00  0.00    +0.000 F 
ATOM     23  F   UNL     1       1.063   2.440  21.212  0.00  0.00    +0.000 F 
ATOM     24  C   UNL     1       1.259   3.509  19.111  0.00  0.00    +0.000 C 
ENDBRANCH  17  18
ENDBRANCH  16  17
ENDBRANCH  14  16
ENDBRANCH   4   7
BRANCH   3  25
ATOM     25  C   UNL     1      10.040  11.491  18.370  0.00  0.00    +0.000 A 
ATOM     26  C   UNL     1       9.090  12.515  18.485  0.00  0.00    +0.000 A 
ATOM     27  C   UNL     1       9.345  13.793  17.990  0.00  0.00    +0.000 A 
ATOM     28  C   UNL     1      10.562  14.079  17.385  0.00  0.00    +0.000 A 
ATOM     29  C   UNL     1      11.512  13.055  17.223  0.00  0.00    +0.000 A 
ATOM     30  C   UNL     1      11.261  11.783  17.740  0.00  0.00    +0.000 A 
BRANCH  28  31
ATOM     31  O   UNL     1      10.705  15.365  16.926  0.00  0.00    +0.000 OA
BRANCH  31  32
ATOM     32  C   UNL     1      10.876  16.401  17.814  0.00  0.00    +0.000 A 
ATOM     33  C   UNL     1       9.984  17.467  17.670  0.00  0.00    +0.000 A 
ATOM     34  C   UNL     1      10.085  18.581  18.502  0.00  0.00    +0.000 A 
ATOM     35  C   UNL     1      11.077  18.631  19.481  0.00  0.00    +0.000 A 
ATOM     36  C   UNL     1      11.938  17.550  19.658  0.00  0.00    +0.000 A 
ATOM     37  C   UNL     1      11.819  16.422  18.845  0.00  0.00    +0.000 A 
ENDBRANCH  31  32
ENDBRANCH  28  31
ENDBRANCH   3  25
TORSDOF 7
ENDMDL
