MODEL 1
REMARK VINA RESULT:      -7.6      0.000      0.000
REMARK  Name = 
REMARK  12 active torsions:
REMARK  status: ('A' for Active; 'I' for Inactive)
REMARK    1  A    between atoms: C_1  and  C_2
REMARK    2  A    between atoms: C_2  and  C_11
REMARK    3  A    between atoms: C_3  and  C_4
REMARK    4  A    between atoms: C_4  and  C_5
REMARK    5  A    between atoms: C_5  and  C_6
REMARK    6  A    between atoms: C_11  and  C_12
REMARK    7  A    between atoms: C_12  and  C_13
REMARK    8  A    between atoms: C_14  and  C_15
REMARK    9  A    between atoms: C_14  and  C_16
REMARK   10  A    between atoms: C_16  and  C_17
REMARK   11  A    between atoms: C_17  and  C_18
REMARK   12  A    between atoms: C_18  and  C_19
REMARK                            x       y       z     vdW  Elec       q    Type
REMARK                         _______ _______ _______ _____ _____    ______ ____
ROOT
ATOM      1  C   UNL     1       4.922   6.847  16.542  0.00  0.00    +0.000 C 
ENDROOT
BRANCH   1   2
ATOM      2  C   UNL     1       6.054   7.503  17.285  0.00  0.00    +0.000 C 
ATOM      3  C   UNL     1       7.180   6.873  17.678  0.00  0.00    +0.000 C 
ATOM      4  C   UNL     1       7.446   5.406  17.433  0.00  0.00    +0.000 C 
BRANCH   3   5
ATOM      5  C   UNL     1       8.257   7.608  18.455  0.00  0.00    +0.000 C 
BRANCH   5   6
ATOM      6  C   UNL     1       8.284   9.100  18.115  0.00  0.00    +0.000 C 
BRANCH   6   7
ATOM      7  C   UNL     1       9.245   9.879  19.011  0.00  0.00    +0.000 C 
BRANCH   7   8
ATOM      8  C   UNL     1       9.732  11.119  18.339  0.00  0.00    +0.000 C 
ATOM      9  C   UNL     1      11.002  11.453  18.092  0.00  0.00    +0.000 C 
ATOM     10  C   UNL     1      10.972  12.749  17.416  0.00  0.00    +0.000 C 
ATOM     11  O   UNL     1      11.959  13.355  17.035  0.00  0.00    +0.000 OA
ATOM     12  O   UNL     1       9.683  13.160  17.284  0.00  0.00    +0.000 OA
ATOM     13  C   UNL     1       8.817  12.168  17.831  0.00  0.00    +0.000 C 
ENDBRANCH   7   8
ENDBRANCH   6   7
ENDBRANCH   5   6
ENDBRANCH   3   5
ENDBRANCH   1   2
BRANCH   1  14
ATOM     14  C   UNL     1       3.707   6.515  17.410  0.00  0.00    +0.000 C 
BRANCH  14  16
ATOM     15  C   UNL     1       4.332   5.053  19.412  0.00  0.00    +0.000 C 
ATOM     16  C   UNL     1       3.851   5.119  17.985  0.00  0.00    +0.000 C 
ATOM     17  C   UNL     1       3.537   4.034  17.251  0.00  0.00    +0.000 C 
BRANCH  17  18
ATOM     18  C   UNL     1       3.626   2.616  17.746  0.00  0.00    +0.000 C 
BRANCH  18  19
ATOM     19  C   UNL     1       2.310   2.103  18.335  0.00  0.00    +0.000 C 
BRANCH  19  20
ATOM     20  C   UNL     1       2.211   2.405  19.793  0.00  0.00    +0.000 A 
ATOM     21  C   UNL     1       1.122   3.010  20.481  0.00  0.00    +0.000 A 
ATOM     22  C   UNL     1       1.496   3.101  21.800  0.00  0.00    +0.000 A 
ATOM     23  O   UNL     1       2.743   2.595  21.974  0.00  0.00    +0.000 OA
ATOM     24  C   UNL     1       3.172   2.176  20.757  0.00  0.00    +0.000 A 
ENDBRANCH  19  20
ENDBRANCH  18  19
ENDBRANCH  17  18
ENDBRANCH  14  16
ENDBRANCH   1  14
TORSDOF 10
ENDMDL
MODEL 2
REMARK VINA RESULT:      -7.0      5.586      8.047
REMARK  Name = 
REMARK  12 active torsions:
REMARK  status: ('A' for Active; 'I' for Inactive)
REMARK    1  A    between atoms: C_1  and  C_2
REMARK    2  A    between atoms: C_2  and  C_11
REMARK    3  A    between atoms: C_3  and  C_4
REMARK    4  A    between atoms: C_4  and  C_5
REMARK    5  A    between atoms: C_5  and  C_6
REMARK    6  A    between atoms: C_11  and  C_12
REMARK    7  A    between atoms: C_12  and  C_13
REMARK    8  A    between atoms: C_14  and  C_15
REMARK    9  A    between atoms: C_14  and  C_16
REMARK   10  A    between atoms: C_16  and  C_17
REMARK   11  A    between atoms: C_17  and  C_18
REMARK   12  A    between atoms: C_18  and  C_19
REMARK                            x       y       z     vdW  Elec       q    Type
REMARK                         _______ _______ _______ _____ _____    ______ ____
ROOT
ATOM      1  C   UNL     1       2.360   7.321  18.084  0.00  0.00    +0.000 C 
ENDROOT
BRANCH   1   2
ATOM      2  C   UNL     1       1.860   8.714  18.358  0.00  0.00    +0.000 C 
ATOM      3  C   UNL     1       1.377   9.135  19.545  0.00  0.00    +0.000 C 
ATOM      4  C   UNL     1       1.262   8.248  20.762  0.00  0.00    +0.000 C 
BRANCH   3   5
ATOM      5  C   UNL     1       0.861  10.552  19.721  0.00  0.00    +0.000 C 
BRANCH   5   6
ATOM      6  C   UNL     1      -0.126  10.937  18.616  0.00  0.00    +0.000 C 
BRANCH   6   7
ATOM      7  C   UNL     1      -1.447  10.179  18.732  0.00  0.00    +0.000 C 
BRANCH   7   8
ATOM      8  C   UNL     1      -2.354  10.487  17.589  0.00  0.00    +0.000 C 
ATOM      9  C   UNL     1      -2.297   9.973  16.357  0.00  0.00    +0.000 C 
ATOM     10  C   UNL     1      -3.393  10.575  15.599  0.00  0.00    +0.000 C 
ATOM     11  O   UNL     1      -3.645  10.329  14.432  0.00  0.00    +0.000 OA
ATOM     12  O   UNL     1      -4.073  11.440  16.397  0.00  0.00    +0.000 OA
ATOM     13  C   UNL     1      -3.489  11.433  17.698  0.00  0.00    +0.000 C 
ENDBRANCH   7   8
ENDBRANCH   6   7
ENDBRANCH   5   6
ENDBRANCH   3   5
ENDBRANCH   1   2
BRANCH   1  14
ATOM     14  C   UNL     1       3.790   7.260  17.545  0.00  0.00    +0.000 C 
BRANCH  14  16
ATOM     15  C   UNL     1       5.768   5.683  17.913  0.00  0.00    +0.000 C 
ATOM     16  C   UNL     1       4.301   5.833  17.602  0.00  0.00    +0.000 C 
ATOM     17  C   UNL     1       3.467   4.792  17.409  0.00  0.00    +0.000 C 
BRANCH  17  18
ATOM     18  C   UNL     1       3.880   3.347  17.470  0.00  0.00    +0.000 C 
BRANCH  18  19
ATOM     19  C   UNL     1       2.743   2.417  17.899  0.00  0.00    +0.000 C 
BRANCH  19  20
ATOM     20  C   UNL     1       2.303   2.700  19.295  0.00  0.00    +0.000 A 
ATOM     21  C   UNL     1       3.110   2.744  20.466  0.00  0.00    +0.000 A 
ATOM     22  C   UNL     1       2.263   3.021  21.514  0.00  0.00    +0.000 A 
ATOM     23  O   UNL     1       0.988   3.148  21.070  0.00  0.00    +0.000 OA
ATOM     24  C   UNL     1       1.016   2.953  19.727  0.00  0.00    +0.000 A 
ENDBRANCH  19  20
ENDBRANCH  18  19
ENDBRANCH  17  18
ENDBRANCH  14  16
ENDBRANCH   1  14
TORSDOF 10
ENDMDL
MODEL 3
REMARK VINA RESULT:      -7.0      1.497      9.712
REMARK  Name = 
REMARK  12 active torsions:
REMARK  status: ('A' for Active; 'I' for Inactive)
REMARK    1  A    between atoms: C_1  and  C_2
REMARK    2  A    between atoms: C_2  and  C_11
REMARK    3  A    between atoms: C_3  and  C_4
REMARK    4  A    between atoms: C_4  and  C_5
REMARK    5  A    between atoms: C_5  and  C_6
REMARK    6  A    between atoms: C_11  and  C_12
REMARK    7  A    between atoms: C_12  and  C_13
REMARK    8  A    between atoms: C_14  and  C_15
REMARK    9  A    between atoms: C_14  and  C_16
REMARK   10  A    between atoms: C_16  and  C_17
REMARK   11  A    between atoms: C_17  and  C_18
REMARK   12  A    between atoms: C_18  and  C_19
REMARK                            x       y       z     vdW  Elec       q    Type
REMARK                         _______ _______ _______ _____ _____    ______ ____
ROOT
ATOM      1  C   UNL     1       6.121   4.724  17.172  0.00  0.00    +0.000 C 
ENDROOT
BRANCH   1   2
ATOM      2  C   UNL     1       4.639   4.985  17.188  0.00  0.00    +0.000 C 
ATOM      3  C   UNL     1       3.931   5.314  18.287  0.00  0.00    +0.000 C 
ATOM      4  C   UNL     1       4.539   5.451  19.663  0.00  0.00    +0.000 C 
BRANCH   3   5
ATOM      5  C   UNL     1       2.429   5.526  18.216  0.00  0.00    +0.000 C 
BRANCH   5   6
ATOM      6  C   UNL     1       1.752   4.486  17.319  0.00  0.00    +0.000 C 
BRANCH   6   7
ATOM      7  C   UNL     1       0.955   3.461  18.124  0.00  0.00    +0.000 C 
BRANCH   7   8
ATOM      8  C   UNL     1       1.477   3.336  19.515  0.00  0.00    +0.000 C 
ATOM      9  C   UNL     1       2.324   2.411  19.976  0.00  0.00    +0.000 C 
ATOM     10  C   UNL     1       2.538   2.706  21.392  0.00  0.00    +0.000 C 
ATOM     11  O   UNL     1       3.265   2.063  22.132  0.00  0.00    +0.000 OA
ATOM     12  O   UNL     1       1.807   3.797  21.743  0.00  0.00    +0.000 OA
ATOM     13  C   UNL     1       1.109   4.280  20.597  0.00  0.00    +0.000 C 
ENDBRANCH   7   8
ENDBRANCH   6   7
ENDBRANCH   5   6
ENDBRANCH   3   5
ENDBRANCH   1   2
BRANCH   1  14
ATOM     14  C   UNL     1       6.953   5.858  16.570  0.00  0.00    +0.000 C 
BRANCH  14  16
ATOM     15  C   UNL     1       7.906   5.949  18.941  0.00  0.00    +0.000 C 
ATOM     16  C   UNL     1       7.559   6.697  17.679  0.00  0.00    +0.000 C 
ATOM     17  C   UNL     1       7.783   8.014  17.504  0.00  0.00    +0.000 C 
BRANCH  17  18
ATOM     18  C   UNL     1       8.400   8.917  18.538  0.00  0.00    +0.000 C 
BRANCH  18  19
ATOM     19  C   UNL     1       8.717  10.315  18.000  0.00  0.00    +0.000 C 
BRANCH  19  20
ATOM     20  C   UNL     1       9.569  11.085  18.951  0.00  0.00    +0.000 A 
ATOM     21  C   UNL     1       9.591  10.985  20.370  0.00  0.00    +0.000 A 
ATOM     22  C   UNL     1      10.517  11.902  20.811  0.00  0.00    +0.000 A 
ATOM     23  O   UNL     1      11.065  12.563  19.761  0.00  0.00    +0.000 OA
ATOM     24  C   UNL     1      10.488  12.066  18.637  0.00  0.00    +0.000 A 
ENDBRANCH  19  20
ENDBRANCH  18  19
ENDBRANCH  17  18
ENDBRANCH  14  16
ENDBRANCH   1  14
TORSDOF 10
ENDMDL
MODEL 4
REMARK VINA RESULT:      -6.9      1.136      1.315
REMARK  Name = 
REMARK  12 active torsions:
REMARK  status: ('A' for Active; 'I' for Inactive)
REMARK    1  A    between atoms: C_1  and  C_2
REMARK    2  A    between atoms: C_2  and  C_11
REMARK    3  A    between atoms: C_3  and  C_4
REMARK    4  A    between atoms: C_4  and  C_5
REMARK    5  A    between atoms: C_5  and  C_6
REMARK    6  A    between atoms: C_11  and  C_12
REMARK    7  A    between atoms: C_12  and  C_13
REMARK    8  A    between atoms: C_14  and  C_15
REMARK    9  A    between atoms: C_14  and  C_16
REMARK   10  A    between atoms: C_16  and  C_17
REMARK   11  A    between atoms: C_17  and  C_18
REMARK   12  A    between atoms: C_18  and  C_19
REMARK                            x       y       z     vdW  Elec       q    Type
REMARK                         _______ _______ _______ _____ _____    ______ ____
ROOT
ATOM      1  C   UNL     1       6.092   6.324  16.554  0.00  0.00    +0.000 C 
ENDROOT
BRANCH   1   2
ATOM      2  C   UNL     1       7.108   7.253  17.162  0.00  0.00    +0.000 C 
ATOM      3  C   UNL     1       7.806   6.996  18.287  0.00  0.00    +0.000 C 
ATOM      4  C   UNL     1       7.644   5.733  19.100  0.00  0.00    +0.000 C 
BRANCH   3   5
ATOM      5  C   UNL     1       8.787   8.009  18.848  0.00  0.00    +0.000 C 
BRANCH   5   6
ATOM      6  C   UNL     1       8.469   9.430  18.374  0.00  0.00    +0.000 C 
BRANCH   6   7
ATOM      7  C   UNL     1       9.094  10.492  19.276  0.00  0.00    +0.000 C 
BRANCH   7   8
ATOM      8  C   UNL     1       9.639  11.630  18.480  0.00  0.00    +0.000 C 
ATOM      9  C   UNL     1      10.735  11.624  17.717  0.00  0.00    +0.000 C 
ATOM     10  C   UNL     1      10.853  12.963  17.140  0.00  0.00    +0.000 C 
ATOM     11  O   UNL     1      11.742  13.315  16.382  0.00  0.00    +0.000 OA
ATOM     12  O   UNL     1       9.827  13.737  17.581  0.00  0.00    +0.000 OA
ATOM     13  C   UNL     1       8.986  12.959  18.430  0.00  0.00    +0.000 C 
ENDBRANCH   7   8
ENDBRANCH   6   7
ENDBRANCH   5   6
ENDBRANCH   3   5
ENDBRANCH   1   2
BRANCH   1  14
ATOM     14  C   UNL     1       4.678   6.485  17.113  0.00  0.00    +0.000 C 
BRANCH  14  16
ATOM     15  C   UNL     1       4.931   3.941  17.069  0.00  0.00    +0.000 C 
ATOM     16  C   UNL     1       4.014   5.126  17.232  0.00  0.00    +0.000 C 
ATOM     17  C   UNL     1       2.696   5.021  17.494  0.00  0.00    +0.000 C 
BRANCH  17  18
ATOM     18  C   UNL     1       1.960   3.719  17.652  0.00  0.00    +0.000 C 
BRANCH  18  19
ATOM     19  C   UNL     1       0.866   3.775  18.720  0.00  0.00    +0.000 C 
BRANCH  19  20
ATOM     20  C   UNL     1       1.413   3.488  20.078  0.00  0.00    +0.000 A 
ATOM     21  C   UNL     1       1.501   2.225  20.727  0.00  0.00    +0.000 A 
ATOM     22  C   UNL     1       2.054   2.460  21.964  0.00  0.00    +0.000 A 
ATOM     23  O   UNL     1       2.311   3.783  22.123  0.00  0.00    +0.000 OA
ATOM     24  C   UNL     1       1.921   4.401  20.980  0.00  0.00    +0.000 A 
ENDBRANCH  19  20
ENDBRANCH  18  19
ENDBRANCH  17  18
ENDBRANCH  14  16
ENDBRANCH   1  14
TORSDOF 10
ENDMDL
MODEL 5
REMARK VINA RESULT:      -6.9      3.008     10.177
REMARK  Name = 
REMARK  12 active torsions:
REMARK  status: ('A' for Active; 'I' for Inactive)
REMARK    1  A    between atoms: C_1  and  C_2
REMARK    2  A    between atoms: C_2  and  C_11
REMARK    3  A    between atoms: C_3  and  C_4
REMARK    4  A    between atoms: C_4  and  C_5
REMARK    5  A    between atoms: C_5  and  C_6
REMARK    6  A    between atoms: C_11  and  C_12
REMARK    7  A    between atoms: C_12  and  C_13
REMARK    8  A    between atoms: C_14  and  C_15
REMARK    9  A    between atoms: C_14  and  C_16
REMARK   10  A    between atoms: C_16  and  C_17
REMARK   11  A    between atoms: C_17  and  C_18
REMARK   12  A    between atoms: C_18  and  C_19
REMARK                            x       y       z     vdW  Elec       q    Type
REMARK                         _______ _______ _______ _____ _____    ______ ____
ROOT
ATOM      1  C   UNL     1       8.482   8.765  18.448  0.00  0.00    +0.000 C 
ENDROOT
BRANCH   1   2
ATOM      2  C   UNL     1       7.785   7.819  17.509  0.00  0.00    +0.000 C 
ATOM      3  C   UNL     1       7.451   6.547  17.811  0.00  0.00    +0.000 C 
ATOM      4  C   UNL     1       7.753   5.897  19.141  0.00  0.00    +0.000 C 
BRANCH   3   5
ATOM      5  C   UNL     1       6.779   5.651  16.787  0.00  0.00    +0.000 C 
BRANCH   5   6
ATOM      6  C   UNL     1       5.491   6.276  16.245  0.00  0.00    +0.000 C 
BRANCH   6   7
ATOM      7  C   UNL     1       4.385   6.322  17.296  0.00  0.00    +0.000 C 
BRANCH   7   8
ATOM      8  C   UNL     1       4.110   4.969  17.859  0.00  0.00    +0.000 C 
ATOM      9  C   UNL     1       3.733   3.879  17.185  0.00  0.00    +0.000 C 
ATOM     10  C   UNL     1       3.595   2.804  18.166  0.00  0.00    +0.000 C 
ATOM     11  O   UNL     1       3.267   1.660  17.898  0.00  0.00    +0.000 OA
ATOM     12  O   UNL     1       3.886   3.281  19.404  0.00  0.00    +0.000 OA
ATOM     13  C   UNL     1       4.247   4.657  19.301  0.00  0.00    +0.000 C 
ENDBRANCH   7   8
ENDBRANCH   6   7
ENDBRANCH   5   6
ENDBRANCH   3   5
ENDBRANCH   1   2
BRANCH   1  14
ATOM     14  C   UNL     1       8.443  10.230  18.010  0.00  0.00    +0.000 C 
BRANCH  14  16
ATOM     15  C   UNL     1      10.667  11.461  17.732  0.00  0.00    +0.000 C 
ATOM     16  C   UNL     1       9.579  10.994  18.664  0.00  0.00    +0.000 C 
ATOM     17  C   UNL     1       9.571  11.242  19.989  0.00  0.00    +0.000 C 
BRANCH  17  18
ATOM     18  C   UNL     1      10.641  12.010  20.717  0.00  0.00    +0.000 C 
BRANCH  18  19
ATOM     19  C   UNL     1      10.480  13.527  20.591  0.00  0.00    +0.000 C 
BRANCH  19  20
ATOM     20  C   UNL     1       9.861  14.113  21.815  0.00  0.00    +0.000 A 
ATOM     21  C   UNL     1       8.874  13.524  22.654  0.00  0.00    +0.000 A 
ATOM     22  C   UNL     1       8.601  14.443  23.639  0.00  0.00    +0.000 A 
ATOM     23  O   UNL     1       9.350  15.561  23.464  0.00  0.00    +0.000 OA
ATOM     24  C   UNL     1      10.110  15.357  22.359  0.00  0.00    +0.000 A 
ENDBRANCH  19  20
ENDBRANCH  18  19
ENDBRANCH  17  18
ENDBRANCH  14  16
ENDBRANCH   1  14
TORSDOF 10
ENDMDL
MODEL 6
REMARK VINA RESULT:      -6.8      3.457      6.140
REMARK  Name = 
REMARK  12 active torsions:
REMARK  status: ('A' for Active; 'I' for Inactive)
REMARK    1  A    between atoms: C_1  and  C_2
REMARK    2  A    between atoms: C_2  and  C_11
REMARK    3  A    between atoms: C_3  and  C_4
REMARK    4  A    between atoms: C_4  and  C_5
REMARK    5  A    between atoms: C_5  and  C_6
REMARK    6  A    between atoms: C_11  and  C_12
REMARK    7  A    between atoms: C_12  and  C_13
REMARK    8  A    between atoms: C_14  and  C_15
REMARK    9  A    between atoms: C_14  and  C_16
REMARK   10  A    between atoms: C_16  and  C_17
REMARK   11  A    between atoms: C_17  and  C_18
REMARK   12  A    between atoms: C_18  and  C_19
REMARK                            x       y       z     vdW  Elec       q    Type
REMARK                         _______ _______ _______ _____ _____    ______ ____
ROOT
ATOM      1  C   UNL     1       4.048   2.268  20.168  0.00  0.00    +0.000 C 
ENDROOT
BRANCH   1   2
ATOM      2  C   UNL     1       4.323   3.267  19.076  0.00  0.00    +0.000 C 
ATOM      3  C   UNL     1       3.792   3.213  17.837  0.00  0.00    +0.000 C 
ATOM      4  C   UNL     1       2.854   2.122  17.377  0.00  0.00    +0.000 C 
BRANCH   3   5
ATOM      5  C   UNL     1       4.153   4.246  16.786  0.00  0.00    +0.000 C 
BRANCH   5   6
ATOM      6  C   UNL     1       5.413   3.852  16.011  0.00  0.00    +0.000 C 
BRANCH   6   7
ATOM      7  C   UNL     1       6.251   5.065  15.616  0.00  0.00    +0.000 C 
BRANCH   7   8
ATOM      8  C   UNL     1       6.977   5.632  16.789  0.00  0.00    +0.000 C 
ATOM      9  C   UNL     1       7.294   6.913  16.997  0.00  0.00    +0.000 C 
ATOM     10  C   UNL     1       7.993   6.971  18.280  0.00  0.00    +0.000 C 
ATOM     11  O   UNL     1       8.424   7.992  18.789  0.00  0.00    +0.000 OA
ATOM     12  O   UNL     1       8.083   5.720  18.803  0.00  0.00    +0.000 OA
ATOM     13  C   UNL     1       7.440   4.798  17.924  0.00  0.00    +0.000 C 
ENDBRANCH   7   8
ENDBRANCH   6   7
ENDBRANCH   5   6
ENDBRANCH   3   5
ENDBRANCH   1   2
BRANCH   1  14
ATOM     14  C   UNL     1       3.090   2.767  21.251  0.00  0.00    +0.000 C 
BRANCH  14  16
ATOM     15  C   UNL     1       0.836   3.328  20.183  0.00  0.00    +0.000 C 
ATOM     16  C   UNL     1       2.170   3.827  20.675  0.00  0.00    +0.000 C 
ATOM     17  C   UNL     1       2.542   5.122  20.645  0.00  0.00    +0.000 C 
BRANCH  17  18
ATOM     18  C   UNL     1       1.687   6.241  20.115  0.00  0.00    +0.000 C 
BRANCH  18  19
ATOM     19  C   UNL     1       2.422   7.133  19.112  0.00  0.00    +0.000 C 
BRANCH  19  20
ATOM     20  C   UNL     1       1.833   8.502  19.065  0.00  0.00    +0.000 A 
ATOM     21  C   UNL     1       1.836   9.411  17.969  0.00  0.00    +0.000 A 
ATOM     22  C   UNL     1       1.196  10.547  18.404  0.00  0.00    +0.000 A 
ATOM     23  O   UNL     1       0.800  10.404  19.693  0.00  0.00    +0.000 OA
ATOM     24  C   UNL     1       1.188   9.165  20.089  0.00  0.00    +0.000 A 
ENDBRANCH  19  20
ENDBRANCH  18  19
ENDBRANCH  17  18
ENDBRANCH  14  16
ENDBRANCH   1  14
TORSDOF 10
ENDMDL
MODEL 7
REMARK VINA RESULT:      -6.8      0.922      1.204
REMARK  Name = 
REMARK  12 active torsions:
REMARK  status: ('A' for Active; 'I' for Inactive)
REMARK    1  A    between atoms: C_1  and  C_2
REMARK    2  A    between atoms: C_2  and  C_11
REMARK    3  A    between atoms: C_3  and  C_4
REMARK    4  A    between atoms: C_4  and  C_5
REMARK    5  A    between atoms: C_5  and  C_6
REMARK    6  A    between atoms: C_11  and  C_12
REMARK    7  A    between atoms: C_12  and  C_13
REMARK    8  A    between atoms: C_14  and  C_15
REMARK    9  A    between atoms: C_14  and  C_16
REMARK   10  A    between atoms: C_16  and  C_17
REMARK   11  A    between atoms: C_17  and  C_18
REMARK   12  A    between atoms: C_18  and  C_19
REMARK                            x       y       z     vdW  Elec       q    Type
REMARK                         _______ _______ _______ _____ _____    ______ ____
ROOT
ATOM      1  C   UNL     1       5.106   6.930  17.046  0.00  0.00    +0.000 C 
ENDROOT
BRANCH   1   2
ATOM      2  C   UNL     1       6.416   7.645  17.233  0.00  0.00    +0.000 C 
ATOM      3  C   UNL     1       7.398   7.243  18.066  0.00  0.00    +0.000 C 
ATOM      4  C   UNL     1       7.299   6.015  18.941  0.00  0.00    +0.000 C 
BRANCH   3   5
ATOM      5  C   UNL     1       8.675   8.048  18.217  0.00  0.00    +0.000 C 
BRANCH   5   6
ATOM      6  C   UNL     1       8.392   9.549  18.310  0.00  0.00    +0.000 C 
BRANCH   6   7
ATOM      7  C   UNL     1       9.261  10.236  19.362  0.00  0.00    +0.000 C 
BRANCH   7   8
ATOM      8  C   UNL     1      10.224  11.188  18.737  0.00  0.00    +0.000 C 
ATOM      9  C   UNL     1      10.057  11.870  17.601  0.00  0.00    +0.000 C 
ATOM     10  C   UNL     1      11.266  12.669  17.407  0.00  0.00    +0.000 C 
ATOM     11  O   UNL     1      11.457  13.422  16.467  0.00  0.00    +0.000 OA
ATOM     12  O   UNL     1      12.130  12.436  18.431  0.00  0.00    +0.000 OA
ATOM     13  C   UNL     1      11.537  11.514  19.343  0.00  0.00    +0.000 C 
ENDBRANCH   7   8
ENDBRANCH   6   7
ENDBRANCH   5   6
ENDBRANCH   3   5
ENDBRANCH   1   2
BRANCH   1  14
ATOM     14  C   UNL     1       5.242   5.436  16.743  0.00  0.00    +0.000 C 
BRANCH  14  16
ATOM     15  C   UNL     1       3.276   5.427  18.377  0.00  0.00    +0.000 C 
ATOM     16  C   UNL     1       4.064   4.683  17.331  0.00  0.00    +0.000 C 
ATOM     17  C   UNL     1       3.755   3.442  16.904  0.00  0.00    +0.000 C 
BRANCH  17  18
ATOM     18  C   UNL     1       2.594   2.631  17.412  0.00  0.00    +0.000 C 
BRANCH  18  19
ATOM     19  C   UNL     1       2.980   1.679  18.547  0.00  0.00    +0.000 C 
BRANCH  19  20
ATOM     20  C   UNL     1       2.551   2.210  19.874  0.00  0.00    +0.000 A 
ATOM     21  C   UNL     1       1.242   2.608  20.266  0.00  0.00    +0.000 A 
ATOM     22  C   UNL     1       1.341   3.045  21.566  0.00  0.00    +0.000 A 
ATOM     23  O   UNL     1       2.622   2.947  22.002  0.00  0.00    +0.000 OA
ATOM     24  C   UNL     1       3.350   2.442  20.975  0.00  0.00    +0.000 A 
ENDBRANCH  19  20
ENDBRANCH  18  19
ENDBRANCH  17  18
ENDBRANCH  14  16
ENDBRANCH   1  14
TORSDOF 10
ENDMDL
MODEL 8
REMARK VINA RESULT:      -6.7      5.363      7.333
REMARK  Name = 
REMARK  12 active torsions:
REMARK  status: ('A' for Active; 'I' for Inactive)
REMARK    1  A    between atoms: C_1  and  C_2
REMARK    2  A    between atoms: C_2  and  C_11
REMARK    3  A    between atoms: C_3  and  C_4
REMARK    4  A    between atoms: C_4  and  C_5
REMARK    5  A    between atoms: C_5  and  C_6
REMARK    6  A    between atoms: C_11  and  C_12
REMARK    7  A    between atoms: C_12  and  C_13
REMARK    8  A    between atoms: C_14  and  C_15
REMARK    9  A    between atoms: C_14  and  C_16
REMARK   10  A    between atoms: C_16  and  C_17
REMARK   11  A    between atoms: C_17  and  C_18
REMARK   12  A    between atoms: C_18  and  C_19
REMARK                            x       y       z     vdW  Elec       q    Type
REMARK                         _______ _______ _______ _____ _____    ______ ____
ROOT
ATOM      1  C   UNL     1       7.129   5.453  18.341  0.00  0.00    +0.000 C 
ENDROOT
BRANCH   1   2
ATOM      2  C   UNL     1       7.358   4.761  17.024  0.00  0.00    +0.000 C 
ATOM      3  C   UNL     1       6.677   5.026  15.891  0.00  0.00    +0.000 C 
ATOM      4  C   UNL     1       5.573   6.053  15.801  0.00  0.00    +0.000 C 
BRANCH   3   5
ATOM      5  C   UNL     1       6.952   4.253  14.614  0.00  0.00    +0.000 C 
BRANCH   5   6
ATOM      6  C   UNL     1       6.848   5.146  13.376  0.00  0.00    +0.000 C 
BRANCH   6   7
ATOM      7  C   UNL     1       7.436   4.481  12.133  0.00  0.00    +0.000 C 
BRANCH   7   8
ATOM      8  C   UNL     1       6.687   3.244  11.771  0.00  0.00    +0.000 C 
ATOM      9  C   UNL     1       7.205   2.053  11.456  0.00  0.00    +0.000 C 
ATOM     10  C   UNL     1       6.077   1.162  11.185  0.00  0.00    +0.000 C 
ATOM     11  O   UNL     1       6.182  -0.012  10.871  0.00  0.00    +0.000 OA
ATOM     12  O   UNL     1       4.913   1.847  11.337  0.00  0.00    +0.000 OA
ATOM     13  C   UNL     1       5.206   3.186  11.732  0.00  0.00    +0.000 C 
ENDBRANCH   7   8
ENDBRANCH   6   7
ENDBRANCH   5   6
ENDBRANCH   3   5
ENDBRANCH   1   2
BRANCH   1  14
ATOM     14  C   UNL     1       6.286   4.652  19.335  0.00  0.00    +0.000 C 
BRANCH  14  16
ATOM     15  C   UNL     1       4.169   3.618  18.341  0.00  0.00    +0.000 C 
ATOM     16  C   UNL     1       4.814   4.809  19.003  0.00  0.00    +0.000 C 
ATOM     17  C   UNL     1       4.152   5.940  19.316  0.00  0.00    +0.000 C 
BRANCH  17  18
ATOM     18  C   UNL     1       2.690   6.173  19.046  0.00  0.00    +0.000 C 
BRANCH  18  19
ATOM     19  C   UNL     1       1.817   6.003  20.292  0.00  0.00    +0.000 C 
BRANCH  19  20
ATOM     20  C   UNL     1       1.630   4.563  20.634  0.00  0.00    +0.000 A 
ATOM     21  C   UNL     1       2.242   3.839  21.696  0.00  0.00    +0.000 A 
ATOM     22  C   UNL     1       1.782   2.546  21.600  0.00  0.00    +0.000 A 
ATOM     23  O   UNL     1       0.931   2.423  20.551  0.00  0.00    +0.000 OA
ATOM     24  C   UNL     1       0.843   3.645  19.969  0.00  0.00    +0.000 A 
ENDBRANCH  19  20
ENDBRANCH  18  19
ENDBRANCH  17  18
ENDBRANCH  14  16
ENDBRANCH   1  14
TORSDOF 10
ENDMDL
MODEL 9
REMARK VINA RESULT:      -6.7      1.816      9.521
REMARK  Name = 
REMARK  12 active torsions:
REMARK  status: ('A' for Active; 'I' for Inactive)
REMARK    1  A    between atoms: C_1  and  C_2
REMARK    2  A    between atoms: C_2  and  C_11
REMARK    3  A    between atoms: C_3  and  C_4
REMARK    4  A    between atoms: C_4  and  C_5
REMARK    5  A    between atoms: C_5  and  C_6
REMARK    6  A    between atoms: C_11  and  C_12
REMARK    7  A    between atoms: C_12  and  C_13
REMARK    8  A    between atoms: C_14  and  C_15
REMARK    9  A    between atoms: C_14  and  C_16
REMARK   10  A    between atoms: C_16  and  C_17
REMARK   11  A    between atoms: C_17  and  C_18
REMARK   12  A    between atoms: C_18  and  C_19
REMARK                            x       y       z     vdW  Elec       q    Type
REMARK                         _______ _______ _______ _____ _____    ______ ____
ROOT
ATOM      1  C   UNL     1       6.267   5.045  19.007  0.00  0.00    +0.000 C 
ENDROOT
BRANCH   1   2
ATOM      2  C   UNL     1       5.323   4.232  18.164  0.00  0.00    +0.000 C 
ATOM      3  C   UNL     1       4.590   3.195  18.617  0.00  0.00    +0.000 C 
ATOM      4  C   UNL     1       4.635   2.701  20.044  0.00  0.00    +0.000 C 
BRANCH   3   5
ATOM      5  C   UNL     1       3.688   2.408  17.685  0.00  0.00    +0.000 C 
BRANCH   5   6
ATOM      6  C   UNL     1       2.338   2.090  18.335  0.00  0.00    +0.000 C 
BRANCH   6   7
ATOM      7  C   UNL     1       1.307   3.190  18.090  0.00  0.00    +0.000 C 
BRANCH   7   8
ATOM      8  C   UNL     1       1.526   4.354  18.996  0.00  0.00    +0.000 C 
ATOM      9  C   UNL     1       1.962   5.569  18.652  0.00  0.00    +0.000 C 
ATOM     10  C   UNL     1       2.008   6.363  19.880  0.00  0.00    +0.000 C 
ATOM     11  O   UNL     1       2.357   7.530  19.938  0.00  0.00    +0.000 OA
ATOM     12  O   UNL     1       1.605   5.597  20.928  0.00  0.00    +0.000 OA
ATOM     13  C   UNL     1       1.257   4.298  20.452  0.00  0.00    +0.000 C 
ENDBRANCH   7   8
ENDBRANCH   6   7
ENDBRANCH   5   6
ENDBRANCH   3   5
ENDBRANCH   1   2
BRANCH   1  14
ATOM     14  C   UNL     1       7.550   5.468  18.287  0.00  0.00    +0.000 C 
BRANCH  14  16
ATOM     15  C   UNL     1       6.349   7.395  17.111  0.00  0.00    +0.000 C 
ATOM     16  C   UNL     1       7.500   6.952  17.977  0.00  0.00    +0.000 C 
ATOM     17  C   UNL     1       8.425   7.794  18.481  0.00  0.00    +0.000 C 
BRANCH  17  18
ATOM     18  C   UNL     1       8.440   9.280  18.246  0.00  0.00    +0.000 C 
BRANCH  18  19
ATOM     19  C   UNL     1       9.141  10.056  19.364  0.00  0.00    +0.000 C 
BRANCH  19  20
ATOM     20  C   UNL     1      10.045  11.107  18.815  0.00  0.00    +0.000 A 
ATOM     21  C   UNL     1       9.857  11.882  17.636  0.00  0.00    +0.000 A 
ATOM     22  C   UNL     1      10.957  12.700  17.529  0.00  0.00    +0.000 A 
ATOM     23  O   UNL     1      11.812  12.481  18.559  0.00  0.00    +0.000 OA
ATOM     24  C   UNL     1      11.256  11.516  19.335  0.00  0.00    +0.000 A 
ENDBRANCH  19  20
ENDBRANCH  18  19
ENDBRANCH  17  18
ENDBRANCH  14  16
ENDBRANCH   1  14
TORSDOF 10
ENDMDL
