MODEL 1
REMARK VINA RESULT:      -5.8      0.000      0.000
REMARK  Name = 
REMARK  5 active torsions:
REMARK  status: ('A' for Active; 'I' for Inactive)
REMARK    1  A    between atoms: C_2  and  C_10
REMARK    2  A    between atoms: N_3  and  C_4
REMARK    3  A    between atoms: C_4  and  C_5
REMARK    4  A    between atoms: C_5  and  O_6
REMARK    5  A    between atoms: O_6  and  N_7
REMARK                            x       y       z     vdW  Elec       q    Type
REMARK                         _______ _______ _______ _____ _____    ______ ____
ROOT
ATOM      1  O   UNL     1       2.989   3.984  17.508  0.00  0.00    +0.000 OA
ATOM      2  C   UNL     1       3.856   4.746  17.916  0.00  0.00    +0.000 C 
ATOM      3  N   UNL     1       3.629   5.720  18.868  0.00  0.00    +0.000 N 
ATOM      4  H   UNL     1       4.300   6.471  18.963  0.00  0.00    +0.000 HD
ENDROOT
BRANCH   2   5
ATOM      5  C   UNL     1       5.230   4.668  17.369  0.00  0.00    +0.000 A 
ATOM      6  C   UNL     1       6.301   4.766  18.256  0.00  0.00    +0.000 A 
ATOM      7  C   UNL     1       7.576   4.686  17.735  0.00  0.00    +0.000 A 
ATOM      8  N   UNL     1       7.838   4.532  16.419  0.00  0.00    +0.000 NA
ATOM      9  C   UNL     1       6.781   4.472  15.581  0.00  0.00    +0.000 A 
ATOM     10  C   UNL     1       5.465   4.536  16.002  0.00  0.00    +0.000 A 
ENDBRANCH   2   5
BRANCH   3  11
ATOM     11  C   UNL     1       2.303   5.920  19.422  0.00  0.00    +0.000 C 
BRANCH  11  12
ATOM     12  C   UNL     1       2.085   5.175  20.741  0.00  0.00    +0.000 C 
BRANCH  12  13
ATOM     13  O   UNL     1       1.046   4.221  20.554  0.00  0.00    +0.000 OA
BRANCH  13  14
ATOM     14  N   UNL     1       1.448   2.913  20.925  0.00  0.00    +0.000 N 
ATOM     15  O   UNL     1       1.570   2.678  22.127  0.00  0.00    +0.000 OA
ATOM     16  O   UNL     1       1.593   2.172  19.957  0.00  0.00    +0.000 OA
ENDBRANCH  13  14
ENDBRANCH  12  13
ENDBRANCH  11  12
ENDBRANCH   3  11
TORSDOF 5
ENDMDL
MODEL 2
REMARK VINA RESULT:      -5.8      2.899      5.719
REMARK  Name = 
REMARK  5 active torsions:
REMARK  status: ('A' for Active; 'I' for Inactive)
REMARK    1  A    between atoms: C_2  and  C_10
REMARK    2  A    between atoms: N_3  and  C_4
REMARK    3  A    between atoms: C_4  and  C_5
REMARK    4  A    between atoms: C_5  and  O_6
REMARK    5  A    between atoms: O_6  and  N_7
REMARK                            x       y       z     vdW  Elec       q    Type
REMARK                         _______ _______ _______ _____ _____    ______ ____
ROOT
ATOM      1  O   UNL     1       3.968   5.803  17.030  0.00  0.00    +0.000 OA
ATOM      2  C   UNL     1       3.997   4.681  17.521  0.00  0.00    +0.000 C 
ATOM      3  N   UNL     1       4.982   3.753  17.246  0.00  0.00    +0.000 N 
ATOM      4  H   UNL     1       4.806   2.781  17.466  0.00  0.00    +0.000 HD
ENDROOT
BRANCH   2   5
ATOM      5  C   UNL     1       2.924   4.248  18.445  0.00  0.00    +0.000 A 
ATOM      6  C   UNL     1       2.103   3.191  18.054  0.00  0.00    +0.000 A 
ATOM      7  C   UNL     1       1.110   2.792  18.927  0.00  0.00    +0.000 A 
ATOM      8  N   UNL     1       0.887   3.378  20.123  0.00  0.00    +0.000 NA
ATOM      9  C   UNL     1       1.677   4.419  20.459  0.00  0.00    +0.000 A 
ATOM     10  C   UNL     1       2.702   4.892  19.661  0.00  0.00    +0.000 A 
ENDBRANCH   2   5
BRANCH   3  11
ATOM     11  C   UNL     1       6.043   4.056  16.305  0.00  0.00    +0.000 C 
BRANCH  11  12
ATOM     12  C   UNL     1       7.209   4.819  16.940  0.00  0.00    +0.000 C 
BRANCH  12  13
ATOM     13  O   UNL     1       7.277   4.473  18.319  0.00  0.00    +0.000 OA
BRANCH  13  14
ATOM     14  N   UNL     1       7.635   5.578  19.130  0.00  0.00    +0.000 N 
ATOM     15  O   UNL     1       7.644   5.407  20.349  0.00  0.00    +0.000 OA
ATOM     16  O   UNL     1       7.922   6.574  18.471  0.00  0.00    +0.000 OA
ENDBRANCH  13  14
ENDBRANCH  12  13
ENDBRANCH  11  12
ENDBRANCH   3  11
TORSDOF 5
ENDMDL
MODEL 3
REMARK VINA RESULT:      -5.8      1.638      1.901
REMARK  Name = 
REMARK  5 active torsions:
REMARK  status: ('A' for Active; 'I' for Inactive)
REMARK    1  A    between atoms: C_2  and  C_10
REMARK    2  A    between atoms: N_3  and  C_4
REMARK    3  A    between atoms: C_4  and  C_5
REMARK    4  A    between atoms: C_5  and  O_6
REMARK    5  A    between atoms: O_6  and  N_7
REMARK                            x       y       z     vdW  Elec       q    Type
REMARK                         _______ _______ _______ _____ _____    ______ ____
ROOT
ATOM      1  O   UNL     1       3.038   5.294  17.917  0.00  0.00    +0.000 OA
ATOM      2  C   UNL     1       3.744   4.431  17.408  0.00  0.00    +0.000 C 
ATOM      3  N   UNL     1       3.400   3.095  17.358  0.00  0.00    +0.000 N 
ATOM      4  H   UNL     1       4.126   2.415  17.172  0.00  0.00    +0.000 HD
ENDROOT
BRANCH   2   5
ATOM      5  C   UNL     1       5.055   4.796  16.824  0.00  0.00    +0.000 A 
ATOM      6  C   UNL     1       5.768   5.845  17.404  0.00  0.00    +0.000 A 
ATOM      7  C   UNL     1       6.991   6.172  16.855  0.00  0.00    +0.000 A 
ATOM      8  N   UNL     1       7.522   5.542  15.785  0.00  0.00    +0.000 NA
ATOM      9  C   UNL     1       6.794   4.552  15.225  0.00  0.00    +0.000 A 
ATOM     10  C   UNL     1       5.563   4.143  15.702  0.00  0.00    +0.000 A 
ENDBRANCH   2   5
BRANCH   3  11
ATOM     11  C   UNL     1       2.166   2.625  17.958  0.00  0.00    +0.000 C 
BRANCH  11  12
ATOM     12  C   UNL     1       2.333   2.193  19.417  0.00  0.00    +0.000 C 
BRANCH  12  13
ATOM     13  O   UNL     1       1.211   2.660  20.156  0.00  0.00    +0.000 OA
BRANCH  13  14
ATOM     14  N   UNL     1       1.576   3.624  21.130  0.00  0.00    +0.000 N 
ATOM     15  O   UNL     1       2.101   3.213  22.165  0.00  0.00    +0.000 OA
ATOM     16  O   UNL     1       1.330   4.772  20.772  0.00  0.00    +0.000 OA
ENDBRANCH  13  14
ENDBRANCH  12  13
ENDBRANCH  11  12
ENDBRANCH   3  11
TORSDOF 5
ENDMDL
MODEL 4
REMARK VINA RESULT:      -5.8      1.336      1.839
REMARK  Name = 
REMARK  5 active torsions:
REMARK  status: ('A' for Active; 'I' for Inactive)
REMARK    1  A    between atoms: C_2  and  C_10
REMARK    2  A    between atoms: N_3  and  C_4
REMARK    3  A    between atoms: C_4  and  C_5
REMARK    4  A    between atoms: C_5  and  O_6
REMARK    5  A    between atoms: O_6  and  N_7
REMARK                            x       y       z     vdW  Elec       q    Type
REMARK                         _______ _______ _______ _____ _____    ______ ____
ROOT
ATOM      1  O   UNL     1       3.898   2.470  17.638  0.00  0.00    +0.000 OA
ATOM      2  C   UNL     1       3.904   3.673  17.407  0.00  0.00    +0.000 C 
ATOM      3  N   UNL     1       2.806   4.490  17.585  0.00  0.00    +0.000 N 
ATOM      4  H   UNL     1       2.797   5.395  17.132  0.00  0.00    +0.000 HD
ENDROOT
BRANCH   2   5
ATOM      5  C   UNL     1       5.129   4.321  16.885  0.00  0.00    +0.000 A 
ATOM      6  C   UNL     1       5.356   4.295  15.510  0.00  0.00    +0.000 A 
ATOM      7  C   UNL     1       6.498   4.907  15.034  0.00  0.00    +0.000 A 
ATOM      8  N   UNL     1       7.405   5.515  15.829  0.00  0.00    +0.000 NA
ATOM      9  C   UNL     1       7.175   5.496  17.159  0.00  0.00    +0.000 A 
ATOM     10  C   UNL     1       6.060   4.916  17.735  0.00  0.00    +0.000 A 
ENDBRANCH   2   5
BRANCH   3  11
ATOM     11  C   UNL     1       1.539   3.942  18.032  0.00  0.00    +0.000 C 
BRANCH  11  12
ATOM     12  C   UNL     1       1.312   4.105  19.537  0.00  0.00    +0.000 C 
BRANCH  12  13
ATOM     13  O   UNL     1       1.150   2.814  20.111  0.00  0.00    +0.000 OA
BRANCH  13  14
ATOM     14  N   UNL     1       2.001   2.614  21.226  0.00  0.00    +0.000 N 
ATOM     15  O   UNL     1       1.469   2.424  22.320  0.00  0.00    +0.000 OA
ATOM     16  O   UNL     1       3.190   2.631  20.920  0.00  0.00    +0.000 OA
ENDBRANCH  13  14
ENDBRANCH  12  13
ENDBRANCH  11  12
ENDBRANCH   3  11
TORSDOF 5
ENDMDL
MODEL 5
REMARK VINA RESULT:      -5.8      3.049      5.599
REMARK  Name = 
REMARK  5 active torsions:
REMARK  status: ('A' for Active; 'I' for Inactive)
REMARK    1  A    between atoms: C_2  and  C_10
REMARK    2  A    between atoms: N_3  and  C_4
REMARK    3  A    between atoms: C_4  and  C_5
REMARK    4  A    between atoms: C_5  and  O_6
REMARK    5  A    between atoms: O_6  and  N_7
REMARK                            x       y       z     vdW  Elec       q    Type
REMARK                         _______ _______ _______ _____ _____    ______ ____
ROOT
ATOM      1  O   UNL     1       2.786   6.956  17.822  0.00  0.00    +0.000 OA
ATOM      2  C   UNL     1       3.413   5.905  17.847  0.00  0.00    +0.000 C 
ATOM      3  N   UNL     1       4.766   5.817  17.586  0.00  0.00    +0.000 N 
ATOM      4  H   UNL     1       5.159   4.911  17.363  0.00  0.00    +0.000 HD
ENDROOT
BRANCH   2   5
ATOM      5  C   UNL     1       2.717   4.632  18.146  0.00  0.00    +0.000 A 
ATOM      6  C   UNL     1       1.793   4.615  19.190  0.00  0.00    +0.000 A 
ATOM      7  C   UNL     1       1.145   3.426  19.456  0.00  0.00    +0.000 A 
ATOM      8  N   UNL     1       1.369   2.284  18.770  0.00  0.00    +0.000 NA
ATOM      9  C   UNL     1       2.292   2.324  17.786  0.00  0.00    +0.000 A 
ATOM     10  C   UNL     1       2.990   3.465  17.436  0.00  0.00    +0.000 A 
ENDBRANCH   2   5
BRANCH   3  11
ATOM     11  C   UNL     1       5.528   6.996  17.221  0.00  0.00    +0.000 C 
BRANCH  11  12
ATOM     12  C   UNL     1       7.038   6.747  17.183  0.00  0.00    +0.000 C 
BRANCH  12  13
ATOM     13  O   UNL     1       7.334   5.937  16.051  0.00  0.00    +0.000 OA
BRANCH  13  14
ATOM     14  N   UNL     1       7.341   4.556  16.369  0.00  0.00    +0.000 N 
ATOM     15  O   UNL     1       8.137   4.176  17.228  0.00  0.00    +0.000 OA
ATOM     16  O   UNL     1       6.500   3.923  15.738  0.00  0.00    +0.000 OA
ENDBRANCH  13  14
ENDBRANCH  12  13
ENDBRANCH  11  12
ENDBRANCH   3  11
TORSDOF 5
ENDMDL
MODEL 6
REMARK VINA RESULT:      -5.7      1.805      2.225
REMARK  Name = 
REMARK  5 active torsions:
REMARK  status: ('A' for Active; 'I' for Inactive)
REMARK    1  A    between atoms: C_2  and  C_10
REMARK    2  A    between atoms: N_3  and  C_4
REMARK    3  A    between atoms: C_4  and  C_5
REMARK    4  A    between atoms: C_5  and  O_6
REMARK    5  A    between atoms: O_6  and  N_7
REMARK                            x       y       z     vdW  Elec       q    Type
REMARK                         _______ _______ _______ _____ _____    ______ ____
ROOT
ATOM      1  O   UNL     1       3.202   3.710  16.919  0.00  0.00    +0.000 OA
ATOM      2  C   UNL     1       4.344   3.609  17.351  0.00  0.00    +0.000 C 
ATOM      3  N   UNL     1       4.685   2.813  18.426  0.00  0.00    +0.000 N 
ATOM      4  H   UNL     1       5.570   2.977  18.889  0.00  0.00    +0.000 HD
ENDROOT
BRANCH   2   5
ATOM      5  C   UNL     1       5.443   4.382  16.729  0.00  0.00    +0.000 A 
ATOM      6  C   UNL     1       5.880   4.005  15.460  0.00  0.00    +0.000 A 
ATOM      7  C   UNL     1       6.900   4.737  14.888  0.00  0.00    +0.000 A 
ATOM      8  N   UNL     1       7.501   5.784  15.495  0.00  0.00    +0.000 NA
ATOM      9  C   UNL     1       7.078   6.105  16.736  0.00  0.00    +0.000 A 
ATOM     10  C   UNL     1       6.060   5.440  17.394  0.00  0.00    +0.000 A 
ENDBRANCH   2   5
BRANCH   3  11
ATOM     11  C   UNL     1       3.672   2.063  19.144  0.00  0.00    +0.000 C 
BRANCH  11  12
ATOM     12  C   UNL     1       3.597   2.426  20.630  0.00  0.00    +0.000 C 
BRANCH  12  13
ATOM     13  O   UNL     1       2.834   3.619  20.764  0.00  0.00    +0.000 OA
BRANCH  13  14
ATOM     14  N   UNL     1       1.491   3.355  21.136  0.00  0.00    +0.000 N 
ATOM     15  O   UNL     1       1.305   2.629  22.112  0.00  0.00    +0.000 OA
ATOM     16  O   UNL     1       0.681   3.935  20.418  0.00  0.00    +0.000 OA
ENDBRANCH  13  14
ENDBRANCH  12  13
ENDBRANCH  11  12
ENDBRANCH   3  11
TORSDOF 5
ENDMDL
MODEL 7
REMARK VINA RESULT:      -5.7      1.988      2.669
REMARK  Name = 
REMARK  5 active torsions:
REMARK  status: ('A' for Active; 'I' for Inactive)
REMARK    1  A    between atoms: C_2  and  C_10
REMARK    2  A    between atoms: N_3  and  C_4
REMARK    3  A    between atoms: C_4  and  C_5
REMARK    4  A    between atoms: C_5  and  O_6
REMARK    5  A    between atoms: O_6  and  N_7
REMARK                            x       y       z     vdW  Elec       q    Type
REMARK                         _______ _______ _______ _____ _____    ______ ____
ROOT
ATOM      1  O   UNL     1       5.115   3.464  19.657  0.00  0.00    +0.000 OA
ATOM      2  C   UNL     1       5.026   3.523  18.437  0.00  0.00    +0.000 C 
ATOM      3  N   UNL     1       4.187   2.718  17.693  0.00  0.00    +0.000 N 
ATOM      4  H   UNL     1       4.354   2.632  16.698  0.00  0.00    +0.000 HD
ENDROOT
BRANCH   2   5
ATOM      5  C   UNL     1       5.862   4.481  17.678  0.00  0.00    +0.000 A 
ATOM      6  C   UNL     1       6.054   4.256  16.315  0.00  0.00    +0.000 A 
ATOM      7  C   UNL     1       6.830   5.159  15.617  0.00  0.00    +0.000 A 
ATOM      8  N   UNL     1       7.419   6.233  16.185  0.00  0.00    +0.000 NA
ATOM      9  C   UNL     1       7.242   6.407  17.512  0.00  0.00    +0.000 A 
ATOM     10  C   UNL     1       6.478   5.566  18.299  0.00  0.00    +0.000 A 
ENDBRANCH   2   5
BRANCH   3  11
ATOM     11  C   UNL     1       3.372   1.703  18.334  0.00  0.00    +0.000 C 
BRANCH  11  12
ATOM     12  C   UNL     1       1.915   2.132  18.519  0.00  0.00    +0.000 C 
BRANCH  12  13
ATOM     13  O   UNL     1       1.794   2.789  19.776  0.00  0.00    +0.000 OA
BRANCH  13  14
ATOM     14  N   UNL     1       1.484   4.165  19.633  0.00  0.00    +0.000 N 
ATOM     15  O   UNL     1       1.110   4.769  20.638  0.00  0.00    +0.000 OA
ATOM     16  O   UNL     1       1.668   4.573  18.490  0.00  0.00    +0.000 OA
ENDBRANCH  13  14
ENDBRANCH  12  13
ENDBRANCH  11  12
ENDBRANCH   3  11
TORSDOF 5
ENDMDL
MODEL 8
REMARK VINA RESULT:      -5.7      2.471      2.975
REMARK  Name = 
REMARK  5 active torsions:
REMARK  status: ('A' for Active; 'I' for Inactive)
REMARK    1  A    between atoms: C_2  and  C_10
REMARK    2  A    between atoms: N_3  and  C_4
REMARK    3  A    between atoms: C_4  and  C_5
REMARK    4  A    between atoms: C_5  and  O_6
REMARK    5  A    between atoms: O_6  and  N_7
REMARK                            x       y       z     vdW  Elec       q    Type
REMARK                         _______ _______ _______ _____ _____    ______ ____
ROOT
ATOM      1  O   UNL     1       3.813   5.034  19.780  0.00  0.00    +0.000 OA
ATOM      2  C   UNL     1       4.795   4.615  19.180  0.00  0.00    +0.000 C 
ATOM      3  N   UNL     1       5.112   3.275  19.079  0.00  0.00    +0.000 N 
ATOM      4  H   UNL     1       6.053   3.019  18.809  0.00  0.00    +0.000 HD
ENDROOT
BRANCH   2   5
ATOM      5  C   UNL     1       5.731   5.563  18.534  0.00  0.00    +0.000 A 
ATOM      6  C   UNL     1       7.017   5.684  19.060  0.00  0.00    +0.000 A 
ATOM      7  C   UNL     1       7.882   6.566  18.446  0.00  0.00    +0.000 A 
ATOM      8  N   UNL     1       7.545   7.323  17.379  0.00  0.00    +0.000 NA
ATOM      9  C   UNL     1       6.284   7.208  16.913  0.00  0.00    +0.000 A 
ATOM     10  C   UNL     1       5.343   6.349  17.451  0.00  0.00    +0.000 A 
ENDBRANCH   2   5
BRANCH   3  11
ATOM     11  C   UNL     1       4.295   2.268  19.729  0.00  0.00    +0.000 C 
BRANCH  11  12
ATOM     12  C   UNL     1       3.450   1.454  18.747  0.00  0.00    +0.000 C 
BRANCH  12  13
ATOM     13  O   UNL     1       2.990   2.324  17.719  0.00  0.00    +0.000 OA
BRANCH  13  14
ATOM     14  N   UNL     1       1.690   2.824  17.984  0.00  0.00    +0.000 N 
ATOM     15  O   UNL     1       0.959   2.148  18.707  0.00  0.00    +0.000 OA
ATOM     16  O   UNL     1       1.488   3.914  17.455  0.00  0.00    +0.000 OA
ENDBRANCH  13  14
ENDBRANCH  12  13
ENDBRANCH  11  12
ENDBRANCH   3  11
TORSDOF 5
ENDMDL
MODEL 9
REMARK VINA RESULT:      -5.7      2.858      6.302
REMARK  Name = 
REMARK  5 active torsions:
REMARK  status: ('A' for Active; 'I' for Inactive)
REMARK    1  A    between atoms: C_2  and  C_10
REMARK    2  A    between atoms: N_3  and  C_4
REMARK    3  A    between atoms: C_4  and  C_5
REMARK    4  A    between atoms: C_5  and  O_6
REMARK    5  A    between atoms: O_6  and  N_7
REMARK                            x       y       z     vdW  Elec       q    Type
REMARK                         _______ _______ _______ _____ _____    ______ ____
ROOT
ATOM      1  O   UNL     1       3.830   6.161  17.551  0.00  0.00    +0.000 OA
ATOM      2  C   UNL     1       4.000   5.191  18.279  0.00  0.00    +0.000 C 
ATOM      3  N   UNL     1       5.245   4.730  18.658  0.00  0.00    +0.000 N 
ATOM      4  H   UNL     1       5.321   3.792  19.030  0.00  0.00    +0.000 HD
ENDROOT
BRANCH   2   5
ATOM      5  C   UNL     1       2.834   4.430  18.784  0.00  0.00    +0.000 A 
ATOM      6  C   UNL     1       2.415   3.311  18.066  0.00  0.00    +0.000 A 
ATOM      7  C   UNL     1       1.331   2.606  18.549  0.00  0.00    +0.000 A 
ATOM      8  N   UNL     1       0.654   2.950  19.666  0.00  0.00    +0.000 NA
ATOM      9  C   UNL     1       1.063   4.057  20.322  0.00  0.00    +0.000 A 
ATOM     10  C   UNL     1       2.140   4.828  19.926  0.00  0.00    +0.000 A 
ENDBRANCH   2   5
BRANCH   3  11
ATOM     11  C   UNL     1       6.452   5.367  18.168  0.00  0.00    +0.000 C 
BRANCH  11  12
ATOM     12  C   UNL     1       7.088   4.623  16.991  0.00  0.00    +0.000 C 
BRANCH  12  13
ATOM     13  O   UNL     1       7.314   5.554  15.939  0.00  0.00    +0.000 OA
BRANCH  13  14
ATOM     14  N   UNL     1       7.254   4.942  14.661  0.00  0.00    +0.000 N 
ATOM     15  O   UNL     1       6.525   3.957  14.538  0.00  0.00    +0.000 OA
ATOM     16  O   UNL     1       7.942   5.523  13.827  0.00  0.00    +0.000 OA
ENDBRANCH  13  14
ENDBRANCH  12  13
ENDBRANCH  11  12
ENDBRANCH   3  11
TORSDOF 5
ENDMDL
