MODEL 1
REMARK VINA RESULT:      -6.9      0.000      0.000
REMARK  Name = 
REMARK  12 active torsions:
REMARK  status: ('A' for Active; 'I' for Inactive)
REMARK    1  A    between atoms: C_1  and  O_2
REMARK    2  A    between atoms: O_2  and  C_3
REMARK    3  A    between atoms: C_3  and  C_4
REMARK    4  A    between atoms: C_4  and  O_5
REMARK    5  A    between atoms: O_5  and  C_6
REMARK    6  A    between atoms: C_11  and  N_12
REMARK    7  A    between atoms: N_15  and  C_16
REMARK    8  A    between atoms: C_16  and  C_17
REMARK    9  A    between atoms: C_16  and  C_18
REMARK   10  A    between atoms: C_25  and  C_26
REMARK   11  A    between atoms: C_26  and  C_27
REMARK   12  A    between atoms: C_26  and  O_28
REMARK                            x       y       z     vdW  Elec       q    Type
REMARK                         _______ _______ _______ _____ _____    ______ ____
ROOT
ATOM      1  C   UNL     1       2.066   6.680  19.866  0.00  0.00    +0.000 A 
ATOM      2  N   UNL     1       2.534   6.195  18.713  0.00  0.00    +0.000 NA
ATOM      3  N   UNL     1       2.509   7.256  17.894  0.00  0.00    +0.000 N 
ATOM      4  C   UNL     1       2.010   8.394  18.471  0.00  0.00    +0.000 A 
ATOM      5  C   UNL     1       1.810   9.681  17.963  0.00  0.00    +0.000 A 
ATOM      6  C   UNL     1       1.280  10.592  18.862  0.00  0.00    +0.000 A 
ATOM      7  N   UNL     1       1.021  10.279  20.148  0.00  0.00    +0.000 NA
ATOM      8  C   UNL     1       1.223   9.021  20.655  0.00  0.00    +0.000 A 
ATOM      9  C   UNL     1       1.713   8.041  19.786  0.00  0.00    +0.000 A 
ATOM     10  H   UNL     1       2.863   7.138  16.953  0.00  0.00    +0.000 HD
ENDROOT
BRANCH   6  11
ATOM     11  N   UNL     1       0.993  11.895  18.433  0.00  0.00    +0.000 N 
ATOM     12  C   UNL     1      -0.088  12.674  18.762  0.00  0.00    +0.000 C 
ATOM     13  O   UNL     1      -0.183  13.811  18.310  0.00  0.00    +0.000 OA
ATOM     14  N   UNL     1      -1.001  12.113  19.596  0.00  0.00    +0.000 N 
ATOM     15  H   UNL     1       1.630  12.345  17.792  0.00  0.00    +0.000 HD
ATOM     16  H   UNL     1      -0.879  11.119  19.750  0.00  0.00    +0.000 HD
BRANCH  14  17
ATOM     17  C   UNL     1      -2.225  12.710  20.080  0.00  0.00    +0.000 C 
ATOM     18  C   UNL     1      -2.358  12.486  21.591  0.00  0.00    +0.000 C 
BRANCH  17  19
ATOM     19  C   UNL     1      -3.406  12.153  19.298  0.00  0.00    +0.000 A 
ATOM     20  C   UNL     1      -4.709  12.498  19.692  0.00  0.00    +0.000 A 
ATOM     21  C   UNL     1      -5.819  11.931  19.060  0.00  0.00    +0.000 A 
ATOM     22  C   UNL     1      -5.643  11.025  18.017  0.00  0.00    +0.000 A 
ATOM     23  C   UNL     1      -4.360  10.720  17.574  0.00  0.00    +0.000 A 
ATOM     24  C   UNL     1      -3.251  11.295  18.196  0.00  0.00    +0.000 A 
ENDBRANCH  17  19
ENDBRANCH  14  17
ENDBRANCH   6  11
BRANCH   8  25
ATOM     25  C   UNL     1       0.907   8.864  22.125  0.00  0.00    +0.000 C 
ATOM     26  C   UNL     1      -0.356   9.619  22.511  0.00  0.00    +0.000 C 
BRANCH  25  27
ATOM     27  O   UNL     1       1.997   9.384  22.908  0.00  0.00    +0.000 OA
ATOM     28  H   UNL     1       2.364   8.619  23.394  0.00  0.00    +0.000 HD
ENDBRANCH  25  27
ENDBRANCH   8  25
BRANCH   1  29
ATOM     29  O   UNL     1       1.995   5.893  20.961  0.00  0.00    +0.000 OA
BRANCH  29  30
ATOM     30  C   UNL     1       2.438   4.547  20.746  0.00  0.00    +0.000 C 
BRANCH  30  31
ATOM     31  C   UNL     1       1.265   3.566  20.773  0.00  0.00    +0.000 C 
BRANCH  31  33
ATOM     32  C   UNL     1       0.855   2.435  18.759  0.00  0.00    +0.000 C 
ATOM     33  O   UNL     1       1.561   2.409  19.993  0.00  0.00    +0.000 OA
ENDBRANCH  31  33
ENDBRANCH  30  31
ENDBRANCH  29  30
ENDBRANCH   1  29
TORSDOF 9
ENDMDL
MODEL 2
REMARK VINA RESULT:      -6.9      3.147      5.024
REMARK  Name = 
REMARK  12 active torsions:
REMARK  status: ('A' for Active; 'I' for Inactive)
REMARK    1  A    between atoms: C_1  and  O_2
REMARK    2  A    between atoms: O_2  and  C_3
REMARK    3  A    between atoms: C_3  and  C_4
REMARK    4  A    between atoms: C_4  and  O_5
REMARK    5  A    between atoms: O_5  and  C_6
REMARK    6  A    between atoms: C_11  and  N_12
REMARK    7  A    between atoms: N_15  and  C_16
REMARK    8  A    between atoms: C_16  and  C_17
REMARK    9  A    between atoms: C_16  and  C_18
REMARK   10  A    between atoms: C_25  and  C_26
REMARK   11  A    between atoms: C_26  and  C_27
REMARK   12  A    between atoms: C_26  and  O_28
REMARK                            x       y       z     vdW  Elec       q    Type
REMARK                         _______ _______ _______ _____ _____    ______ ____
ROOT
ATOM      1  C   UNL     1       4.714   5.150  16.868  0.00  0.00    +0.000 A 
ATOM      2  N   UNL     1       4.896   6.233  16.107  0.00  0.00    +0.000 NA
ATOM      3  N   UNL     1       4.224   7.192  16.761  0.00  0.00    +0.000 N 
ATOM      4  C   UNL     1       3.592   6.754  17.895  0.00  0.00    +0.000 A 
ATOM      5  C   UNL     1       2.797   7.423  18.831  0.00  0.00    +0.000 A 
ATOM      6  C   UNL     1       2.327   6.638  19.871  0.00  0.00    +0.000 A 
ATOM      7  N   UNL     1       2.651   5.336  20.004  0.00  0.00    +0.000 NA
ATOM      8  C   UNL     1       3.437   4.676  19.095  0.00  0.00    +0.000 A 
ATOM      9  C   UNL     1       3.907   5.400  17.994  0.00  0.00    +0.000 A 
ATOM     10  H   UNL     1       4.252   8.132  16.386  0.00  0.00    +0.000 HD
ENDROOT
BRANCH   6  11
ATOM     11  N   UNL     1       1.478   7.205  20.831  0.00  0.00    +0.000 N 
ATOM     12  C   UNL     1       0.938   8.467  20.842  0.00  0.00    +0.000 C 
ATOM     13  O   UNL     1       0.193   8.805  21.756  0.00  0.00    +0.000 OA
ATOM     14  N   UNL     1       1.275   9.273  19.802  0.00  0.00    +0.000 N 
ATOM     15  H   UNL     1       1.219   6.652  21.636  0.00  0.00    +0.000 HD
ATOM     16  H   UNL     1       2.026   8.921  19.220  0.00  0.00    +0.000 HD
BRANCH  14  17
ATOM     17  C   UNL     1       0.858  10.640  19.586  0.00  0.00    +0.000 C 
ATOM     18  C   UNL     1       0.881  11.412  20.911  0.00  0.00    +0.000 C 
BRANCH  17  19
ATOM     19  C   UNL     1      -0.511  10.655  18.922  0.00  0.00    +0.000 A 
ATOM     20  C   UNL     1      -0.731   9.848  17.795  0.00  0.00    +0.000 A 
ATOM     21  C   UNL     1      -1.943   9.907  17.101  0.00  0.00    +0.000 A 
ATOM     22  C   UNL     1      -2.956  10.760  17.534  0.00  0.00    +0.000 A 
ATOM     23  C   UNL     1      -2.776  11.519  18.685  0.00  0.00    +0.000 A 
ATOM     24  C   UNL     1      -1.571  11.452  19.386  0.00  0.00    +0.000 A 
ENDBRANCH  17  19
ENDBRANCH  14  17
ENDBRANCH   6  11
BRANCH   8  25
ATOM     25  C   UNL     1       3.720   3.227  19.424  0.00  0.00    +0.000 C 
ATOM     26  C   UNL     1       3.109   2.825  20.757  0.00  0.00    +0.000 C 
BRANCH  25  27
ATOM     27  O   UNL     1       5.141   3.023  19.501  0.00  0.00    +0.000 OA
ATOM     28  H   UNL     1       5.275   2.339  20.187  0.00  0.00    +0.000 HD
ENDBRANCH  25  27
ENDBRANCH   8  25
BRANCH   1  29
ATOM     29  O   UNL     1       5.301   3.979  16.542  0.00  0.00    +0.000 OA
BRANCH  29  30
ATOM     30  C   UNL     1       6.673   4.099  16.145  0.00  0.00    +0.000 C 
BRANCH  30  31
ATOM     31  C   UNL     1       7.437   5.048  17.070  0.00  0.00    +0.000 C 
BRANCH  31  33
ATOM     32  C   UNL     1       7.528   5.548  19.361  0.00  0.00    +0.000 C 
ATOM     33  O   UNL     1       7.511   4.509  18.389  0.00  0.00    +0.000 OA
ENDBRANCH  31  33
ENDBRANCH  30  31
ENDBRANCH  29  30
ENDBRANCH   1  29
TORSDOF 9
ENDMDL
MODEL 3
REMARK VINA RESULT:      -6.9      3.438      8.680
REMARK  Name = 
REMARK  12 active torsions:
REMARK  status: ('A' for Active; 'I' for Inactive)
REMARK    1  A    between atoms: C_1  and  O_2
REMARK    2  A    between atoms: O_2  and  C_3
REMARK    3  A    between atoms: C_3  and  C_4
REMARK    4  A    between atoms: C_4  and  O_5
REMARK    5  A    between atoms: O_5  and  C_6
REMARK    6  A    between atoms: C_11  and  N_12
REMARK    7  A    between atoms: N_15  and  C_16
REMARK    8  A    between atoms: C_16  and  C_17
REMARK    9  A    between atoms: C_16  and  C_18
REMARK   10  A    between atoms: C_25  and  C_26
REMARK   11  A    between atoms: C_26  and  C_27
REMARK   12  A    between atoms: C_26  and  O_28
REMARK                            x       y       z     vdW  Elec       q    Type
REMARK                         _______ _______ _______ _____ _____    ______ ____
ROOT
ATOM      1  C   UNL     1       1.394  10.049  18.969  0.00  0.00    +0.000 A 
ATOM      2  N   UNL     1       1.709  10.154  17.675  0.00  0.00    +0.000 NA
ATOM      3  N   UNL     1       2.138   8.925  17.356  0.00  0.00    +0.000 N 
ATOM      4  C   UNL     1       2.140   8.045  18.407  0.00  0.00    +0.000 A 
ATOM      5  C   UNL     1       2.517   6.701  18.492  0.00  0.00    +0.000 A 
ATOM      6  C   UNL     1       2.372   6.129  19.745  0.00  0.00    +0.000 A 
ATOM      7  N   UNL     1       1.858   6.798  20.796  0.00  0.00    +0.000 NA
ATOM      8  C   UNL     1       1.480   8.113  20.718  0.00  0.00    +0.000 A 
ATOM      9  C   UNL     1       1.643   8.766  19.491  0.00  0.00    +0.000 A 
ATOM     10  H   UNL     1       2.400   8.747  16.394  0.00  0.00    +0.000 HD
ENDROOT
BRANCH   6  11
ATOM     11  N   UNL     1       2.772   4.800  19.944  0.00  0.00    +0.000 N 
ATOM     12  C   UNL     1       3.971   4.220  19.612  0.00  0.00    +0.000 C 
ATOM     13  O   UNL     1       4.172   3.038  19.872  0.00  0.00    +0.000 OA
ATOM     14  N   UNL     1       4.880   5.026  19.003  0.00  0.00    +0.000 N 
ATOM     15  H   UNL     1       2.121   4.157  20.370  0.00  0.00    +0.000 HD
ATOM     16  H   UNL     1       4.516   5.923  18.702  0.00  0.00    +0.000 HD
BRANCH  14  17
ATOM     17  C   UNL     1       6.200   4.662  18.542  0.00  0.00    +0.000 C 
ATOM     18  C   UNL     1       7.243   5.625  19.119  0.00  0.00    +0.000 C 
BRANCH  17  19
ATOM     19  C   UNL     1       6.215   4.623  17.021  0.00  0.00    +0.000 A 
ATOM     20  C   UNL     1       5.132   4.043  16.342  0.00  0.00    +0.000 A 
ATOM     21  C   UNL     1       5.153   3.902  14.952  0.00  0.00    +0.000 A 
ATOM     22  C   UNL     1       6.249   4.355  14.220  0.00  0.00    +0.000 A 
ATOM     23  C   UNL     1       7.302   4.988  14.871  0.00  0.00    +0.000 A 
ATOM     24  C   UNL     1       7.276   5.140  16.259  0.00  0.00    +0.000 A 
ENDBRANCH  17  19
ENDBRANCH  14  17
ENDBRANCH   6  11
BRANCH   8  25
ATOM     25  C   UNL     1       0.897   8.690  21.989  0.00  0.00    +0.000 C 
ATOM     26  C   UNL     1      -0.612   8.851  21.891  0.00  0.00    +0.000 C 
BRANCH  25  27
ATOM     27  O   UNL     1       1.472   9.985  22.236  0.00  0.00    +0.000 OA
ATOM     28  H   UNL     1       2.127  10.125  21.524  0.00  0.00    +0.000 HD
ENDBRANCH  25  27
ENDBRANCH   8  25
BRANCH   1  29
ATOM     29  O   UNL     1       0.868  11.101  19.632  0.00  0.00    +0.000 OA
BRANCH  29  30
ATOM     30  C   UNL     1       0.969  12.347  18.932  0.00  0.00    +0.000 C 
BRANCH  30  31
ATOM     31  C   UNL     1      -0.410  12.964  18.694  0.00  0.00    +0.000 C 
BRANCH  31  33
ATOM     32  C   UNL     1      -2.028  11.633  17.639  0.00  0.00    +0.000 C 
ATOM     33  O   UNL     1      -1.434  11.989  18.881  0.00  0.00    +0.000 OA
ENDBRANCH  31  33
ENDBRANCH  30  31
ENDBRANCH  29  30
ENDBRANCH   1  29
TORSDOF 9
ENDMDL
MODEL 4
REMARK VINA RESULT:      -6.8      3.430      8.650
REMARK  Name = 
REMARK  12 active torsions:
REMARK  status: ('A' for Active; 'I' for Inactive)
REMARK    1  A    between atoms: C_1  and  O_2
REMARK    2  A    between atoms: O_2  and  C_3
REMARK    3  A    between atoms: C_3  and  C_4
REMARK    4  A    between atoms: C_4  and  O_5
REMARK    5  A    between atoms: O_5  and  C_6
REMARK    6  A    between atoms: C_11  and  N_12
REMARK    7  A    between atoms: N_15  and  C_16
REMARK    8  A    between atoms: C_16  and  C_17
REMARK    9  A    between atoms: C_16  and  C_18
REMARK   10  A    between atoms: C_25  and  C_26
REMARK   11  A    between atoms: C_26  and  C_27
REMARK   12  A    between atoms: C_26  and  O_28
REMARK                            x       y       z     vdW  Elec       q    Type
REMARK                         _______ _______ _______ _____ _____    ______ ____
ROOT
ATOM      1  C   UNL     1       1.368  10.104  18.973  0.00  0.00    +0.000 A 
ATOM      2  N   UNL     1       1.634  10.179  17.666  0.00  0.00    +0.000 NA
ATOM      3  N   UNL     1       2.021   8.934  17.353  0.00  0.00    +0.000 N 
ATOM      4  C   UNL     1       2.043   8.073  18.419  0.00  0.00    +0.000 A 
ATOM      5  C   UNL     1       2.390   6.722  18.514  0.00  0.00    +0.000 A 
ATOM      6  C   UNL     1       2.281   6.175  19.782  0.00  0.00    +0.000 A 
ATOM      7  N   UNL     1       1.825   6.876  20.840  0.00  0.00    +0.000 NA
ATOM      8  C   UNL     1       1.476   8.198  20.753  0.00  0.00    +0.000 A 
ATOM      9  C   UNL     1       1.606   8.825  19.509  0.00  0.00    +0.000 A 
ATOM     10  H   UNL     1       2.240   8.733  16.386  0.00  0.00    +0.000 HD
ENDROOT
BRANCH   6  11
ATOM     11  N   UNL     1       2.657   4.841  19.990  0.00  0.00    +0.000 N 
ATOM     12  C   UNL     1       3.850   4.240  19.674  0.00  0.00    +0.000 C 
ATOM     13  O   UNL     1       4.028   3.056  19.940  0.00  0.00    +0.000 OA
ATOM     14  N   UNL     1       4.779   5.029  19.074  0.00  0.00    +0.000 N 
ATOM     15  H   UNL     1       1.991   4.210  20.410  0.00  0.00    +0.000 HD
ATOM     16  H   UNL     1       4.434   5.930  18.766  0.00  0.00    +0.000 HD
BRANCH  14  17
ATOM     17  C   UNL     1       6.098   4.641  18.630  0.00  0.00    +0.000 C 
ATOM     18  C   UNL     1       7.144   5.629  19.162  0.00  0.00    +0.000 C 
BRANCH  17  19
ATOM     19  C   UNL     1       6.113   4.533  17.112  0.00  0.00    +0.000 A 
ATOM     20  C   UNL     1       7.309   4.784  16.421  0.00  0.00    +0.000 A 
ATOM     21  C   UNL     1       7.339   4.789  15.024  0.00  0.00    +0.000 A 
ATOM     22  C   UNL     1       6.178   4.526  14.299  0.00  0.00    +0.000 A 
ATOM     23  C   UNL     1       5.000   4.215  14.968  0.00  0.00    +0.000 A 
ATOM     24  C   UNL     1       4.972   4.198  16.364  0.00  0.00    +0.000 A 
ENDBRANCH  17  19
ENDBRANCH  14  17
ENDBRANCH   6  11
BRANCH   8  25
ATOM     25  C   UNL     1       0.957   8.810  22.034  0.00  0.00    +0.000 C 
ATOM     26  C   UNL     1      -0.557   8.949  22.017  0.00  0.00    +0.000 C 
BRANCH  25  27
ATOM     27  O   UNL     1       1.526  10.120  22.204  0.00  0.00    +0.000 OA
ATOM     28  H   UNL     1       2.274  10.170  21.576  0.00  0.00    +0.000 HD
ENDBRANCH  25  27
ENDBRANCH   8  25
BRANCH   1  29
ATOM     29  O   UNL     1       0.893  11.180  19.637  0.00  0.00    +0.000 OA
BRANCH  29  30
ATOM     30  C   UNL     1      -0.202  11.836  18.985  0.00  0.00    +0.000 C 
BRANCH  30  31
ATOM     31  C   UNL     1      -1.468  10.978  19.028  0.00  0.00    +0.000 C 
BRANCH  31  33
ATOM     32  C   UNL     1      -2.122  12.906  20.195  0.00  0.00    +0.000 C 
ATOM     33  O   UNL     1      -2.571  11.739  19.517  0.00  0.00    +0.000 OA
ENDBRANCH  31  33
ENDBRANCH  30  31
ENDBRANCH  29  30
ENDBRANCH   1  29
TORSDOF 9
ENDMDL
MODEL 5
REMARK VINA RESULT:      -6.7      3.175      4.863
REMARK  Name = 
REMARK  12 active torsions:
REMARK  status: ('A' for Active; 'I' for Inactive)
REMARK    1  A    between atoms: C_1  and  O_2
REMARK    2  A    between atoms: O_2  and  C_3
REMARK    3  A    between atoms: C_3  and  C_4
REMARK    4  A    between atoms: C_4  and  O_5
REMARK    5  A    between atoms: O_5  and  C_6
REMARK    6  A    between atoms: C_11  and  N_12
REMARK    7  A    between atoms: N_15  and  C_16
REMARK    8  A    between atoms: C_16  and  C_17
REMARK    9  A    between atoms: C_16  and  C_18
REMARK   10  A    between atoms: C_25  and  C_26
REMARK   11  A    between atoms: C_26  and  C_27
REMARK   12  A    between atoms: C_26  and  O_28
REMARK                            x       y       z     vdW  Elec       q    Type
REMARK                         _______ _______ _______ _____ _____    ______ ____
ROOT
ATOM      1  C   UNL     1       3.163   3.070  19.008  0.00  0.00    +0.000 A 
ATOM      2  N   UNL     1       1.856   2.817  19.117  0.00  0.00    +0.000 NA
ATOM      3  N   UNL     1       1.283   3.978  18.767  0.00  0.00    +0.000 N 
ATOM      4  C   UNL     1       2.176   4.974  18.470  0.00  0.00    +0.000 A 
ATOM      5  C   UNL     1       1.988   6.304  18.082  0.00  0.00    +0.000 A 
ATOM      6  C   UNL     1       3.152   7.021  17.859  0.00  0.00    +0.000 A 
ATOM      7  N   UNL     1       4.379   6.468  17.959  0.00  0.00    +0.000 NA
ATOM      8  C   UNL     1       4.569   5.163  18.332  0.00  0.00    +0.000 A 
ATOM      9  C   UNL     1       3.435   4.395  18.617  0.00  0.00    +0.000 A 
ATOM     10  H   UNL     1       0.272   4.018  18.735  0.00  0.00    +0.000 HD
ENDROOT
BRANCH   6  11
ATOM     11  N   UNL     1       3.070   8.378  17.517  0.00  0.00    +0.000 N 
ATOM     12  C   UNL     1       2.293   9.349  18.097  0.00  0.00    +0.000 C 
ATOM     13  O   UNL     1       2.350  10.504  17.687  0.00  0.00    +0.000 OA
ATOM     14  N   UNL     1       1.496   8.948  19.122  0.00  0.00    +0.000 N 
ATOM     15  H   UNL     1       3.625   8.717  16.746  0.00  0.00    +0.000 HD
ATOM     16  H   UNL     1       1.427   7.944  19.237  0.00  0.00    +0.000 HD
BRANCH  14  17
ATOM     17  C   UNL     1       0.579   9.764  19.885  0.00  0.00    +0.000 C 
ATOM     18  C   UNL     1       0.083   8.990  21.112  0.00  0.00    +0.000 C 
BRANCH  17  19
ATOM     19  C   UNL     1      -0.558  10.229  18.986  0.00  0.00    +0.000 A 
ATOM     20  C   UNL     1      -1.298  11.363  19.354  0.00  0.00    +0.000 A 
ATOM     21  C   UNL     1      -2.409  11.764  18.606  0.00  0.00    +0.000 A 
ATOM     22  C   UNL     1      -2.784  11.047  17.472  0.00  0.00    +0.000 A 
ATOM     23  C   UNL     1      -2.024   9.957  17.059  0.00  0.00    +0.000 A 
ATOM     24  C   UNL     1      -0.908   9.563  17.799  0.00  0.00    +0.000 A 
ENDBRANCH  17  19
ENDBRANCH  14  17
ENDBRANCH   6  11
BRANCH   8  25
ATOM     25  C   UNL     1       6.012   4.708  18.360  0.00  0.00    +0.000 C 
ATOM     26  C   UNL     1       6.972   5.888  18.344  0.00  0.00    +0.000 C 
BRANCH  25  27
ATOM     27  O   UNL     1       6.280   3.895  17.205  0.00  0.00    +0.000 OA
ATOM     28  H   UNL     1       5.504   3.997  16.620  0.00  0.00    +0.000 HD
ENDBRANCH  25  27
ENDBRANCH   8  25
BRANCH   1  29
ATOM     29  O   UNL     1       4.069   2.096  19.238  0.00  0.00    +0.000 OA
BRANCH  29  30
ATOM     30  C   UNL     1       4.526   2.026  20.595  0.00  0.00    +0.000 C 
BRANCH  30  31
ATOM     31  C   UNL     1       5.293   0.729  20.857  0.00  0.00    +0.000 C 
BRANCH  31  33
ATOM     32  C   UNL     1       6.584  -0.448  22.423  0.00  0.00    +0.000 C 
ATOM     33  O   UNL     1       6.001   0.807  22.093  0.00  0.00    +0.000 OA
ENDBRANCH  31  33
ENDBRANCH  30  31
ENDBRANCH  29  30
ENDBRANCH   1  29
TORSDOF 9
ENDMDL
MODEL 6
REMARK VINA RESULT:      -6.7      3.616      5.251
REMARK  Name = 
REMARK  12 active torsions:
REMARK  status: ('A' for Active; 'I' for Inactive)
REMARK    1  A    between atoms: C_1  and  O_2
REMARK    2  A    between atoms: O_2  and  C_3
REMARK    3  A    between atoms: C_3  and  C_4
REMARK    4  A    between atoms: C_4  and  O_5
REMARK    5  A    between atoms: O_5  and  C_6
REMARK    6  A    between atoms: C_11  and  N_12
REMARK    7  A    between atoms: N_15  and  C_16
REMARK    8  A    between atoms: C_16  and  C_17
REMARK    9  A    between atoms: C_16  and  C_18
REMARK   10  A    between atoms: C_25  and  C_26
REMARK   11  A    between atoms: C_26  and  C_27
REMARK   12  A    between atoms: C_26  and  O_28
REMARK                            x       y       z     vdW  Elec       q    Type
REMARK                         _______ _______ _______ _____ _____    ______ ____
ROOT
ATOM      1  C   UNL     1       4.815   5.386  16.705  0.00  0.00    +0.000 A 
ATOM      2  N   UNL     1       4.950   6.509  15.994  0.00  0.00    +0.000 NA
ATOM      3  N   UNL     1       4.241   7.408  16.691  0.00  0.00    +0.000 N 
ATOM      4  C   UNL     1       3.631   6.894  17.805  0.00  0.00    +0.000 A 
ATOM      5  C   UNL     1       2.812   7.486  18.772  0.00  0.00    +0.000 A 
ATOM      6  C   UNL     1       2.378   6.636  19.775  0.00  0.00    +0.000 A 
ATOM      7  N   UNL     1       2.756   5.343  19.848  0.00  0.00    +0.000 NA
ATOM      8  C   UNL     1       3.566   4.759  18.909  0.00  0.00    +0.000 A 
ATOM      9  C   UNL     1       4.002   5.551  17.842  0.00  0.00    +0.000 A 
ATOM     10  H   UNL     1       4.229   8.365  16.359  0.00  0.00    +0.000 HD
ENDROOT
BRANCH   6  11
ATOM     11  N   UNL     1       1.509   7.123  20.761  0.00  0.00    +0.000 N 
ATOM     12  C   UNL     1       0.940   8.369  20.845  0.00  0.00    +0.000 C 
ATOM     13  O   UNL     1       0.180   8.633  21.771  0.00  0.00    +0.000 OA
ATOM     14  N   UNL     1       1.265   9.245  19.860  0.00  0.00    +0.000 N 
ATOM     15  H   UNL     1       1.258   6.516  21.528  0.00  0.00    +0.000 HD
ATOM     16  H   UNL     1       2.028   8.947  19.263  0.00  0.00    +0.000 HD
BRANCH  14  17
ATOM     17  C   UNL     1       0.818  10.613  19.724  0.00  0.00    +0.000 C 
ATOM     18  C   UNL     1       0.756  11.284  21.101  0.00  0.00    +0.000 C 
BRANCH  17  19
ATOM     19  C   UNL     1      -0.518  10.641  18.997  0.00  0.00    +0.000 A 
ATOM     20  C   UNL     1      -0.689   9.849  17.851  0.00  0.00    +0.000 A 
ATOM     21  C   UNL     1      -1.866   9.920  17.102  0.00  0.00    +0.000 A 
ATOM     22  C   UNL     1      -2.895  10.772  17.497  0.00  0.00    +0.000 A 
ATOM     23  C   UNL     1      -2.767  11.518  18.664  0.00  0.00    +0.000 A 
ATOM     24  C   UNL     1      -1.596  11.438  19.420  0.00  0.00    +0.000 A 
ENDBRANCH  17  19
ENDBRANCH  14  17
ENDBRANCH   6  11
BRANCH   8  25
ATOM     25  C   UNL     1       3.909   3.310  19.171  0.00  0.00    +0.000 C 
ATOM     26  C   UNL     1       3.274   2.807  20.458  0.00  0.00    +0.000 C 
BRANCH  25  27
ATOM     27  O   UNL     1       5.336   3.170  19.291  0.00  0.00    +0.000 OA
ATOM     28  H   UNL     1       5.721   3.847  18.701  0.00  0.00    +0.000 HD
ENDBRANCH  25  27
ENDBRANCH   8  25
BRANCH   1  29
ATOM     29  O   UNL     1       5.449   4.256  16.325  0.00  0.00    +0.000 OA
BRANCH  29  30
ATOM     30  C   UNL     1       6.823   4.447  15.963  0.00  0.00    +0.000 C 
BRANCH  30  31
ATOM     31  C   UNL     1       7.004   4.433  14.444  0.00  0.00    +0.000 C 
BRANCH  31  33
ATOM     32  C   UNL     1       6.247   3.481  12.438  0.00  0.00    +0.000 C 
ATOM     33  O   UNL     1       5.983   3.651  13.825  0.00  0.00    +0.000 OA
ENDBRANCH  31  33
ENDBRANCH  30  31
ENDBRANCH  29  30
ENDBRANCH   1  29
TORSDOF 9
ENDMDL
MODEL 7
REMARK VINA RESULT:      -6.7      3.469      8.906
REMARK  Name = 
REMARK  12 active torsions:
REMARK  status: ('A' for Active; 'I' for Inactive)
REMARK    1  A    between atoms: C_1  and  O_2
REMARK    2  A    between atoms: O_2  and  C_3
REMARK    3  A    between atoms: C_3  and  C_4
REMARK    4  A    between atoms: C_4  and  O_5
REMARK    5  A    between atoms: O_5  and  C_6
REMARK    6  A    between atoms: C_11  and  N_12
REMARK    7  A    between atoms: N_15  and  C_16
REMARK    8  A    between atoms: C_16  and  C_17
REMARK    9  A    between atoms: C_16  and  C_18
REMARK   10  A    between atoms: C_25  and  C_26
REMARK   11  A    between atoms: C_26  and  C_27
REMARK   12  A    between atoms: C_26  and  O_28
REMARK                            x       y       z     vdW  Elec       q    Type
REMARK                         _______ _______ _______ _____ _____    ______ ____
ROOT
ATOM      1  C   UNL     1       1.396  10.059  18.989  0.00  0.00    +0.000 A 
ATOM      2  N   UNL     1       1.694  10.149  17.690  0.00  0.00    +0.000 NA
ATOM      3  N   UNL     1       2.093   8.909  17.373  0.00  0.00    +0.000 N 
ATOM      4  C   UNL     1       2.092   8.036  18.430  0.00  0.00    +0.000 A 
ATOM      5  C   UNL     1       2.442   6.685  18.518  0.00  0.00    +0.000 A 
ATOM      6  C   UNL     1       2.303   6.124  19.777  0.00  0.00    +0.000 A 
ATOM      7  N   UNL     1       1.819   6.811  20.831  0.00  0.00    +0.000 NA
ATOM      8  C   UNL     1       1.467   8.133  20.750  0.00  0.00    +0.000 A 
ATOM      9  C   UNL     1       1.626   8.774  19.516  0.00  0.00    +0.000 A 
ATOM     10  H   UNL     1       2.338   8.720  16.409  0.00  0.00    +0.000 HD
ENDROOT
BRANCH   6  11
ATOM     11  N   UNL     1       2.679   4.788  19.980  0.00  0.00    +0.000 N 
ATOM     12  C   UNL     1       3.874   4.190  19.666  0.00  0.00    +0.000 C 
ATOM     13  O   UNL     1       4.052   3.005  19.927  0.00  0.00    +0.000 OA
ATOM     14  N   UNL     1       4.806   4.983  19.075  0.00  0.00    +0.000 N 
ATOM     15  H   UNL     1       2.011   4.155  20.393  0.00  0.00    +0.000 HD
ATOM     16  H   UNL     1       4.462   5.886  18.770  0.00  0.00    +0.000 HD
BRANCH  14  17
ATOM     17  C   UNL     1       6.127   4.598  18.636  0.00  0.00    +0.000 C 
ATOM     18  C   UNL     1       7.169   5.586  19.175  0.00  0.00    +0.000 C 
BRANCH  17  19
ATOM     19  C   UNL     1       6.149   4.495  17.118  0.00  0.00    +0.000 A 
ATOM     20  C   UNL     1       7.316   4.852  16.425  0.00  0.00    +0.000 A 
ATOM     21  C   UNL     1       7.343   4.862  15.028  0.00  0.00    +0.000 A 
ATOM     22  C   UNL     1       6.209   4.499  14.305  0.00  0.00    +0.000 A 
ATOM     23  C   UNL     1       5.064   4.084  14.975  0.00  0.00    +0.000 A 
ATOM     24  C   UNL     1       5.040   4.062  16.371  0.00  0.00    +0.000 A 
ENDBRANCH  17  19
ENDBRANCH  14  17
ENDBRANCH   6  11
BRANCH   8  25
ATOM     25  C   UNL     1       0.915   8.729  22.025  0.00  0.00    +0.000 C 
ATOM     26  C   UNL     1      -0.598   8.881  21.964  0.00  0.00    +0.000 C 
BRANCH  25  27
ATOM     27  O   UNL     1       1.489  10.032  22.232  0.00  0.00    +0.000 OA
ATOM     28  H   UNL     1       0.968  10.442  22.951  0.00  0.00    +0.000 HD
ENDBRANCH  25  27
ENDBRANCH   8  25
BRANCH   1  29
ATOM     29  O   UNL     1       0.901  11.125  19.652  0.00  0.00    +0.000 OA
BRANCH  29  30
ATOM     30  C   UNL     1       1.101  12.377  18.984  0.00  0.00    +0.000 C 
BRANCH  30  31
ATOM     31  C   UNL     1       2.152  13.228  19.700  0.00  0.00    +0.000 C 
BRANCH  31  33
ATOM     32  C   UNL     1       1.023  15.169  19.020  0.00  0.00    +0.000 C 
ATOM     33  O   UNL     1       2.278  14.502  19.071  0.00  0.00    +0.000 OA
ENDBRANCH  31  33
ENDBRANCH  30  31
ENDBRANCH  29  30
ENDBRANCH   1  29
TORSDOF 9
ENDMDL
MODEL 8
REMARK VINA RESULT:      -6.7      2.689      4.804
REMARK  Name = 
REMARK  12 active torsions:
REMARK  status: ('A' for Active; 'I' for Inactive)
REMARK    1  A    between atoms: C_1  and  O_2
REMARK    2  A    between atoms: O_2  and  C_3
REMARK    3  A    between atoms: C_3  and  C_4
REMARK    4  A    between atoms: C_4  and  O_5
REMARK    5  A    between atoms: O_5  and  C_6
REMARK    6  A    between atoms: C_11  and  N_12
REMARK    7  A    between atoms: N_15  and  C_16
REMARK    8  A    between atoms: C_16  and  C_17
REMARK    9  A    between atoms: C_16  and  C_18
REMARK   10  A    between atoms: C_25  and  C_26
REMARK   11  A    between atoms: C_26  and  C_27
REMARK   12  A    between atoms: C_26  and  O_28
REMARK                            x       y       z     vdW  Elec       q    Type
REMARK                         _______ _______ _______ _____ _____    ______ ____
ROOT
ATOM      1  C   UNL     1       2.723   4.156  17.976  0.00  0.00    +0.000 A 
ATOM      2  N   UNL     1       3.504   4.787  17.094  0.00  0.00    +0.000 NA
ATOM      3  N   UNL     1       3.590   6.031  17.587  0.00  0.00    +0.000 N 
ATOM      4  C   UNL     1       2.865   6.228  18.734  0.00  0.00    +0.000 A 
ATOM      5  C   UNL     1       2.686   7.359  19.537  0.00  0.00    +0.000 A 
ATOM      6  C   UNL     1       1.872   7.172  20.641  0.00  0.00    +0.000 A 
ATOM      7  N   UNL     1       1.331   5.977  20.953  0.00  0.00    +0.000 NA
ATOM      8  C   UNL     1       1.509   4.862  20.176  0.00  0.00    +0.000 A 
ATOM      9  C   UNL     1       2.284   4.993  19.018  0.00  0.00    +0.000 A 
ATOM     10  H   UNL     1       4.176   6.697  17.099  0.00  0.00    +0.000 HD
ENDROOT
BRANCH   6  11
ATOM     11  N   UNL     1       1.588   8.260  21.478  0.00  0.00    +0.000 N 
ATOM     12  C   UNL     1       0.889   9.401  21.172  0.00  0.00    +0.000 C 
ATOM     13  O   UNL     1       0.712  10.259  22.032  0.00  0.00    +0.000 OA
ATOM     14  N   UNL     1       0.423   9.497  19.900  0.00  0.00    +0.000 N 
ATOM     15  H   UNL     1       1.935   8.246  22.426  0.00  0.00    +0.000 HD
ATOM     16  H   UNL     1       0.787   8.799  19.262  0.00  0.00    +0.000 HD
BRANCH  14  17
ATOM     17  C   UNL     1      -0.323  10.592  19.324  0.00  0.00    +0.000 C 
ATOM     18  C   UNL     1      -1.059  10.122  18.063  0.00  0.00    +0.000 C 
BRANCH  17  19
ATOM     19  C   UNL     1       0.614  11.760  19.054  0.00  0.00    +0.000 A 
ATOM     20  C   UNL     1       0.229  13.050  19.451  0.00  0.00    +0.000 A 
ATOM     21  C   UNL     1       1.018  14.160  19.136  0.00  0.00    +0.000 A 
ATOM     22  C   UNL     1       2.210  13.993  18.434  0.00  0.00    +0.000 A 
ATOM     23  C   UNL     1       2.637  12.716  18.088  0.00  0.00    +0.000 A 
ATOM     24  C   UNL     1       1.855  11.606  18.413  0.00  0.00    +0.000 A 
ENDBRANCH  17  19
ENDBRANCH  14  17
ENDBRANCH   6  11
BRANCH   8  25
ATOM     25  C   UNL     1       0.853   3.604  20.698  0.00  0.00    +0.000 C 
ATOM     26  C   UNL     1       1.818   2.771  21.528  0.00  0.00    +0.000 C 
BRANCH  25  27
ATOM     27  O   UNL     1       0.404   2.803  19.592  0.00  0.00    +0.000 OA
ATOM     28  H   UNL     1       0.267   3.424  18.850  0.00  0.00    +0.000 HD
ENDBRANCH  25  27
ENDBRANCH   8  25
BRANCH   1  29
ATOM     29  O   UNL     1       2.452   2.841  17.830  0.00  0.00    +0.000 OA
BRANCH  29  30
ATOM     30  C   UNL     1       3.614   2.005  17.769  0.00  0.00    +0.000 C 
BRANCH  30  31
ATOM     31  C   UNL     1       3.868   1.309  19.107  0.00  0.00    +0.000 C 
BRANCH  31  33
ATOM     32  C   UNL     1       5.254   1.281  21.000  0.00  0.00    +0.000 C 
ATOM     33  O   UNL     1       4.818   2.042  19.880  0.00  0.00    +0.000 OA
ENDBRANCH  31  33
ENDBRANCH  30  31
ENDBRANCH  29  30
ENDBRANCH   1  29
TORSDOF 9
ENDMDL
MODEL 9
REMARK VINA RESULT:      -6.6      2.689      8.273
REMARK  Name = 
REMARK  12 active torsions:
REMARK  status: ('A' for Active; 'I' for Inactive)
REMARK    1  A    between atoms: C_1  and  O_2
REMARK    2  A    between atoms: O_2  and  C_3
REMARK    3  A    between atoms: C_3  and  C_4
REMARK    4  A    between atoms: C_4  and  O_5
REMARK    5  A    between atoms: O_5  and  C_6
REMARK    6  A    between atoms: C_11  and  N_12
REMARK    7  A    between atoms: N_15  and  C_16
REMARK    8  A    between atoms: C_16  and  C_17
REMARK    9  A    between atoms: C_16  and  C_18
REMARK   10  A    between atoms: C_25  and  C_26
REMARK   11  A    between atoms: C_26  and  C_27
REMARK   12  A    between atoms: C_26  and  O_28
REMARK                            x       y       z     vdW  Elec       q    Type
REMARK                         _______ _______ _______ _____ _____    ______ ____
ROOT
ATOM      1  C   UNL     1      -0.492  11.358  20.487  0.00  0.00    +0.000 A 
ATOM      2  N   UNL     1      -1.074  11.528  21.678  0.00  0.00    +0.000 NA
ATOM      3  N   UNL     1      -0.706  10.437  22.365  0.00  0.00    +0.000 N 
ATOM      4  C   UNL     1       0.063   9.559  21.646  0.00  0.00    +0.000 A 
ATOM      5  C   UNL     1       0.628   8.326  21.987  0.00  0.00    +0.000 A 
ATOM      6  C   UNL     1       1.362   7.719  20.981  0.00  0.00    +0.000 A 
ATOM      7  N   UNL     1       1.562   8.293  19.777  0.00  0.00    +0.000 NA
ATOM      8  C   UNL     1       1.017   9.505  19.440  0.00  0.00    +0.000 A 
ATOM      9  C   UNL     1       0.226  10.151  20.395  0.00  0.00    +0.000 A 
ATOM     10  H   UNL     1      -1.001  10.361  23.330  0.00  0.00    +0.000 HD
ENDROOT
BRANCH   6  11
ATOM     11  N   UNL     1       1.924   6.455  21.207  0.00  0.00    +0.000 N 
ATOM     12  C   UNL     1       2.255   5.499  20.279  0.00  0.00    +0.000 C 
ATOM     13  O   UNL     1       2.759   4.442  20.644  0.00  0.00    +0.000 OA
ATOM     14  N   UNL     1       1.995   5.806  18.982  0.00  0.00    +0.000 N 
ATOM     15  H   UNL     1       2.111   6.172  22.158  0.00  0.00    +0.000 HD
ATOM     16  H   UNL     1       1.427   6.635  18.848  0.00  0.00    +0.000 HD
BRANCH  14  17
ATOM     17  C   UNL     1       2.233   4.975  17.824  0.00  0.00    +0.000 C 
ATOM     18  C   UNL     1       1.793   3.535  18.111  0.00  0.00    +0.000 C 
BRANCH  17  19
ATOM     19  C   UNL     1       3.697   5.072  17.420  0.00  0.00    +0.000 A 
ATOM     20  C   UNL     1       4.293   3.990  16.753  0.00  0.00    +0.000 A 
ATOM     21  C   UNL     1       5.658   4.002  16.451  0.00  0.00    +0.000 A 
ATOM     22  C   UNL     1       6.440   5.101  16.797  0.00  0.00    +0.000 A 
ATOM     23  C   UNL     1       5.852   6.207  17.403  0.00  0.00    +0.000 A 
ATOM     24  C   UNL     1       4.487   6.201  17.693  0.00  0.00    +0.000 A 
ENDBRANCH  17  19
ENDBRANCH  14  17
ENDBRANCH   6  11
BRANCH   8  25
ATOM     25  C   UNL     1       1.375  10.006  18.058  0.00  0.00    +0.000 C 
ATOM     26  C   UNL     1       2.389   9.100  17.378  0.00  0.00    +0.000 C 
BRANCH  25  27
ATOM     27  O   UNL     1       1.946  11.322  18.159  0.00  0.00    +0.000 OA
ATOM     28  H   UNL     1       2.049  11.640  17.240  0.00  0.00    +0.000 HD
ENDBRANCH  25  27
ENDBRANCH   8  25
BRANCH   1  29
ATOM     29  O   UNL     1      -0.603  12.306  19.531  0.00  0.00    +0.000 OA
BRANCH  29  30
ATOM     30  C   UNL     1      -1.902  12.387  18.932  0.00  0.00    +0.000 C 
BRANCH  30  31
ATOM     31  C   UNL     1      -2.005  11.479  17.705  0.00  0.00    +0.000 C 
BRANCH  31  33
ATOM     32  C   UNL     1      -4.248  11.390  17.024  0.00  0.00    +0.000 C 
ATOM     33  O   UNL     1      -3.216  10.725  17.741  0.00  0.00    +0.000 OA
ENDBRANCH  31  33
ENDBRANCH  30  31
ENDBRANCH  29  30
ENDBRANCH   1  29
TORSDOF 9
ENDMDL
