MODEL 1
REMARK VINA RESULT:      -8.9      0.000      0.000
REMARK  Name = 
REMARK  9 active torsions:
REMARK  status: ('A' for Active; 'I' for Inactive)
REMARK    1  A    between atoms: C_1  and  C_2
REMARK    2  A    between atoms: C_4  and  N_5
REMARK    3  A    between atoms: C_7  and  C_8
REMARK    4  A    between atoms: C_9  and  C_10
REMARK    5  A    between atoms: C_10  and  N_11
REMARK    6  A    between atoms: C_12  and  C_14
REMARK    7  A    between atoms: N_17  and  C_18
REMARK    8  A    between atoms: C_18  and  C_19
REMARK    9  A    between atoms: C_22  and  C_23
REMARK                            x       y       z     vdW  Elec       q    Type
REMARK                         _______ _______ _______ _____ _____    ______ ____
ROOT
ATOM      1  C   UNL     1       2.056   7.320  19.902  0.00  0.00    +0.000 A 
ATOM      2  C   UNL     1       1.281   7.790  20.986  0.00  0.00    +0.000 A 
ATOM      3  N   UNL     1       0.863   9.050  20.818  0.00  0.00    +0.000 NA
ATOM      4  N   UNL     1       1.364   9.393  19.611  0.00  0.00    +0.000 N 
ATOM      5  C   UNL     1       2.083   8.389  19.027  0.00  0.00    +0.000 A 
ENDROOT
BRANCH   1   7
ATOM      6  N   UNL     1       3.992   6.019  19.464  0.00  0.00    +0.000 N 
ATOM      7  C   UNL     1       2.643   6.002  19.732  0.00  0.00    +0.000 C 
ATOM      8  O   UNL     1       1.985   4.975  19.846  0.00  0.00    +0.000 OA
ATOM      9  H   UNL     1       4.483   6.897  19.575  0.00  0.00    +0.000 HD
BRANCH   6  10
ATOM     10  C   UNL     1       4.776   4.815  19.349  0.00  0.00    +0.000 C 
BRANCH  10  18
ATOM     11  C   UNL     1       3.449   3.668  16.901  0.00  0.00    +0.000 C 
ATOM     12  C   UNL     1       4.861   4.187  16.880  0.00  0.00    +0.000 A 
ATOM     13  C   UNL     1       5.568   4.139  15.672  0.00  0.00    +0.000 A 
ATOM     14  C   UNL     1       6.864   4.614  15.617  0.00  0.00    +0.000 A 
ATOM     15  N   UNL     1       7.476   5.157  16.676  0.00  0.00    +0.000 NA
ATOM     16  C   UNL     1       6.799   5.220  17.854  0.00  0.00    +0.000 A 
ATOM     17  C   UNL     1       7.560   5.875  18.973  0.00  0.00    +0.000 C 
ATOM     18  C   UNL     1       5.490   4.735  18.019  0.00  0.00    +0.000 A 
BRANCH  14  19
ATOM     19  N   UNL     1       7.572   4.599  14.417  0.00  0.00    +0.000 N 
ATOM     20  H   UNL     1       8.572   4.633  14.566  0.00  0.00    +0.000 HD
ATOM     21  H   UNL     1       7.237   5.382  13.863  0.00  0.00    +0.000 HD
ENDBRANCH  14  19
ENDBRANCH  10  18
ENDBRANCH   6  10
ENDBRANCH   1   7
BRANCH   4  22
ATOM     22  C   UNL     1       1.001  10.661  18.993  0.00  0.00    +0.000 C 
BRANCH  22  23
ATOM     23  C   UNL     1      -0.489  10.839  18.839  0.00  0.00    +0.000 A 
ATOM     24  C   UNL     1      -1.175  11.872  19.494  0.00  0.00    +0.000 A 
ATOM     25  C   UNL     1      -2.533  12.098  19.229  0.00  0.00    +0.000 A 
ATOM     26  C   UNL     1      -3.221  11.310  18.295  0.00  0.00    +0.000 A 
ATOM     27  C   UNL     1      -2.525  10.301  17.629  0.00  0.00    +0.000 A 
ATOM     28  C   UNL     1      -1.190  10.033  17.933  0.00  0.00    +0.000 A 
BRANCH  26  29
ATOM     29  C   UNL     1      -4.622  11.690  17.945  0.00  0.00    +0.000 C 
ATOM     30  O   UNL     1      -5.018  11.375  16.826  0.00  0.00    +0.000 OA
ATOM     31  N   UNL     1      -5.452  12.334  18.861  0.00  0.00    +0.000 N 
ATOM     32  C   UNL     1      -5.096  12.986  20.126  0.00  0.00    +0.000 C 
ATOM     33  C   UNL     1      -5.966  12.415  21.253  0.00  0.00    +0.000 C 
ATOM     34  O   UNL     1      -7.362  12.594  20.958  0.00  0.00    +0.000 OA
ATOM     35  C   UNL     1      -7.719  11.946  19.723  0.00  0.00    +0.000 C 
ATOM     36  C   UNL     1      -6.878  12.471  18.550  0.00  0.00    +0.000 C 
ENDBRANCH  26  29
ENDBRANCH  22  23
ENDBRANCH   4  22
TORSDOF 7
ENDMDL
MODEL 2
REMARK VINA RESULT:      -8.8      2.112     11.796
REMARK  Name = 
REMARK  9 active torsions:
REMARK  status: ('A' for Active; 'I' for Inactive)
REMARK    1  A    between atoms: C_1  and  C_2
REMARK    2  A    between atoms: C_4  and  N_5
REMARK    3  A    between atoms: C_7  and  C_8
REMARK    4  A    between atoms: C_9  and  C_10
REMARK    5  A    between atoms: C_10  and  N_11
REMARK    6  A    between atoms: C_12  and  C_14
REMARK    7  A    between atoms: N_17  and  C_18
REMARK    8  A    between atoms: C_18  and  C_19
REMARK    9  A    between atoms: C_22  and  C_23
REMARK                            x       y       z     vdW  Elec       q    Type
REMARK                         _______ _______ _______ _____ _____    ______ ____
ROOT
ATOM      1  C   UNL     1      -3.095  11.211  17.907  0.00  0.00    +0.000 A 
ATOM      2  C   UNL     1      -2.609   9.977  17.419  0.00  0.00    +0.000 A 
ATOM      3  N   UNL     1      -1.288   9.841  17.574  0.00  0.00    +0.000 NA
ATOM      4  N   UNL     1      -0.918  10.992  18.176  0.00  0.00    +0.000 N 
ATOM      5  C   UNL     1      -1.966  11.840  18.396  0.00  0.00    +0.000 A 
ENDROOT
BRANCH   1   7
ATOM      6  N   UNL     1      -4.753  12.533  18.972  0.00  0.00    +0.000 N 
ATOM      7  C   UNL     1      -4.469  11.681  17.930  0.00  0.00    +0.000 C 
ATOM      8  O   UNL     1      -5.285  11.356  17.075  0.00  0.00    +0.000 OA
ATOM      9  H   UNL     1      -3.977  12.891  19.513  0.00  0.00    +0.000 HD
BRANCH   6  10
ATOM     10  C   UNL     1      -6.035  13.177  19.122  0.00  0.00    +0.000 C 
BRANCH  10  18
ATOM     11  C   UNL     1      -7.541  10.936  20.457  0.00  0.00    +0.000 C 
ATOM     12  C   UNL     1      -7.171  12.201  21.184  0.00  0.00    +0.000 A 
ATOM     13  C   UNL     1      -7.538  12.323  22.530  0.00  0.00    +0.000 A 
ATOM     14  C   UNL     1      -7.208  13.469  23.229  0.00  0.00    +0.000 A 
ATOM     15  N   UNL     1      -6.515  14.472  22.677  0.00  0.00    +0.000 NA
ATOM     16  C   UNL     1      -6.143  14.363  21.373  0.00  0.00    +0.000 A 
ATOM     17  C   UNL     1      -5.342  15.526  20.857  0.00  0.00    +0.000 C 
ATOM     18  C   UNL     1      -6.459  13.253  20.571  0.00  0.00    +0.000 A 
BRANCH  14  19
ATOM     19  N   UNL     1      -7.540  13.595  24.575  0.00  0.00    +0.000 N 
ATOM     20  H   UNL     1      -7.275  12.778  25.110  0.00  0.00    +0.000 HD
ATOM     21  H   UNL     1      -8.538  13.780  24.621  0.00  0.00    +0.000 HD
ENDBRANCH  14  19
ENDBRANCH  10  18
ENDBRANCH   6  10
ENDBRANCH   1   7
BRANCH   4  22
ATOM     22  C   UNL     1       0.446  11.172  18.655  0.00  0.00    +0.000 C 
BRANCH  22  23
ATOM     23  C   UNL     1       1.137   9.869  18.974  0.00  0.00    +0.000 A 
ATOM     24  C   UNL     1       1.001   9.256  20.228  0.00  0.00    +0.000 A 
ATOM     25  C   UNL     1       1.541   7.982  20.455  0.00  0.00    +0.000 A 
ATOM     26  C   UNL     1       2.208   7.295  19.431  0.00  0.00    +0.000 A 
ATOM     27  C   UNL     1       2.316   7.900  18.178  0.00  0.00    +0.000 A 
ATOM     28  C   UNL     1       1.833   9.192  17.966  0.00  0.00    +0.000 A 
BRANCH  26  29
ATOM     29  C   UNL     1       2.631   5.885  19.684  0.00  0.00    +0.000 C 
ATOM     30  O   UNL     1       1.958   5.240  20.484  0.00  0.00    +0.000 OA
ATOM     31  N   UNL     1       3.712   5.318  19.011  0.00  0.00    +0.000 N 
ATOM     32  C   UNL     1       4.754   5.980  18.219  0.00  0.00    +0.000 C 
ATOM     33  C   UNL     1       4.831   5.325  16.834  0.00  0.00    +0.000 C 
ATOM     34  O   UNL     1       5.095   3.916  16.953  0.00  0.00    +0.000 OA
ATOM     35  C   UNL     1       4.069   3.259  17.721  0.00  0.00    +0.000 C 
ATOM     36  C   UNL     1       3.936   3.873  19.122  0.00  0.00    +0.000 C 
ENDBRANCH  26  29
ENDBRANCH  22  23
ENDBRANCH   4  22
TORSDOF 7
ENDMDL
MODEL 3
REMARK VINA RESULT:      -8.7      2.430     11.635
REMARK  Name = 
REMARK  9 active torsions:
REMARK  status: ('A' for Active; 'I' for Inactive)
REMARK    1  A    between atoms: C_1  and  C_2
REMARK    2  A    between atoms: C_4  and  N_5
REMARK    3  A    between atoms: C_7  and  C_8
REMARK    4  A    between atoms: C_9  and  C_10
REMARK    5  A    between atoms: C_10  and  N_11
REMARK    6  A    between atoms: C_12  and  C_14
REMARK    7  A    between atoms: N_17  and  C_18
REMARK    8  A    between atoms: C_18  and  C_19
REMARK    9  A    between atoms: C_22  and  C_23
REMARK                            x       y       z     vdW  Elec       q    Type
REMARK                         _______ _______ _______ _____ _____    ______ ____
ROOT
ATOM      1  C   UNL     1      -2.553  10.950  17.957  0.00  0.00    +0.000 A 
ATOM      2  C   UNL     1      -1.912   9.952  17.186  0.00  0.00    +0.000 A 
ATOM      3  N   UNL     1      -0.685   9.661  17.631  0.00  0.00    +0.000 NA
ATOM      4  N   UNL     1      -0.535  10.469  18.704  0.00  0.00    +0.000 N 
ATOM      5  C   UNL     1      -1.627  11.256  18.936  0.00  0.00    +0.000 A 
ENDROOT
BRANCH   1   7
ATOM      6  N   UNL     1      -4.413  12.070  18.913  0.00  0.00    +0.000 N 
ATOM      7  C   UNL     1      -3.891  11.486  17.782  0.00  0.00    +0.000 C 
ATOM      8  O   UNL     1      -4.479  11.437  16.708  0.00  0.00    +0.000 OA
ATOM      9  H   UNL     1      -3.788  12.231  19.691  0.00  0.00    +0.000 HD
BRANCH   6  10
ATOM     10  C   UNL     1      -5.691  12.737  18.923  0.00  0.00    +0.000 C 
BRANCH  10  18
ATOM     11  C   UNL     1      -5.309  15.301  20.456  0.00  0.00    +0.000 C 
ATOM     12  C   UNL     1      -6.029  14.117  21.040  0.00  0.00    +0.000 A 
ATOM     13  C   UNL     1      -6.544  14.226  22.338  0.00  0.00    +0.000 A 
ATOM     14  C   UNL     1      -7.217  13.159  22.901  0.00  0.00    +0.000 A 
ATOM     15  N   UNL     1      -7.431  12.015  22.240  0.00  0.00    +0.000 NA
ATOM     16  C   UNL     1      -6.946  11.897  20.974  0.00  0.00    +0.000 A 
ATOM     17  C   UNL     1      -7.267  10.589  20.306  0.00  0.00    +0.000 C 
ATOM     18  C   UNL     1      -6.222  12.913  20.328  0.00  0.00    +0.000 A 
BRANCH  14  19
ATOM     19  N   UNL     1      -7.759  13.261  24.179  0.00  0.00    +0.000 N 
ATOM     20  H   UNL     1      -7.889  14.224  24.461  0.00  0.00    +0.000 HD
ATOM     21  H   UNL     1      -7.142  12.755  24.807  0.00  0.00    +0.000 HD
ENDBRANCH  14  19
ENDBRANCH  10  18
ENDBRANCH   6  10
ENDBRANCH   1   7
BRANCH   4  22
ATOM     22  C   UNL     1       0.632  10.345  19.567  0.00  0.00    +0.000 C 
BRANCH  22  23
ATOM     23  C   UNL     1       1.531   9.196  19.184  0.00  0.00    +0.000 A 
ATOM     24  C   UNL     1       1.660   8.064  20.001  0.00  0.00    +0.000 A 
ATOM     25  C   UNL     1       2.394   6.953  19.560  0.00  0.00    +0.000 A 
ATOM     26  C   UNL     1       2.994   6.949  18.293  0.00  0.00    +0.000 A 
ATOM     27  C   UNL     1       2.839   8.069  17.476  0.00  0.00    +0.000 A 
ATOM     28  C   UNL     1       2.161   9.200  17.934  0.00  0.00    +0.000 A 
BRANCH  26  29
ATOM     29  C   UNL     1       3.636   5.687  17.818  0.00  0.00    +0.000 C 
ATOM     30  O   UNL     1       4.835   5.739  17.559  0.00  0.00    +0.000 OA
ATOM     31  N   UNL     1       2.914   4.499  17.715  0.00  0.00    +0.000 N 
ATOM     32  C   UNL     1       1.462   4.296  17.751  0.00  0.00    +0.000 C 
ATOM     33  C   UNL     1       1.123   3.244  18.815  0.00  0.00    +0.000 C 
ATOM     34  O   UNL     1       1.806   2.008  18.542  0.00  0.00    +0.000 OA
ATOM     35  C   UNL     1       3.233   2.199  18.517  0.00  0.00    +0.000 C 
ATOM     36  C   UNL     1       3.641   3.248  17.473  0.00  0.00    +0.000 C 
ENDBRANCH  26  29
ENDBRANCH  22  23
ENDBRANCH   4  22
TORSDOF 7
ENDMDL
MODEL 4
REMARK VINA RESULT:      -8.5      0.821      1.046
REMARK  Name = 
REMARK  9 active torsions:
REMARK  status: ('A' for Active; 'I' for Inactive)
REMARK    1  A    between atoms: C_1  and  C_2
REMARK    2  A    between atoms: C_4  and  N_5
REMARK    3  A    between atoms: C_7  and  C_8
REMARK    4  A    between atoms: C_9  and  C_10
REMARK    5  A    between atoms: C_10  and  N_11
REMARK    6  A    between atoms: C_12  and  C_14
REMARK    7  A    between atoms: N_17  and  C_18
REMARK    8  A    between atoms: C_18  and  C_19
REMARK    9  A    between atoms: C_22  and  C_23
REMARK                            x       y       z     vdW  Elec       q    Type
REMARK                         _______ _______ _______ _____ _____    ______ ____
ROOT
ATOM      1  C   UNL     1       2.029   7.089  19.976  0.00  0.00    +0.000 A 
ATOM      2  C   UNL     1       1.275   7.293  21.154  0.00  0.00    +0.000 A 
ATOM      3  N   UNL     1       0.919   8.571  21.327  0.00  0.00    +0.000 NA
ATOM      4  N   UNL     1       1.438   9.196  20.248  0.00  0.00    +0.000 N 
ATOM      5  C   UNL     1       2.109   8.348  19.412  0.00  0.00    +0.000 A 
ENDROOT
BRANCH   1   7
ATOM      6  N   UNL     1       3.900   5.660  19.675  0.00  0.00    +0.000 N 
ATOM      7  C   UNL     1       2.553   5.836  19.460  0.00  0.00    +0.000 C 
ATOM      8  O   UNL     1       1.838   5.008  18.907  0.00  0.00    +0.000 OA
ATOM      9  H   UNL     1       4.365   6.305  20.302  0.00  0.00    +0.000 HD
BRANCH   6  10
ATOM     10  C   UNL     1       4.592   4.447  19.318  0.00  0.00    +0.000 C 
BRANCH  10  18
ATOM     11  C   UNL     1       3.474   3.582  16.658  0.00  0.00    +0.000 C 
ATOM     12  C   UNL     1       4.845   4.188  16.795  0.00  0.00    +0.000 A 
ATOM     13  C   UNL     1       5.613   4.360  15.636  0.00  0.00    +0.000 A 
ATOM     14  C   UNL     1       6.873   4.920  15.726  0.00  0.00    +0.000 A 
ATOM     15  N   UNL     1       7.391   5.342  16.885  0.00  0.00    +0.000 NA
ATOM     16  C   UNL     1       6.652   5.192  18.018  0.00  0.00    +0.000 A 
ATOM     17  C   UNL     1       7.307   5.726  19.261  0.00  0.00    +0.000 C 
ATOM     18  C   UNL     1       5.375   4.605  18.034  0.00  0.00    +0.000 A 
BRANCH  14  19
ATOM     19  N   UNL     1       7.638   5.123  14.580  0.00  0.00    +0.000 N 
ATOM     20  H   UNL     1       7.158   4.820  13.743  0.00  0.00    +0.000 HD
ATOM     21  H   UNL     1       8.518   4.634  14.718  0.00  0.00    +0.000 HD
ENDBRANCH  14  19
ENDBRANCH  10  18
ENDBRANCH   6  10
ENDBRANCH   1   7
BRANCH   4  22
ATOM     22  C   UNL     1       1.137  10.597  19.988  0.00  0.00    +0.000 C 
BRANCH  22  23
ATOM     23  C   UNL     1      -0.105  10.790  19.154  0.00  0.00    +0.000 A 
ATOM     24  C   UNL     1      -1.079   9.786  19.047  0.00  0.00    +0.000 A 
ATOM     25  C   UNL     1      -2.285  10.040  18.378  0.00  0.00    +0.000 A 
ATOM     26  C   UNL     1      -2.544  11.301  17.823  0.00  0.00    +0.000 A 
ATOM     27  C   UNL     1      -1.582  12.302  17.956  0.00  0.00    +0.000 A 
ATOM     28  C   UNL     1      -0.355  12.037  18.567  0.00  0.00    +0.000 A 
BRANCH  26  29
ATOM     29  C   UNL     1      -3.902  11.558  17.255  0.00  0.00    +0.000 C 
ATOM     30  O   UNL     1      -4.068  11.276  16.071  0.00  0.00    +0.000 OA
ATOM     31  N   UNL     1      -4.938  12.053  18.043  0.00  0.00    +0.000 N 
ATOM     32  C   UNL     1      -4.873  12.655  19.379  0.00  0.00    +0.000 C 
ATOM     33  C   UNL     1      -5.848  11.926  20.312  0.00  0.00    +0.000 C 
ATOM     34  O   UNL     1      -7.187  11.981  19.790  0.00  0.00    +0.000 OA
ATOM     35  C   UNL     1      -7.259  11.381  18.483  0.00  0.00    +0.000 C 
ATOM     36  C   UNL     1      -6.300  12.063  17.498  0.00  0.00    +0.000 C 
ENDBRANCH  26  29
ENDBRANCH  22  23
ENDBRANCH   4  22
TORSDOF 7
ENDMDL
MODEL 5
REMARK VINA RESULT:      -8.4      3.644      4.597
REMARK  Name = 
REMARK  9 active torsions:
REMARK  status: ('A' for Active; 'I' for Inactive)
REMARK    1  A    between atoms: C_1  and  C_2
REMARK    2  A    between atoms: C_4  and  N_5
REMARK    3  A    between atoms: C_7  and  C_8
REMARK    4  A    between atoms: C_9  and  C_10
REMARK    5  A    between atoms: C_10  and  N_11
REMARK    6  A    between atoms: C_12  and  C_14
REMARK    7  A    between atoms: N_17  and  C_18
REMARK    8  A    between atoms: C_18  and  C_19
REMARK    9  A    between atoms: C_22  and  C_23
REMARK                            x       y       z     vdW  Elec       q    Type
REMARK                         _______ _______ _______ _____ _____    ______ ____
ROOT
ATOM      1  C   UNL     1       2.123   7.594  19.527  0.00  0.00    +0.000 A 
ATOM      2  C   UNL     1       1.898   8.454  18.427  0.00  0.00    +0.000 A 
ATOM      3  N   UNL     1       1.125   9.500  18.735  0.00  0.00    +0.000 NA
ATOM      4  N   UNL     1       0.856   9.322  20.047  0.00  0.00    +0.000 N 
ATOM      5  C   UNL     1       1.433   8.196  20.562  0.00  0.00    +0.000 A 
ENDROOT
BRANCH   1   7
ATOM      6  N   UNL     1       4.100   6.474  18.842  0.00  0.00    +0.000 N 
ATOM      7  C   UNL     1       2.931   6.388  19.563  0.00  0.00    +0.000 C 
ATOM      8  O   UNL     1       2.599   5.398  20.205  0.00  0.00    +0.000 OA
ATOM      9  H   UNL     1       4.378   7.386  18.504  0.00  0.00    +0.000 HD
BRANCH   6  10
ATOM     10  C   UNL     1       5.080   5.417  18.823  0.00  0.00    +0.000 C 
BRANCH  10  18
ATOM     11  C   UNL     1       3.719   3.575  16.867  0.00  0.00    +0.000 C 
ATOM     12  C   UNL     1       4.986   4.312  16.528  0.00  0.00    +0.000 A 
ATOM     13  C   UNL     1       5.535   4.135  15.252  0.00  0.00    +0.000 A 
ATOM     14  C   UNL     1       6.694   4.803  14.905  0.00  0.00    +0.000 A 
ATOM     15  N   UNL     1       7.311   5.651  15.737  0.00  0.00    +0.000 NA
ATOM     16  C   UNL     1       6.783   5.842  16.977  0.00  0.00    +0.000 A 
ATOM     17  C   UNL     1       7.529   6.836  17.822  0.00  0.00    +0.000 C 
ATOM     18  C   UNL     1       5.627   5.184  17.433  0.00  0.00    +0.000 A 
BRANCH  14  19
ATOM     19  N   UNL     1       7.239   4.659  13.632  0.00  0.00    +0.000 N 
ATOM     20  H   UNL     1       7.378   5.552  13.176  0.00  0.00    +0.000 HD
ATOM     21  H   UNL     1       6.616   4.051  13.107  0.00  0.00    +0.000 HD
ENDBRANCH  14  19
ENDBRANCH  10  18
ENDBRANCH   6  10
ENDBRANCH   1   7
BRANCH   4  22
ATOM     22  C   UNL     1       0.151  10.347  20.805  0.00  0.00    +0.000 C 
BRANCH  22  23
ATOM     23  C   UNL     1       0.459  11.747  20.334  0.00  0.00    +0.000 A 
ATOM     24  C   UNL     1       1.591  12.439  20.787  0.00  0.00    +0.000 A 
ATOM     25  C   UNL     1       1.928  13.683  20.233  0.00  0.00    +0.000 A 
ATOM     26  C   UNL     1       1.152  14.244  19.209  0.00  0.00    +0.000 A 
ATOM     27  C   UNL     1       0.042  13.537  18.746  0.00  0.00    +0.000 A 
ATOM     28  C   UNL     1      -0.332  12.328  19.336  0.00  0.00    +0.000 A 
BRANCH  26  29
ATOM     29  C   UNL     1       1.640  15.496  18.556  0.00  0.00    +0.000 C 
ATOM     30  O   UNL     1       2.702  15.422  17.943  0.00  0.00    +0.000 OA
ATOM     31  N   UNL     1       0.903  16.678  18.607  0.00  0.00    +0.000 N 
ATOM     32  C   UNL     1      -0.237  17.016  19.465  0.00  0.00    +0.000 C 
ATOM     33  C   UNL     1      -1.402  17.500  18.592  0.00  0.00    +0.000 C 
ATOM     34  O   UNL     1      -1.005  18.631  17.797  0.00  0.00    +0.000 OA
ATOM     35  C   UNL     1       0.107  18.300  16.944  0.00  0.00    +0.000 C 
ATOM     36  C   UNL     1       1.310  17.802  17.758  0.00  0.00    +0.000 C 
ENDBRANCH  26  29
ENDBRANCH  22  23
ENDBRANCH   4  22
TORSDOF 7
ENDMDL
MODEL 6
REMARK VINA RESULT:      -8.4      4.289      6.525
REMARK  Name = 
REMARK  9 active torsions:
REMARK  status: ('A' for Active; 'I' for Inactive)
REMARK    1  A    between atoms: C_1  and  C_2
REMARK    2  A    between atoms: C_4  and  N_5
REMARK    3  A    between atoms: C_7  and  C_8
REMARK    4  A    between atoms: C_9  and  C_10
REMARK    5  A    between atoms: C_10  and  N_11
REMARK    6  A    between atoms: C_12  and  C_14
REMARK    7  A    between atoms: N_17  and  C_18
REMARK    8  A    between atoms: C_18  and  C_19
REMARK    9  A    between atoms: C_22  and  C_23
REMARK                            x       y       z     vdW  Elec       q    Type
REMARK                         _______ _______ _______ _____ _____    ______ ____
ROOT
ATOM      1  C   UNL     1       2.170   7.295  19.889  0.00  0.00    +0.000 A 
ATOM      2  C   UNL     1       1.395   7.674  21.009  0.00  0.00    +0.000 A 
ATOM      3  N   UNL     1       0.796   8.859  20.849  0.00  0.00    +0.000 NA
ATOM      4  N   UNL     1       1.177   9.244  19.611  0.00  0.00    +0.000 N 
ATOM      5  C   UNL     1       1.998   8.338  19.000  0.00  0.00    +0.000 A 
ENDROOT
BRANCH   1   7
ATOM      6  N   UNL     1       4.202   6.264  19.226  0.00  0.00    +0.000 N 
ATOM      7  C   UNL     1       2.927   6.069  19.704  0.00  0.00    +0.000 C 
ATOM      8  O   UNL     1       2.464   4.968  19.979  0.00  0.00    +0.000 OA
ATOM      9  H   UNL     1       4.558   7.211  19.209  0.00  0.00    +0.000 HD
BRANCH   6  10
ATOM     10  C   UNL     1       5.142   5.184  19.057  0.00  0.00    +0.000 C 
BRANCH  10  18
ATOM     11  C   UNL     1       3.741   3.646  16.879  0.00  0.00    +0.000 C 
ATOM     12  C   UNL     1       5.023   4.395  16.636  0.00  0.00    +0.000 A 
ATOM     13  C   UNL     1       5.568   4.377  15.346  0.00  0.00    +0.000 A 
ATOM     14  C   UNL     1       6.741   5.061  15.088  0.00  0.00    +0.000 A 
ATOM     15  N   UNL     1       7.376   5.777  16.023  0.00  0.00    +0.000 NA
ATOM     16  C   UNL     1       6.853   5.813  17.278  0.00  0.00    +0.000 A 
ATOM     17  C   UNL     1       7.620   6.671  18.246  0.00  0.00    +0.000 C 
ATOM     18  C   UNL     1       5.683   5.126  17.647  0.00  0.00    +0.000 A 
BRANCH  14  19
ATOM     19  N   UNL     1       7.282   5.076  13.805  0.00  0.00    +0.000 N 
ATOM     20  H   UNL     1       8.256   5.347  13.806  0.00  0.00    +0.000 HD
ATOM     21  H   UNL     1       6.708   5.701  13.246  0.00  0.00    +0.000 HD
ENDBRANCH  14  19
ENDBRANCH  10  18
ENDBRANCH   6  10
ENDBRANCH   1   7
BRANCH   4  22
ATOM     22  C   UNL     1       0.606  10.434  18.997  0.00  0.00    +0.000 C 
BRANCH  22  23
ATOM     23  C   UNL     1       1.488  11.651  19.134  0.00  0.00    +0.000 A 
ATOM     24  C   UNL     1       2.162  12.195  18.031  0.00  0.00    +0.000 A 
ATOM     25  C   UNL     1       2.864  13.402  18.157  0.00  0.00    +0.000 A 
ATOM     26  C   UNL     1       2.891  14.091  19.378  0.00  0.00    +0.000 A 
ATOM     27  C   UNL     1       2.196  13.557  20.463  0.00  0.00    +0.000 A 
ATOM     28  C   UNL     1       1.546  12.326  20.359  0.00  0.00    +0.000 A 
BRANCH  26  29
ATOM     29  C   UNL     1       3.528  15.441  19.414  0.00  0.00    +0.000 C 
ATOM     30  O   UNL     1       2.946  16.311  20.056  0.00  0.00    +0.000 OA
ATOM     31  N   UNL     1       4.746  15.688  18.784  0.00  0.00    +0.000 N 
ATOM     32  C   UNL     1       5.457  14.866  17.798  0.00  0.00    +0.000 C 
ATOM     33  C   UNL     1       6.893  14.623  18.280  0.00  0.00    +0.000 C 
ATOM     34  O   UNL     1       7.574  15.872  18.493  0.00  0.00    +0.000 OA
ATOM     35  C   UNL     1       6.887  16.678  19.468  0.00  0.00    +0.000 C 
ATOM     36  C   UNL     1       5.437  16.954  19.047  0.00  0.00    +0.000 C 
ENDBRANCH  26  29
ENDBRANCH  22  23
ENDBRANCH   4  22
TORSDOF 7
ENDMDL
MODEL 7
REMARK VINA RESULT:      -8.4      0.628      1.779
REMARK  Name = 
REMARK  9 active torsions:
REMARK  status: ('A' for Active; 'I' for Inactive)
REMARK    1  A    between atoms: C_1  and  C_2
REMARK    2  A    between atoms: C_4  and  N_5
REMARK    3  A    between atoms: C_7  and  C_8
REMARK    4  A    between atoms: C_9  and  C_10
REMARK    5  A    between atoms: C_10  and  N_11
REMARK    6  A    between atoms: C_12  and  C_14
REMARK    7  A    between atoms: N_17  and  C_18
REMARK    8  A    between atoms: C_18  and  C_19
REMARK    9  A    between atoms: C_22  and  C_23
REMARK                            x       y       z     vdW  Elec       q    Type
REMARK                         _______ _______ _______ _____ _____    ______ ____
ROOT
ATOM      1  C   UNL     1       1.770   7.518  20.060  0.00  0.00    +0.000 A 
ATOM      2  C   UNL     1       1.071   7.998  21.191  0.00  0.00    +0.000 A 
ATOM      3  N   UNL     1       0.754   9.294  21.093  0.00  0.00    +0.000 NA
ATOM      4  N   UNL     1       1.243   9.652  19.886  0.00  0.00    +0.000 N 
ATOM      5  C   UNL     1       1.858   8.622  19.232  0.00  0.00    +0.000 A 
ENDROOT
BRANCH   1   7
ATOM      6  N   UNL     1       3.610   6.053  19.741  0.00  0.00    +0.000 N 
ATOM      7  C   UNL     1       2.241   6.166  19.812  0.00  0.00    +0.000 C 
ATOM      8  O   UNL     1       1.473   5.217  19.703  0.00  0.00    +0.000 OA
ATOM      9  H   UNL     1       4.164   6.850  20.029  0.00  0.00    +0.000 HD
BRANCH   6  10
ATOM     10  C   UNL     1       4.278   4.785  19.589  0.00  0.00    +0.000 C 
BRANCH  10  18
ATOM     11  C   UNL     1       7.168   5.632  19.617  0.00  0.00    +0.000 C 
ATOM     12  C   UNL     1       6.484   5.153  18.366  0.00  0.00    +0.000 A 
ATOM     13  C   UNL     1       7.230   5.095  17.182  0.00  0.00    +0.000 A 
ATOM     14  C   UNL     1       6.634   4.653  16.016  0.00  0.00    +0.000 A 
ATOM     15  N   UNL     1       5.361   4.243  15.972  0.00  0.00    +0.000 NA
ATOM     16  C   UNL     1       4.626   4.284  17.115  0.00  0.00    +0.000 A 
ATOM     17  C   UNL     1       3.220   3.771  16.969  0.00  0.00    +0.000 C 
ATOM     18  C   UNL     1       5.133   4.746  18.342  0.00  0.00    +0.000 A 
BRANCH  14  19
ATOM     19  N   UNL     1       7.369   4.563  14.837  0.00  0.00    +0.000 N 
ATOM     20  H   UNL     1       8.092   5.268  14.786  0.00  0.00    +0.000 HD
ATOM     21  H   UNL     1       6.709   4.630  14.067  0.00  0.00    +0.000 HD
ENDBRANCH  14  19
ENDBRANCH  10  18
ENDBRANCH   6  10
ENDBRANCH   1   7
BRANCH   4  22
ATOM     22  C   UNL     1       0.966  10.972  19.337  0.00  0.00    +0.000 C 
BRANCH  22  23
ATOM     23  C   UNL     1      -0.465  11.139  18.892  0.00  0.00    +0.000 A 
ATOM     24  C   UNL     1      -1.079  10.213  18.037  0.00  0.00    +0.000 A 
ATOM     25  C   UNL     1      -2.448  10.317  17.747  0.00  0.00    +0.000 A 
ATOM     26  C   UNL     1      -3.225  11.334  18.319  0.00  0.00    +0.000 A 
ATOM     27  C   UNL     1      -2.612  12.236  19.188  0.00  0.00    +0.000 A 
ATOM     28  C   UNL     1      -1.239  12.174  19.432  0.00  0.00    +0.000 A 
BRANCH  26  29
ATOM     29  C   UNL     1      -4.701  11.308  18.093  0.00  0.00    +0.000 C 
ATOM     30  O   UNL     1      -5.104  10.642  17.143  0.00  0.00    +0.000 OA
ATOM     31  N   UNL     1      -5.579  11.973  18.946  0.00  0.00    +0.000 N 
ATOM     32  C   UNL     1      -5.284  12.985  19.966  0.00  0.00    +0.000 C 
ATOM     33  C   UNL     1      -5.891  12.548  21.305  0.00  0.00    +0.000 C 
ATOM     34  O   UNL     1      -7.310  12.347  21.177  0.00  0.00    +0.000 OA
ATOM     35  C   UNL     1      -7.605  11.346  20.186  0.00  0.00    +0.000 C 
ATOM     36  C   UNL     1      -7.019  11.721  18.817  0.00  0.00    +0.000 C 
ENDBRANCH  26  29
ENDBRANCH  22  23
ENDBRANCH   4  22
TORSDOF 7
ENDMDL
MODEL 8
REMARK VINA RESULT:      -8.3      2.810      3.520
REMARK  Name = 
REMARK  9 active torsions:
REMARK  status: ('A' for Active; 'I' for Inactive)
REMARK    1  A    between atoms: C_1  and  C_2
REMARK    2  A    between atoms: C_4  and  N_5
REMARK    3  A    between atoms: C_7  and  C_8
REMARK    4  A    between atoms: C_9  and  C_10
REMARK    5  A    between atoms: C_10  and  N_11
REMARK    6  A    between atoms: C_12  and  C_14
REMARK    7  A    between atoms: N_17  and  C_18
REMARK    8  A    between atoms: C_18  and  C_19
REMARK    9  A    between atoms: C_22  and  C_23
REMARK                            x       y       z     vdW  Elec       q    Type
REMARK                         _______ _______ _______ _____ _____    ______ ____
ROOT
ATOM      1  C   UNL     1       2.185   7.296  19.616  0.00  0.00    +0.000 A 
ATOM      2  C   UNL     1       1.430   7.648  20.758  0.00  0.00    +0.000 A 
ATOM      3  N   UNL     1       0.887   8.866  20.667  0.00  0.00    +0.000 NA
ATOM      4  N   UNL     1       1.286   9.302  19.451  0.00  0.00    +0.000 N 
ATOM      5  C   UNL     1       2.063   8.395  18.788  0.00  0.00    +0.000 A 
ENDROOT
BRANCH   1   7
ATOM      6  N   UNL     1       4.231   6.198  19.125  0.00  0.00    +0.000 N 
ATOM      7  C   UNL     1       2.884   6.048  19.361  0.00  0.00    +0.000 C 
ATOM      8  O   UNL     1       2.312   4.964  19.381  0.00  0.00    +0.000 OA
ATOM      9  H   UNL     1       4.644   7.101  19.314  0.00  0.00    +0.000 HD
BRANCH   6  10
ATOM     10  C   UNL     1       5.115   5.075  18.936  0.00  0.00    +0.000 C 
BRANCH  10  18
ATOM     11  C   UNL     1       3.797   3.539  16.706  0.00  0.00    +0.000 C 
ATOM     12  C   UNL     1       5.071   4.313  16.504  0.00  0.00    +0.000 A 
ATOM     13  C   UNL     1       5.649   4.320  15.228  0.00  0.00    +0.000 A 
ATOM     14  C   UNL     1       6.815   5.027  15.007  0.00  0.00    +0.000 A 
ATOM     15  N   UNL     1       7.413   5.744  15.966  0.00  0.00    +0.000 NA
ATOM     16  C   UNL     1       6.859   5.756  17.208  0.00  0.00    +0.000 A 
ATOM     17  C   UNL     1       7.586   6.615  18.205  0.00  0.00    +0.000 C 
ATOM     18  C   UNL     1       5.693   5.043  17.540  0.00  0.00    +0.000 A 
BRANCH  14  19
ATOM     19  N   UNL     1       7.387   5.068  13.738  0.00  0.00    +0.000 N 
ATOM     20  H   UNL     1       7.246   5.962  13.286  0.00  0.00    +0.000 HD
ATOM     21  H   UNL     1       6.989   4.299  13.206  0.00  0.00    +0.000 HD
ENDBRANCH  14  19
ENDBRANCH  10  18
ENDBRANCH   6  10
ENDBRANCH   1   7
BRANCH   4  22
ATOM     22  C   UNL     1       0.772  10.551  18.907  0.00  0.00    +0.000 C 
BRANCH  22  23
ATOM     23  C   UNL     1      -0.126  11.290  19.869  0.00  0.00    +0.000 A 
ATOM     24  C   UNL     1      -1.509  11.382  19.655  0.00  0.00    +0.000 A 
ATOM     25  C   UNL     1      -2.339  11.955  20.630  0.00  0.00    +0.000 A 
ATOM     26  C   UNL     1      -1.804  12.428  21.837  0.00  0.00    +0.000 A 
ATOM     27  C   UNL     1      -0.430  12.309  22.052  0.00  0.00    +0.000 A 
ATOM     28  C   UNL     1       0.407  11.795  21.061  0.00  0.00    +0.000 A 
BRANCH  26  29
ATOM     29  C   UNL     1      -2.749  12.891  22.896  0.00  0.00    +0.000 C 
ATOM     30  O   UNL     1      -3.399  12.025  23.475  0.00  0.00    +0.000 OA
ATOM     31  N   UNL     1      -2.855  14.238  23.238  0.00  0.00    +0.000 N 
ATOM     32  C   UNL     1      -2.351  15.414  22.520  0.00  0.00    +0.000 C 
ATOM     33  C   UNL     1      -1.506  16.267  23.473  0.00  0.00    +0.000 C 
ATOM     34  O   UNL     1      -2.277  16.660  24.622  0.00  0.00    +0.000 OA
ATOM     35  C   UNL     1      -2.764  15.509  25.338  0.00  0.00    +0.000 C 
ATOM     36  C   UNL     1      -3.618  14.607  24.435  0.00  0.00    +0.000 C 
ENDBRANCH  26  29
ENDBRANCH  22  23
ENDBRANCH   4  22
TORSDOF 7
ENDMDL
MODEL 9
REMARK VINA RESULT:      -8.3      2.677      3.665
REMARK  Name = 
REMARK  9 active torsions:
REMARK  status: ('A' for Active; 'I' for Inactive)
REMARK    1  A    between atoms: C_1  and  C_2
REMARK    2  A    between atoms: C_4  and  N_5
REMARK    3  A    between atoms: C_7  and  C_8
REMARK    4  A    between atoms: C_9  and  C_10
REMARK    5  A    between atoms: C_10  and  N_11
REMARK    6  A    between atoms: C_12  and  C_14
REMARK    7  A    between atoms: N_17  and  C_18
REMARK    8  A    between atoms: C_18  and  C_19
REMARK    9  A    between atoms: C_22  and  C_23
REMARK                            x       y       z     vdW  Elec       q    Type
REMARK                         _______ _______ _______ _____ _____    ______ ____
ROOT
ATOM      1  C   UNL     1       1.582   9.130  19.533  0.00  0.00    +0.000 A 
ATOM      2  C   UNL     1       1.241   8.741  20.848  0.00  0.00    +0.000 A 
ATOM      3  N   UNL     1       0.861   9.771  21.612  0.00  0.00    +0.000 NA
ATOM      4  N   UNL     1       0.946  10.833  20.781  0.00  0.00    +0.000 N 
ATOM      5  C   UNL     1       1.372  10.496  19.527  0.00  0.00    +0.000 A 
ENDROOT
BRANCH   1   7
ATOM      6  N   UNL     1       2.307   6.990  18.808  0.00  0.00    +0.000 N 
ATOM      7  C   UNL     1       2.005   8.279  18.434  0.00  0.00    +0.000 C 
ATOM      8  O   UNL     1       2.059   8.684  17.278  0.00  0.00    +0.000 OA
ATOM      9  H   UNL     1       2.054   6.699  19.743  0.00  0.00    +0.000 HD
BRANCH   6  10
ATOM     10  C   UNL     1       2.663   5.969  17.855  0.00  0.00    +0.000 C 
BRANCH  10  18
ATOM     11  C   UNL     1       1.042   3.598  18.764  0.00  0.00    +0.000 C 
ATOM     12  C   UNL     1       2.533   3.673  18.954  0.00  0.00    +0.000 A 
ATOM     13  C   UNL     1       3.179   2.591  19.567  0.00  0.00    +0.000 A 
ATOM     14  C   UNL     1       4.548   2.625  19.750  0.00  0.00    +0.000 A 
ATOM     15  N   UNL     1       5.304   3.648  19.334  0.00  0.00    +0.000 NA
ATOM     16  C   UNL     1       4.692   4.701  18.728  0.00  0.00    +0.000 A 
ATOM     17  C   UNL     1       5.630   5.782  18.268  0.00  0.00    +0.000 C 
ATOM     18  C   UNL     1       3.303   4.774  18.525  0.00  0.00    +0.000 A 
BRANCH  14  19
ATOM     19  N   UNL     1       5.209   1.546  20.333  0.00  0.00    +0.000 N 
ATOM     20  H   UNL     1       5.924   1.167  19.726  0.00  0.00    +0.000 HD
ATOM     21  H   UNL     1       4.502   0.857  20.574  0.00  0.00    +0.000 HD
ENDBRANCH  14  19
ENDBRANCH  10  18
ENDBRANCH   6  10
ENDBRANCH   1   7
BRANCH   4  22
ATOM     22  C   UNL     1       0.467  12.143  21.201  0.00  0.00    +0.000 C 
BRANCH  22  23
ATOM     23  C   UNL     1      -1.031  12.199  21.365  0.00  0.00    +0.000 A 
ATOM     24  C   UNL     1      -1.636  12.065  22.623  0.00  0.00    +0.000 A 
ATOM     25  C   UNL     1      -3.018  12.256  22.768  0.00  0.00    +0.000 A 
ATOM     26  C   UNL     1      -3.812  12.600  21.664  0.00  0.00    +0.000 A 
ATOM     27  C   UNL     1      -3.199  12.757  20.421  0.00  0.00    +0.000 A 
ATOM     28  C   UNL     1      -1.835  12.509  20.261  0.00  0.00    +0.000 A 
BRANCH  26  29
ATOM     29  C   UNL     1      -5.248  12.935  21.904  0.00  0.00    +0.000 C 
ATOM     30  O   UNL     1      -6.038  11.996  21.933  0.00  0.00    +0.000 OA
ATOM     31  N   UNL     1      -5.661  14.248  22.124  0.00  0.00    +0.000 N 
ATOM     32  C   UNL     1      -4.924  15.496  21.899  0.00  0.00    +0.000 C 
ATOM     33  C   UNL     1      -4.936  16.332  23.185  0.00  0.00    +0.000 C 
ATOM     34  O   UNL     1      -6.286  16.601  23.603  0.00  0.00    +0.000 OA
ATOM     35  C   UNL     1      -7.010  15.379  23.836  0.00  0.00    +0.000 C 
ATOM     36  C   UNL     1      -7.032  14.491  22.585  0.00  0.00    +0.000 C 
ENDBRANCH  26  29
ENDBRANCH  22  23
ENDBRANCH   4  22
TORSDOF 7
ENDMDL
