MODEL 1
REMARK VINA RESULT:      -7.1      0.000      0.000
REMARK  Name = 
REMARK  2 active torsions:
REMARK  status: ('A' for Active; 'I' for Inactive)
REMARK    1  A    between atoms: C_1  and  N_2
REMARK    2  A    between atoms: N_5  and  C_6
REMARK                            x       y       z     vdW  Elec       q    Type
REMARK                         _______ _______ _______ _____ _____    ______ ____
ROOT
ATOM      1  C   UNL     1       4.931   3.688  17.548  0.00  0.00    +0.000 C 
ATOM      2  C   UNL     1       5.057   4.537  18.856  0.00  0.00    +0.000 C 
ATOM      3  C   UNL     1       4.199   5.774  18.935  0.00  0.00    +0.000 A 
ATOM      4  C   UNL     1       3.242   5.927  19.953  0.00  0.00    +0.000 A 
ATOM      5  C   UNL     1       2.278   6.933  19.873  0.00  0.00    +0.000 A 
ATOM      6  C   UNL     1       2.281   7.802  18.787  0.00  0.00    +0.000 A 
ATOM      7 CL   UNL     1       0.989   8.917  18.577  0.00  0.00    +0.000 Cl
ATOM      8  C   UNL     1       3.321   7.764  17.867  0.00  0.00    +0.000 A 
ATOM      9  C   UNL     1       4.309   6.782  17.969  0.00  0.00    +0.000 A 
ATOM     10  S   UNL     1       5.799   6.987  17.044  0.00  0.00    +0.000 S 
ATOM     11  C   UNL     1       5.866   5.588  15.957  0.00  0.00    +0.000 A 
ATOM     12  C   UNL     1       6.411   5.919  14.694  0.00  0.00    +0.000 A 
ATOM     13  C   UNL     1       6.608   4.961  13.704  0.00  0.00    +0.000 A 
ATOM     14  C   UNL     1       6.278   3.654  13.976  0.00  0.00    +0.000 A 
ATOM     15  F   UNL     1       6.476   2.712  13.042  0.00  0.00    +0.000 F 
ATOM     16  C   UNL     1       5.745   3.297  15.210  0.00  0.00    +0.000 A 
ATOM     17  C   UNL     1       5.517   4.253  16.238  0.00  0.00    +0.000 A 
ENDROOT
BRANCH   1  22
ATOM     18  C   UNL     1       0.516   3.220  20.174  0.00  0.00    +0.000 C 
ATOM     19  N   UNL     1       1.204   2.784  18.962  0.00  0.00    +0.000 NA
ATOM     20  C   UNL     1       2.451   2.081  19.307  0.00  0.00    +0.000 C 
ATOM     21  C   UNL     1       3.357   1.791  18.097  0.00  0.00    +0.000 C 
ATOM     22  N   UNL     1       3.669   2.958  17.274  0.00  0.00    +0.000 NA
ATOM     23  C   UNL     1       2.459   3.698  16.917  0.00  0.00    +0.000 C 
ATOM     24  C   UNL     1       1.425   3.914  18.047  0.00  0.00    +0.000 C 
ENDBRANCH   1  22
TORSDOF 1
ENDMDL
MODEL 2
REMARK VINA RESULT:      -6.4      7.758     10.879
REMARK  Name = 
REMARK  2 active torsions:
REMARK  status: ('A' for Active; 'I' for Inactive)
REMARK    1  A    between atoms: C_1  and  N_2
REMARK    2  A    between atoms: N_5  and  C_6
REMARK                            x       y       z     vdW  Elec       q    Type
REMARK                         _______ _______ _______ _____ _____    ______ ____
ROOT
ATOM      1  C   UNL     1      -2.711  12.135  19.024  0.00  0.00    +0.000 C 
ATOM      2  C   UNL     1      -1.193  12.295  18.679  0.00  0.00    +0.000 C 
ATOM      3  C   UNL     1      -0.267  11.247  19.242  0.00  0.00    +0.000 A 
ATOM      4  C   UNL     1       0.510  10.438  18.396  0.00  0.00    +0.000 A 
ATOM      5  C   UNL     1       1.156   9.305  18.895  0.00  0.00    +0.000 A 
ATOM      6  C   UNL     1       1.045   8.992  20.245  0.00  0.00    +0.000 A 
ATOM      7 CL   UNL     1       1.671   7.502  20.834  0.00  0.00    +0.000 Cl
ATOM      8  C   UNL     1       0.422   9.875  21.117  0.00  0.00    +0.000 A 
ATOM      9  C   UNL     1      -0.191  11.030  20.624  0.00  0.00    +0.000 A 
ATOM     10  S   UNL     1      -0.626  12.306  21.764  0.00  0.00    +0.000 S 
ATOM     11  C   UNL     1      -2.386  12.466  21.630  0.00  0.00    +0.000 A 
ATOM     12  C   UNL     1      -2.993  12.750  22.877  0.00  0.00    +0.000 A 
ATOM     13  C   UNL     1      -4.361  12.971  22.996  0.00  0.00    +0.000 A 
ATOM     14  C   UNL     1      -5.137  12.928  21.861  0.00  0.00    +0.000 A 
ATOM     15  F   UNL     1      -6.456  13.156  21.952  0.00  0.00    +0.000 F 
ATOM     16  C   UNL     1      -4.569  12.655  20.622  0.00  0.00    +0.000 A 
ATOM     17  C   UNL     1      -3.178  12.411  20.467  0.00  0.00    +0.000 A 
ENDROOT
BRANCH   1  22
ATOM     18  C   UNL     1      -3.039  10.214  14.247  0.00  0.00    +0.000 C 
ATOM     19  N   UNL     1      -3.552  10.058  15.605  0.00  0.00    +0.000 NA
ATOM     20  C   UNL     1      -4.216  11.295  16.047  0.00  0.00    +0.000 C 
ATOM     21  C   UNL     1      -4.581  11.304  17.543  0.00  0.00    +0.000 C 
ATOM     22  N   UNL     1      -3.472  11.001  18.444  0.00  0.00    +0.000 NA
ATOM     23  C   UNL     1      -2.771   9.784  18.036  0.00  0.00    +0.000 C 
ATOM     24  C   UNL     1      -2.486   9.627  16.524  0.00  0.00    +0.000 C 
ENDBRANCH   1  22
TORSDOF 1
ENDMDL
MODEL 3
REMARK VINA RESULT:      -5.8      8.474     11.081
REMARK  Name = 
REMARK  2 active torsions:
REMARK  status: ('A' for Active; 'I' for Inactive)
REMARK    1  A    between atoms: C_1  and  N_2
REMARK    2  A    between atoms: N_5  and  C_6
REMARK                            x       y       z     vdW  Elec       q    Type
REMARK                         _______ _______ _______ _____ _____    ______ ____
ROOT
ATOM      1  C   UNL     1       0.482  12.319  19.476  0.00  0.00    +0.000 C 
ATOM      2  C   UNL     1      -0.505  13.357  18.845  0.00  0.00    +0.000 C 
ATOM      3  C   UNL     1      -0.692  14.646  19.603  0.00  0.00    +0.000 A 
ATOM      4  C   UNL     1      -0.376  15.883  19.016  0.00  0.00    +0.000 A 
ATOM      5  C   UNL     1      -0.297  17.038  19.797  0.00  0.00    +0.000 A 
ATOM      6  C   UNL     1      -0.555  16.963  21.161  0.00  0.00    +0.000 A 
ATOM      7 CL   UNL     1      -0.274  18.331  22.164  0.00  0.00    +0.000 Cl
ATOM      8  C   UNL     1      -1.031  15.783  21.717  0.00  0.00    +0.000 A 
ATOM      9  C   UNL     1      -1.149  14.635  20.927  0.00  0.00    +0.000 A 
ATOM     10  S   UNL     1      -2.103  13.283  21.543  0.00  0.00    +0.000 S 
ATOM     11  C   UNL     1      -0.967  11.928  21.657  0.00  0.00    +0.000 A 
ATOM     12  C   UNL     1      -1.226  11.107  22.781  0.00  0.00    +0.000 A 
ATOM     13  C   UNL     1      -0.489   9.955  23.035  0.00  0.00    +0.000 A 
ATOM     14  C   UNL     1       0.505   9.599  22.154  0.00  0.00    +0.000 A 
ATOM     15  F   UNL     1       1.214   8.483  22.371  0.00  0.00    +0.000 F 
ATOM     16  C   UNL     1       0.780  10.384  21.039  0.00  0.00    +0.000 A 
ATOM     17  C   UNL     1       0.057  11.575  20.757  0.00  0.00    +0.000 A 
ENDROOT
BRANCH   1  22
ATOM     18  C   UNL     1       3.164  16.653  18.675  0.00  0.00    +0.000 C 
ATOM     19  N   UNL     1       3.307  15.232  18.982  0.00  0.00    +0.000 NA
ATOM     20  C   UNL     1       2.715  14.415  17.910  0.00  0.00    +0.000 C 
ATOM     21  C   UNL     1       2.611  12.918  18.255  0.00  0.00    +0.000 C 
ATOM     22  N   UNL     1       1.932  12.628  19.516  0.00  0.00    +0.000 NA
ATOM     23  C   UNL     1       2.478  13.430  20.612  0.00  0.00    +0.000 C 
ATOM     24  C   UNL     1       2.747  14.922  20.307  0.00  0.00    +0.000 C 
ENDBRANCH   1  22
TORSDOF 1
ENDMDL
MODEL 4
REMARK VINA RESULT:      -5.8      8.979     11.716
REMARK  Name = 
REMARK  2 active torsions:
REMARK  status: ('A' for Active; 'I' for Inactive)
REMARK    1  A    between atoms: C_1  and  N_2
REMARK    2  A    between atoms: N_5  and  C_6
REMARK                            x       y       z     vdW  Elec       q    Type
REMARK                         _______ _______ _______ _____ _____    ______ ____
ROOT
ATOM      1  C   UNL     1      -1.956  13.297  20.032  0.00  0.00    +0.000 C 
ATOM      2  C   UNL     1      -2.998  14.448  20.230  0.00  0.00    +0.000 C 
ATOM      3  C   UNL     1      -4.198  14.123  21.082  0.00  0.00    +0.000 A 
ATOM      4  C   UNL     1      -4.466  14.843  22.259  0.00  0.00    +0.000 A 
ATOM      5  C   UNL     1      -5.410  14.376  23.175  0.00  0.00    +0.000 A 
ATOM      6  C   UNL     1      -6.104  13.201  22.907  0.00  0.00    +0.000 A 
ATOM      7 CL   UNL     1      -7.123  12.513  24.109  0.00  0.00    +0.000 Cl
ATOM      8  C   UNL     1      -5.967  12.577  21.674  0.00  0.00    +0.000 A 
ATOM      9  C   UNL     1      -5.051  13.067  20.740  0.00  0.00    +0.000 A 
ATOM     10  S   UNL     1      -5.171  12.508  19.069  0.00  0.00    +0.000 S 
ATOM     11  C   UNL     1      -3.627  11.702  18.738  0.00  0.00    +0.000 A 
ATOM     12  C   UNL     1      -3.783  10.572  17.901  0.00  0.00    +0.000 A 
ATOM     13  C   UNL     1      -2.695   9.821  17.468  0.00  0.00    +0.000 A 
ATOM     14  C   UNL     1      -1.432  10.207  17.853  0.00  0.00    +0.000 A 
ATOM     15  F   UNL     1      -0.369   9.508  17.432  0.00  0.00    +0.000 F 
ATOM     16  C   UNL     1      -1.247  11.316  18.671  0.00  0.00    +0.000 A 
ATOM     17  C   UNL     1      -2.337  12.096  19.144  0.00  0.00    +0.000 A 
ENDROOT
BRANCH   1  22
ATOM     18  C   UNL     1      -1.464  15.042  24.861  0.00  0.00    +0.000 C 
ATOM     19  N   UNL     1      -0.972  14.029  23.931  0.00  0.00    +0.000 NA
ATOM     20  C   UNL     1      -0.362  14.668  22.754  0.00  0.00    +0.000 C 
ATOM     21  C   UNL     1      -0.028  13.686  21.616  0.00  0.00    +0.000 C 
ATOM     22  N   UNL     1      -1.144  12.845  21.188  0.00  0.00    +0.000 NA
ATOM     23  C   UNL     1      -1.793  12.198  22.329  0.00  0.00    +0.000 C 
ATOM     24  C   UNL     1      -2.041  13.083  23.573  0.00  0.00    +0.000 C 
ENDBRANCH   1  22
TORSDOF 1
ENDMDL
MODEL 5
REMARK VINA RESULT:      -5.7      9.493     10.961
REMARK  Name = 
REMARK  2 active torsions:
REMARK  status: ('A' for Active; 'I' for Inactive)
REMARK    1  A    between atoms: C_1  and  N_2
REMARK    2  A    between atoms: N_5  and  C_6
REMARK                            x       y       z     vdW  Elec       q    Type
REMARK                         _______ _______ _______ _____ _____    ______ ____
ROOT
ATOM      1  C   UNL     1       9.317  13.008  22.125  0.00  0.00    +0.000 C 
ATOM      2  C   UNL     1       9.667  14.518  22.342  0.00  0.00    +0.000 C 
ATOM      3  C   UNL     1       8.591  15.510  21.981  0.00  0.00    +0.000 A 
ATOM      4  C   UNL     1       8.060  16.383  22.945  0.00  0.00    +0.000 A 
ATOM      5  C   UNL     1       6.895  17.106  22.680  0.00  0.00    +0.000 A 
ATOM      6  C   UNL     1       6.272  16.975  21.444  0.00  0.00    +0.000 A 
ATOM      7 CL   UNL     1       4.739  17.706  21.174  0.00  0.00    +0.000 Cl
ATOM      8  C   UNL     1       6.882  16.248  20.430  0.00  0.00    +0.000 A 
ATOM      9  C   UNL     1       8.069  15.556  20.682  0.00  0.00    +0.000 A 
ATOM     10  S   UNL     1       9.012  14.972  19.308  0.00  0.00    +0.000 S 
ATOM     11  C   UNL     1       9.065  13.211  19.497  0.00  0.00    +0.000 A 
ATOM     12  C   UNL     1       9.009  12.538  18.253  0.00  0.00    +0.000 A 
ATOM     13  C   UNL     1       9.092  11.152  18.162  0.00  0.00    +0.000 A 
ATOM     14  C   UNL     1       9.252  10.423  19.317  0.00  0.00    +0.000 A 
ATOM     15  F   UNL     1       9.352   9.088  19.249  0.00  0.00    +0.000 F 
ATOM     16  C   UNL     1       9.315  11.056  20.554  0.00  0.00    +0.000 A 
ATOM     17  C   UNL     1       9.218  12.468  20.684  0.00  0.00    +0.000 A 
ENDROOT
BRANCH   1  22
ATOM     18  C   UNL     1       6.005  14.882  25.608  0.00  0.00    +0.000 C 
ATOM     19  N   UNL     1       6.473  13.644  24.991  0.00  0.00    +0.000 NA
ATOM     20  C   UNL     1       7.914  13.464  25.232  0.00  0.00    +0.000 C 
ATOM     21  C   UNL     1       8.540  12.311  24.425  0.00  0.00    +0.000 C 
ATOM     22  N   UNL     1       8.293  12.369  22.986  0.00  0.00    +0.000 NA
ATOM     23  C   UNL     1       6.872  12.562  22.697  0.00  0.00    +0.000 C 
ATOM     24  C   UNL     1       6.128  13.607  23.560  0.00  0.00    +0.000 C 
ENDBRANCH   1  22
TORSDOF 1
ENDMDL
MODEL 6
REMARK VINA RESULT:      -5.7     10.636     12.785
REMARK  Name = 
REMARK  2 active torsions:
REMARK  status: ('A' for Active; 'I' for Inactive)
REMARK    1  A    between atoms: C_1  and  N_2
REMARK    2  A    between atoms: N_5  and  C_6
REMARK                            x       y       z     vdW  Elec       q    Type
REMARK                         _______ _______ _______ _____ _____    ______ ____
ROOT
ATOM      1  C   UNL     1       8.514  13.329  20.400  0.00  0.00    +0.000 C 
ATOM      2  C   UNL     1       8.007  14.327  19.306  0.00  0.00    +0.000 C 
ATOM      3  C   UNL     1       8.902  15.504  19.010  0.00  0.00    +0.000 A 
ATOM      4  C   UNL     1       9.431  15.705  17.724  0.00  0.00    +0.000 A 
ATOM      5  C   UNL     1      10.458  16.628  17.517  0.00  0.00    +0.000 A 
ATOM      6  C   UNL     1      10.943  17.367  18.591  0.00  0.00    +0.000 A 
ATOM      7 CL   UNL     1      12.331  18.361  18.390  0.00  0.00    +0.000 Cl
ATOM      8  C   UNL     1      10.314  17.296  19.827  0.00  0.00    +0.000 A 
ATOM      9  C   UNL     1       9.259  16.401  20.024  0.00  0.00    +0.000 A 
ATOM     10  S   UNL     1       8.241  16.601  21.454  0.00  0.00    +0.000 S 
ATOM     11  C   UNL     1       8.430  15.096  22.371  0.00  0.00    +0.000 A 
ATOM     12  C   UNL     1       8.423  15.318  23.768  0.00  0.00    +0.000 A 
ATOM     13  C   UNL     1       8.502  14.270  24.680  0.00  0.00    +0.000 A 
ATOM     14  C   UNL     1       8.570  12.982  24.201  0.00  0.00    +0.000 A 
ATOM     15  F   UNL     1       8.629  11.957  25.063  0.00  0.00    +0.000 F 
ATOM     16  C   UNL     1       8.575  12.732  22.833  0.00  0.00    +0.000 A 
ATOM     17  C   UNL     1       8.509  13.780  21.875  0.00  0.00    +0.000 A 
ENDROOT
BRANCH   1  22
ATOM     18  C   UNL     1      12.105  13.457  16.700  0.00  0.00    +0.000 C 
ATOM     19  N   UNL     1      11.668  12.710  17.875  0.00  0.00    +0.000 NA
ATOM     20  C   UNL     1      10.298  12.208  17.682  0.00  0.00    +0.000 C 
ATOM     21  C   UNL     1       9.669  11.610  18.954  0.00  0.00    +0.000 C 
ATOM     22  N   UNL     1       9.703  12.488  20.122  0.00  0.00    +0.000 NA
ATOM     23  C   UNL     1      11.046  13.025  20.346  0.00  0.00    +0.000 C 
ATOM     24  C   UNL     1      11.808  13.521  19.095  0.00  0.00    +0.000 C 
ENDBRANCH   1  22
TORSDOF 1
ENDMDL
MODEL 7
REMARK VINA RESULT:      -5.6      8.483     11.479
REMARK  Name = 
REMARK  2 active torsions:
REMARK  status: ('A' for Active; 'I' for Inactive)
REMARK    1  A    between atoms: C_1  and  N_2
REMARK    2  A    between atoms: N_5  and  C_6
REMARK                            x       y       z     vdW  Elec       q    Type
REMARK                         _______ _______ _______ _____ _____    ______ ____
ROOT
ATOM      1  C   UNL     1      -0.977  12.545  20.201  0.00  0.00    +0.000 C 
ATOM      2  C   UNL     1      -2.285  13.346  20.516  0.00  0.00    +0.000 C 
ATOM      3  C   UNL     1      -2.246  14.237  21.731  0.00  0.00    +0.000 A 
ATOM      4  C   UNL     1      -2.450  15.623  21.618  0.00  0.00    +0.000 A 
ATOM      5  C   UNL     1      -2.154  16.471  22.686  0.00  0.00    +0.000 A 
ATOM      6  C   UNL     1      -1.674  15.935  23.876  0.00  0.00    +0.000 A 
ATOM      7 CL   UNL     1      -1.124  16.978  25.127  0.00  0.00    +0.000 Cl
ATOM      8  C   UNL     1      -1.630  14.558  24.052  0.00  0.00    +0.000 A 
ATOM      9  C   UNL     1      -1.965  13.707  22.996  0.00  0.00    +0.000 A 
ATOM     10  S   UNL     1      -2.272  12.005  23.351  0.00  0.00    +0.000 S 
ATOM     11  C   UNL     1      -1.053  11.111  22.426  0.00  0.00    +0.000 A 
ATOM     12  C   UNL     1      -0.588   9.968  23.119  0.00  0.00    +0.000 A 
ATOM     13  C   UNL     1       0.332   9.089  22.556  0.00  0.00    +0.000 A 
ATOM     14  C   UNL     1       0.784   9.335  21.281  0.00  0.00    +0.000 A 
ATOM     15  F   UNL     1       1.658   8.491  20.714  0.00  0.00    +0.000 F 
ATOM     16  C   UNL     1       0.343  10.448  20.573  0.00  0.00    +0.000 A 
ATOM     17  C   UNL     1      -0.585  11.373  21.124  0.00  0.00    +0.000 A 
ENDROOT
BRANCH   1  22
ATOM     18  C   UNL     1       0.280  17.548  20.178  0.00  0.00    +0.000 C 
ATOM     19  N   UNL     1       0.760  16.222  19.796  0.00  0.00    +0.000 NA
ATOM     20  C   UNL     1      -0.168  15.598  18.840  0.00  0.00    +0.000 C 
ATOM     21  C   UNL     1       0.132  14.113  18.561  0.00  0.00    +0.000 C 
ATOM     22  N   UNL     1       0.233  13.277  19.755  0.00  0.00    +0.000 NA
ATOM     23  C   UNL     1       1.137  13.866  20.744  0.00  0.00    +0.000 C 
ATOM     24  C   UNL     1       0.997  15.387  20.985  0.00  0.00    +0.000 C 
ENDBRANCH   1  22
TORSDOF 1
ENDMDL
MODEL 8
REMARK VINA RESULT:      -5.5      9.168     11.880
REMARK  Name = 
REMARK  2 active torsions:
REMARK  status: ('A' for Active; 'I' for Inactive)
REMARK    1  A    between atoms: C_1  and  N_2
REMARK    2  A    between atoms: N_5  and  C_6
REMARK                            x       y       z     vdW  Elec       q    Type
REMARK                         _______ _______ _______ _____ _____    ______ ____
ROOT
ATOM      1  C   UNL     1      -1.606  12.785  23.320  0.00  0.00    +0.000 C 
ATOM      2  C   UNL     1      -1.166  14.243  23.680  0.00  0.00    +0.000 C 
ATOM      3  C   UNL     1      -1.301  15.271  22.585  0.00  0.00    +0.000 A 
ATOM      4  C   UNL     1      -2.123  16.398  22.749  0.00  0.00    +0.000 A 
ATOM      5  C   UNL     1      -2.454  17.198  21.654  0.00  0.00    +0.000 A 
ATOM      6  C   UNL     1      -1.946  16.887  20.398  0.00  0.00    +0.000 A 
ATOM      7 CL   UNL     1      -2.497  17.744  19.013  0.00  0.00    +0.000 Cl
ATOM      8  C   UNL     1      -1.002  15.878  20.258  0.00  0.00    +0.000 A 
ATOM      9  C   UNL     1      -0.640  15.102  21.362  0.00  0.00    +0.000 A 
ATOM     10  S   UNL     1       0.815  14.107  21.252  0.00  0.00    +0.000 S 
ATOM     11  C   UNL     1       0.254  12.440  21.467  0.00  0.00    +0.000 A 
ATOM     12  C   UNL     1       0.977  11.525  20.664  0.00  0.00    +0.000 A 
ATOM     13  C   UNL     1       0.740  10.155  20.716  0.00  0.00    +0.000 A 
ATOM     14  C   UNL     1      -0.212   9.682  21.588  0.00  0.00    +0.000 A 
ATOM     15  F   UNL     1      -0.442   8.364  21.666  0.00  0.00    +0.000 F 
ATOM     16  C   UNL     1      -0.935  10.556  22.393  0.00  0.00    +0.000 A 
ATOM     17  C   UNL     1      -0.729  11.962  22.355  0.00  0.00    +0.000 A 
ENDROOT
BRANCH   1  22
ATOM     18  C   UNL     1      -5.712  15.820  22.587  0.00  0.00    +0.000 C 
ATOM     19  N   UNL     1      -5.300  14.424  22.711  0.00  0.00    +0.000 NA
ATOM     20  C   UNL     1      -4.666  14.193  24.018  0.00  0.00    +0.000 C 
ATOM     21  C   UNL     1      -3.992  12.814  24.147  0.00  0.00    +0.000 C 
ATOM     22  N   UNL     1      -3.042  12.497  23.083  0.00  0.00    +0.000 NA
ATOM     23  C   UNL     1      -3.625  12.726  21.761  0.00  0.00    +0.000 C 
ATOM     24  C   UNL     1      -4.440  14.028  21.584  0.00  0.00    +0.000 C 
ENDBRANCH   1  22
TORSDOF 1
ENDMDL
MODEL 9
REMARK VINA RESULT:      -5.5     10.390     12.891
REMARK  Name = 
REMARK  2 active torsions:
REMARK  status: ('A' for Active; 'I' for Inactive)
REMARK    1  A    between atoms: C_1  and  N_2
REMARK    2  A    between atoms: N_5  and  C_6
REMARK                            x       y       z     vdW  Elec       q    Type
REMARK                         _______ _______ _______ _____ _____    ______ ____
ROOT
ATOM      1  C   UNL     1       8.908  15.789  21.581  0.00  0.00    +0.000 C 
ATOM      2  C   UNL     1      10.160  14.896  21.868  0.00  0.00    +0.000 C 
ATOM      3  C   UNL     1      10.097  13.476  21.363  0.00  0.00    +0.000 A 
ATOM      4  C   UNL     1      11.037  12.996  20.436  0.00  0.00    +0.000 A 
ATOM      5  C   UNL     1      10.824  11.784  19.775  0.00  0.00    +0.000 A 
ATOM      6  C   UNL     1       9.683  11.040  20.056  0.00  0.00    +0.000 A 
ATOM      7 CL   UNL     1       9.312   9.650  19.116  0.00  0.00    +0.000 Cl
ATOM      8  C   UNL     1       8.838  11.424  21.090  0.00  0.00    +0.000 A 
ATOM      9  C   UNL     1       9.073  12.617  21.779  0.00  0.00    +0.000 A 
ATOM     10  S   UNL     1       8.235  12.884  23.310  0.00  0.00    +0.000 S 
ATOM     11  C   UNL     1       7.255  14.338  23.055  0.00  0.00    +0.000 A 
ATOM     12  C   UNL     1       6.010  14.267  23.724  0.00  0.00    +0.000 A 
ATOM     13  C   UNL     1       5.104  15.323  23.706  0.00  0.00    +0.000 A 
ATOM     14  C   UNL     1       5.444  16.473  23.032  0.00  0.00    +0.000 A 
ATOM     15  F   UNL     1       4.592  17.508  23.017  0.00  0.00    +0.000 F 
ATOM     16  C   UNL     1       6.662  16.573  22.368  0.00  0.00    +0.000 A 
ATOM     17  C   UNL     1       7.604  15.509  22.355  0.00  0.00    +0.000 A 
ENDROOT
BRANCH   1  22
ATOM     18  C   UNL     1      10.929  14.435  17.033  0.00  0.00    +0.000 C 
ATOM     19  N   UNL     1       9.931  15.302  17.654  0.00  0.00    +0.000 NA
ATOM     20  C   UNL     1      10.575  16.224  18.604  0.00  0.00    +0.000 C 
ATOM     21  C   UNL     1       9.580  17.012  19.476  0.00  0.00    +0.000 C 
ATOM     22  N   UNL     1       8.604  16.188  20.186  0.00  0.00    +0.000 NA
ATOM     23  C   UNL     1       7.947  15.244  19.283  0.00  0.00    +0.000 C 
ATOM     24  C   UNL     1       8.858  14.507  18.273  0.00  0.00    +0.000 C 
ENDBRANCH   1  22
TORSDOF 1
ENDMDL
