MODEL 1
REMARK VINA RESULT:      -9.1      0.000      0.000
REMARK  Name = 
REMARK  4 active torsions:
REMARK  status: ('A' for Active; 'I' for Inactive)
REMARK    1  A    between atoms: C_6  and  N_7
REMARK    2  A    between atoms: C_8  and  C_10
REMARK    3  A    between atoms: C_14  and  C_15
REMARK    4  A    between atoms: C_27  and  C_28
REMARK                            x       y       z     vdW  Elec       q    Type
REMARK                         _______ _______ _______ _____ _____    ______ ____
ROOT
ATOM      1  O   UNL     1       4.580   4.905  19.242  0.00  0.00    +0.000 OA
ATOM      2  C   UNL     1       3.835   5.855  19.100  0.00  0.00    +0.000 C 
ATOM      3  N   UNL     1       2.912   6.296  20.027  0.00  0.00    +0.000 N 
ATOM      4  C   UNL     1       2.256   7.438  19.588  0.00  0.00    +0.000 A 
ATOM      5  C   UNL     1       1.285   8.118  20.287  0.00  0.00    +0.000 A 
ATOM      6  C   UNL     1       0.700   9.242  19.699  0.00  0.00    +0.000 A 
ATOM      7  C   UNL     1       1.144   9.653  18.421  0.00  0.00    +0.000 A 
ATOM      8  C   UNL     1       2.142   8.937  17.723  0.00  0.00    +0.000 A 
ATOM      9  C   UNL     1       2.702   7.823  18.325  0.00  0.00    +0.000 A 
ATOM     10  C   UNL     1       3.725   6.833  17.948  0.00  0.00    +0.000 C 
ATOM     11  C   UNL     1       4.417   6.791  16.799  0.00  0.00    +0.000 C 
ATOM     12  H   UNL     1       2.757   5.828  20.907  0.00  0.00    +0.000 HD
ENDROOT
BRANCH  11  13
ATOM     13  C   UNL     1       5.288   5.721  16.489  0.00  0.00    +0.000 A 
ATOM     14  C   UNL     1       5.121   4.559  15.762  0.00  0.00    +0.000 A 
ATOM     15  C   UNL     1       6.320   3.814  15.862  0.00  0.00    +0.000 A 
ATOM     16  C   UNL     1       7.199   4.552  16.621  0.00  0.00    +0.000 A 
ATOM     17  N   UNL     1       6.567   5.712  16.994  0.00  0.00    +0.000 N 
ATOM     18  H   UNL     1       6.963   6.418  17.600  0.00  0.00    +0.000 HD
ENDBRANCH  11  13
BRANCH   6  19
ATOM     19  N   UNL     1      -0.317   9.988  20.349  0.00  0.00    +0.000 N 
ATOM     20  C   UNL     1      -0.100  11.118  21.119  0.00  0.00    +0.000 C 
ATOM     21  O   UNL     1       1.009  11.566  21.410  0.00  0.00    +0.000 OA
ATOM     22  H   UNL     1      -1.276   9.646  20.280  0.00  0.00    +0.000 HD
BRANCH  20  23
ATOM     23  C   UNL     1      -1.306  11.804  21.659  0.00  0.00    +0.000 A 
ATOM     24  C   UNL     1      -1.368  11.955  22.995  0.00  0.00    +0.000 A 
ATOM     25  N   UNL     1      -2.417  12.542  23.651  0.00  0.00    +0.000 N 
ATOM     26  C   UNL     1      -3.533  12.931  22.970  0.00  0.00    +0.000 A 
ATOM     27  C   UNL     1      -3.643  12.861  21.631  0.00  0.00    +0.000 A 
ATOM     28  C   UNL     1      -2.463  12.317  20.863  0.00  0.00    +0.000 A 
ATOM     29  O   UNL     1      -2.445  12.272  19.634  0.00  0.00    +0.000 OA
ATOM     30  H   UNL     1      -2.446  12.495  24.668  0.00  0.00    +0.000 HD
BRANCH  27  31
ATOM     31  C   UNL     1      -4.914  13.242  21.010  0.00  0.00    +0.000 A 
ATOM     32  C   UNL     1      -5.116  14.539  20.526  0.00  0.00    +0.000 A 
ATOM     33  C   UNL     1      -6.377  14.926  20.066  0.00  0.00    +0.000 A 
ATOM     34  C   UNL     1      -7.439  14.021  20.090  0.00  0.00    +0.000 A 
ATOM     35  C   UNL     1      -7.241  12.726  20.563  0.00  0.00    +0.000 A 
ATOM     36  C   UNL     1      -5.983  12.336  21.021  0.00  0.00    +0.000 A 
ENDBRANCH  27  31
ENDBRANCH  20  23
ENDBRANCH   6  19
TORSDOF 4
ENDMDL
MODEL 2
REMARK VINA RESULT:      -8.6      2.159     11.277
REMARK  Name = 
REMARK  4 active torsions:
REMARK  status: ('A' for Active; 'I' for Inactive)
REMARK    1  A    between atoms: C_6  and  N_7
REMARK    2  A    between atoms: C_8  and  C_10
REMARK    3  A    between atoms: C_14  and  C_15
REMARK    4  A    between atoms: C_27  and  C_28
REMARK                            x       y       z     vdW  Elec       q    Type
REMARK                         _______ _______ _______ _____ _____    ______ ____
ROOT
ATOM      1  O   UNL     1      -2.216  12.906  20.115  0.00  0.00    +0.000 OA
ATOM      2  C   UNL     1      -1.521  11.973  20.468  0.00  0.00    +0.000 C 
ATOM      3  N   UNL     1      -0.834  11.121  19.626  0.00  0.00    +0.000 N 
ATOM      4  C   UNL     1      -0.087  10.194  20.341  0.00  0.00    +0.000 A 
ATOM      5  C   UNL     1       0.707   9.215  19.788  0.00  0.00    +0.000 A 
ATOM      6  C   UNL     1       1.382   8.339  20.642  0.00  0.00    +0.000 A 
ATOM      7  C   UNL     1       1.243   8.506  22.039  0.00  0.00    +0.000 A 
ATOM      8  C   UNL     1       0.420   9.518  22.582  0.00  0.00    +0.000 A 
ATOM      9  C   UNL     1      -0.242  10.370  21.714  0.00  0.00    +0.000 A 
ATOM     10  C   UNL     1      -1.165  11.507  21.865  0.00  0.00    +0.000 C 
ATOM     11  C   UNL     1      -1.622  12.023  23.017  0.00  0.00    +0.000 C 
ATOM     12  H   UNL     1      -0.885  11.189  18.622  0.00  0.00    +0.000 HD
ENDROOT
BRANCH  11  13
ATOM     13  C   UNL     1      -2.606  13.038  23.044  0.00  0.00    +0.000 A 
ATOM     14  C   UNL     1      -2.544  14.395  23.291  0.00  0.00    +0.000 A 
ATOM     15  C   UNL     1      -3.868  14.896  23.269  0.00  0.00    +0.000 A 
ATOM     16  C   UNL     1      -4.701  13.840  22.979  0.00  0.00    +0.000 A 
ATOM     17  N   UNL     1      -3.927  12.716  22.839  0.00  0.00    +0.000 N 
ATOM     18  H   UNL     1      -4.284  11.785  22.673  0.00  0.00    +0.000 HD
ENDBRANCH  11  13
BRANCH   6  19
ATOM     19  N   UNL     1       2.208   7.296  20.150  0.00  0.00    +0.000 N 
ATOM     20  C   UNL     1       1.914   5.947  20.234  0.00  0.00    +0.000 C 
ATOM     21  O   UNL     1       0.941   5.476  20.825  0.00  0.00    +0.000 OA
ATOM     22  H   UNL     1       3.107   7.555  19.740  0.00  0.00    +0.000 HD
BRANCH  20  23
ATOM     23  C   UNL     1       2.875   5.008  19.592  0.00  0.00    +0.000 A 
ATOM     24  C   UNL     1       3.144   3.869  20.258  0.00  0.00    +0.000 A 
ATOM     25  N   UNL     1       4.021   2.915  19.816  0.00  0.00    +0.000 N 
ATOM     26  C   UNL     1       4.763   3.118  18.690  0.00  0.00    +0.000 A 
ATOM     27  C   UNL     1       4.620   4.196  17.897  0.00  0.00    +0.000 A 
ATOM     28  C   UNL     1       3.586   5.220  18.294  0.00  0.00    +0.000 A 
ATOM     29  O   UNL     1       3.340   6.206  17.601  0.00  0.00    +0.000 OA
ATOM     30  H   UNL     1       4.268   2.151  20.443  0.00  0.00    +0.000 HD
BRANCH  27  31
ATOM     31  C   UNL     1       5.518   4.346  16.750  0.00  0.00    +0.000 A 
ATOM     32  C   UNL     1       6.687   5.108  16.848  0.00  0.00    +0.000 A 
ATOM     33  C   UNL     1       7.458   5.358  15.710  0.00  0.00    +0.000 A 
ATOM     34  C   UNL     1       7.063   4.851  14.472  0.00  0.00    +0.000 A 
ATOM     35  C   UNL     1       5.905   4.084  14.370  0.00  0.00    +0.000 A 
ATOM     36  C   UNL     1       5.134   3.831  15.504  0.00  0.00    +0.000 A 
ENDBRANCH  27  31
ENDBRANCH  20  23
ENDBRANCH   6  19
TORSDOF 4
ENDMDL
MODEL 3
REMARK VINA RESULT:      -8.6      2.658     11.450
REMARK  Name = 
REMARK  4 active torsions:
REMARK  status: ('A' for Active; 'I' for Inactive)
REMARK    1  A    between atoms: C_6  and  N_7
REMARK    2  A    between atoms: C_8  and  C_10
REMARK    3  A    between atoms: C_14  and  C_15
REMARK    4  A    between atoms: C_27  and  C_28
REMARK                            x       y       z     vdW  Elec       q    Type
REMARK                         _______ _______ _______ _____ _____    ______ ____
ROOT
ATOM      1  O   UNL     1      -0.405  10.347  23.424  0.00  0.00    +0.000 OA
ATOM      2  C   UNL     1       0.051  10.085  22.328  0.00  0.00    +0.000 C 
ATOM      3  N   UNL     1       0.730   8.928  21.998  0.00  0.00    +0.000 N 
ATOM      4  C   UNL     1       1.070   8.906  20.653  0.00  0.00    +0.000 A 
ATOM      5  C   UNL     1       1.747   7.889  20.019  0.00  0.00    +0.000 A 
ATOM      6  C   UNL     1       2.038   8.023  18.659  0.00  0.00    +0.000 A 
ATOM      7  C   UNL     1       1.606   9.185  17.981  0.00  0.00    +0.000 A 
ATOM      8  C   UNL     1       0.913  10.216  18.654  0.00  0.00    +0.000 A 
ATOM      9  C   UNL     1       0.642  10.062  20.002  0.00  0.00    +0.000 A 
ATOM     10  C   UNL     1      -0.024  10.872  21.036  0.00  0.00    +0.000 C 
ATOM     11  C   UNL     1      -0.576  12.085  20.873  0.00  0.00    +0.000 C 
ATOM     12  H   UNL     1       0.936   8.207  22.671  0.00  0.00    +0.000 HD
ENDROOT
BRANCH  11  13
ATOM     13  C   UNL     1      -1.080  12.830  21.964  0.00  0.00    +0.000 A 
ATOM     14  C   UNL     1      -0.542  13.842  22.734  0.00  0.00    +0.000 A 
ATOM     15  C   UNL     1      -1.477  14.151  23.751  0.00  0.00    +0.000 A 
ATOM     16  C   UNL     1      -2.573  13.342  23.560  0.00  0.00    +0.000 A 
ATOM     17  N   UNL     1      -2.327  12.546  22.469  0.00  0.00    +0.000 N 
ATOM     18  H   UNL     1      -2.944  11.820  22.132  0.00  0.00    +0.000 HD
ENDBRANCH  11  13
BRANCH   6  19
ATOM     19  N   UNL     1       2.744   7.025  17.938  0.00  0.00    +0.000 N 
ATOM     20  C   UNL     1       3.603   6.100  18.504  0.00  0.00    +0.000 C 
ATOM     21  O   UNL     1       3.933   6.082  19.690  0.00  0.00    +0.000 OA
ATOM     22  H   UNL     1       2.644   7.012  16.922  0.00  0.00    +0.000 HD
BRANCH  20  23
ATOM     23  C   UNL     1       4.194   5.085  17.589  0.00  0.00    +0.000 A 
ATOM     24  C   UNL     1       4.173   3.806  18.009  0.00  0.00    +0.000 A 
ATOM     25  N   UNL     1       4.694   2.758  17.298  0.00  0.00    +0.000 N 
ATOM     26  C   UNL     1       5.368   2.975  16.133  0.00  0.00    +0.000 A 
ATOM     27  C   UNL     1       5.482   4.187  15.560  0.00  0.00    +0.000 A 
ATOM     28  C   UNL     1       4.828   5.353  16.262  0.00  0.00    +0.000 A 
ATOM     29  O   UNL     1       4.824   6.486  15.785  0.00  0.00    +0.000 OA
ATOM     30  H   UNL     1       4.758   1.846  17.748  0.00  0.00    +0.000 HD
BRANCH  27  31
ATOM     31  C   UNL     1       6.288   4.316  14.345  0.00  0.00    +0.000 A 
ATOM     32  C   UNL     1       7.358   5.216  14.284  0.00  0.00    +0.000 A 
ATOM     33  C   UNL     1       8.027   5.429  13.076  0.00  0.00    +0.000 A 
ATOM     34  C   UNL     1       7.629   4.747  11.926  0.00  0.00    +0.000 A 
ATOM     35  C   UNL     1       6.570   3.844  11.982  0.00  0.00    +0.000 A 
ATOM     36  C   UNL     1       5.902   3.627  13.187  0.00  0.00    +0.000 A 
ENDBRANCH  27  31
ENDBRANCH  20  23
ENDBRANCH   6  19
TORSDOF 4
ENDMDL
MODEL 4
REMARK VINA RESULT:      -8.4      2.317     11.267
REMARK  Name = 
REMARK  4 active torsions:
REMARK  status: ('A' for Active; 'I' for Inactive)
REMARK    1  A    between atoms: C_6  and  N_7
REMARK    2  A    between atoms: C_8  and  C_10
REMARK    3  A    between atoms: C_14  and  C_15
REMARK    4  A    between atoms: C_27  and  C_28
REMARK                            x       y       z     vdW  Elec       q    Type
REMARK                         _______ _______ _______ _____ _____    ______ ____
ROOT
ATOM      1  O   UNL     1      -2.551  13.170  20.425  0.00  0.00    +0.000 OA
ATOM      2  C   UNL     1      -1.826  12.255  20.765  0.00  0.00    +0.000 C 
ATOM      3  N   UNL     1      -1.143  11.413  19.910  0.00  0.00    +0.000 N 
ATOM      4  C   UNL     1      -0.356  10.508  20.609  0.00  0.00    +0.000 A 
ATOM      5  C   UNL     1       0.444   9.543  20.041  0.00  0.00    +0.000 A 
ATOM      6  C   UNL     1       1.162   8.689  20.882  0.00  0.00    +0.000 A 
ATOM      7  C   UNL     1       1.058   8.862  22.281  0.00  0.00    +0.000 A 
ATOM      8  C   UNL     1       0.228   9.859  22.840  0.00  0.00    +0.000 A 
ATOM      9  C   UNL     1      -0.477  10.690  21.985  0.00  0.00    +0.000 A 
ATOM     10  C   UNL     1      -1.422  11.807  22.155  0.00  0.00    +0.000 C 
ATOM     11  C   UNL     1      -1.858  12.321  23.315  0.00  0.00    +0.000 C 
ATOM     12  H   UNL     1      -1.224  11.473  18.906  0.00  0.00    +0.000 HD
ENDROOT
BRANCH  11  13
ATOM     13  C   UNL     1      -2.864  13.313  23.363  0.00  0.00    +0.000 A 
ATOM     14  C   UNL     1      -4.232  13.251  23.532  0.00  0.00    +0.000 A 
ATOM     15  C   UNL     1      -4.741  14.566  23.406  0.00  0.00    +0.000 A 
ATOM     16  C   UNL     1      -3.668  15.402  23.193  0.00  0.00    +0.000 A 
ATOM     17  N   UNL     1      -2.531  14.634  23.173  0.00  0.00    +0.000 N 
ATOM     18  H   UNL     1      -1.601  14.982  22.985  0.00  0.00    +0.000 HD
ENDBRANCH  11  13
BRANCH   6  19
ATOM     19  N   UNL     1       1.999   7.661  20.374  0.00  0.00    +0.000 N 
ATOM     20  C   UNL     1       1.681   6.315  20.365  0.00  0.00    +0.000 C 
ATOM     21  O   UNL     1       0.673   5.828  20.878  0.00  0.00    +0.000 OA
ATOM     22  H   UNL     1       2.921   7.927  20.025  0.00  0.00    +0.000 HD
BRANCH  20  23
ATOM     23  C   UNL     1       2.661   5.398  19.721  0.00  0.00    +0.000 A 
ATOM     24  C   UNL     1       2.994   4.289  20.408  0.00  0.00    +0.000 A 
ATOM     25  N   UNL     1       3.896   3.358  19.966  0.00  0.00    +0.000 N 
ATOM     26  C   UNL     1       4.597   3.559  18.814  0.00  0.00    +0.000 A 
ATOM     27  C   UNL     1       4.389   4.608  17.998  0.00  0.00    +0.000 A 
ATOM     28  C   UNL     1       3.326   5.602  18.398  0.00  0.00    +0.000 A 
ATOM     29  O   UNL     1       3.022   6.558  17.687  0.00  0.00    +0.000 OA
ATOM     30  H   UNL     1       4.191   2.621  20.606  0.00  0.00    +0.000 HD
BRANCH  27  31
ATOM     31  C   UNL     1       5.248   4.763  16.822  0.00  0.00    +0.000 A 
ATOM     32  C   UNL     1       4.906   4.171  15.600  0.00  0.00    +0.000 A 
ATOM     33  C   UNL     1       5.801   4.209  14.529  0.00  0.00    +0.000 A 
ATOM     34  C   UNL     1       7.041   4.833  14.674  0.00  0.00    +0.000 A 
ATOM     35  C   UNL     1       7.383   5.431  15.884  0.00  0.00    +0.000 A 
ATOM     36  C   UNL     1       6.490   5.397  16.956  0.00  0.00    +0.000 A 
ENDBRANCH  27  31
ENDBRANCH  20  23
ENDBRANCH   6  19
TORSDOF 4
ENDMDL
MODEL 5
REMARK VINA RESULT:      -8.3      2.319     11.524
REMARK  Name = 
REMARK  4 active torsions:
REMARK  status: ('A' for Active; 'I' for Inactive)
REMARK    1  A    between atoms: C_6  and  N_7
REMARK    2  A    between atoms: C_8  and  C_10
REMARK    3  A    between atoms: C_14  and  C_15
REMARK    4  A    between atoms: C_27  and  C_28
REMARK                            x       y       z     vdW  Elec       q    Type
REMARK                         _______ _______ _______ _____ _____    ______ ____
ROOT
ATOM      1  O   UNL     1      -0.862  12.813  19.892  0.00  0.00    +0.000 OA
ATOM      2  C   UNL     1      -0.330  11.722  19.949  0.00  0.00    +0.000 C 
ATOM      3  N   UNL     1       0.262  11.062  18.890  0.00  0.00    +0.000 N 
ATOM      4  C   UNL     1       0.831   9.862  19.294  0.00  0.00    +0.000 A 
ATOM      5  C   UNL     1       1.496   8.979  18.473  0.00  0.00    +0.000 A 
ATOM      6  C   UNL     1       1.996   7.797  19.026  0.00  0.00    +0.000 A 
ATOM      7  C   UNL     1       1.820   7.563  20.408  0.00  0.00    +0.000 A 
ATOM      8  C   UNL     1       1.132   8.484  21.230  0.00  0.00    +0.000 A 
ATOM      9  C   UNL     1       0.643   9.645  20.658  0.00  0.00    +0.000 A 
ATOM     10  C   UNL     1      -0.109  10.815  21.143  0.00  0.00    +0.000 C 
ATOM     11  C   UNL     1      -0.536  11.031  22.397  0.00  0.00    +0.000 C 
ATOM     12  H   UNL     1       0.266  11.431  17.952  0.00  0.00    +0.000 HD
ENDROOT
BRANCH  11  13
ATOM     13  C   UNL     1      -1.360  12.132  22.727  0.00  0.00    +0.000 A 
ATOM     14  C   UNL     1      -2.725  12.265  22.885  0.00  0.00    +0.000 A 
ATOM     15  C   UNL     1      -2.998  13.632  23.133  0.00  0.00    +0.000 A 
ATOM     16  C   UNL     1      -1.791  14.294  23.150  0.00  0.00    +0.000 A 
ATOM     17  N   UNL     1      -0.801  13.375  22.908  0.00  0.00    +0.000 N 
ATOM     18  H   UNL     1       0.182  13.595  22.815  0.00  0.00    +0.000 HD
ENDBRANCH  11  13
BRANCH   6  19
ATOM     19  N   UNL     1       2.681   6.832  18.243  0.00  0.00    +0.000 N 
ATOM     20  C   UNL     1       3.582   5.906  18.739  0.00  0.00    +0.000 C 
ATOM     21  O   UNL     1       3.971   5.862  19.906  0.00  0.00    +0.000 OA
ATOM     22  H   UNL     1       2.530   6.845  17.233  0.00  0.00    +0.000 HD
BRANCH  20  23
ATOM     23  C   UNL     1       4.142   4.927  17.767  0.00  0.00    +0.000 A 
ATOM     24  C   UNL     1       4.085   3.628  18.116  0.00  0.00    +0.000 A 
ATOM     25  N   UNL     1       4.576   2.607  17.347  0.00  0.00    +0.000 N 
ATOM     26  C   UNL     1       5.254   2.869  16.194  0.00  0.00    +0.000 A 
ATOM     27  C   UNL     1       5.402   4.107  15.689  0.00  0.00    +0.000 A 
ATOM     28  C   UNL     1       4.781   5.250  16.455  0.00  0.00    +0.000 A 
ATOM     29  O   UNL     1       4.809   6.408  16.042  0.00  0.00    +0.000 OA
ATOM     30  H   UNL     1       4.614   1.670  17.746  0.00  0.00    +0.000 HD
BRANCH  27  31
ATOM     31  C   UNL     1       6.209   4.281  14.479  0.00  0.00    +0.000 A 
ATOM     32  C   UNL     1       7.290   5.170  14.459  0.00  0.00    +0.000 A 
ATOM     33  C   UNL     1       7.961   5.428  13.261  0.00  0.00    +0.000 A 
ATOM     34  C   UNL     1       7.555   4.803  12.082  0.00  0.00    +0.000 A 
ATOM     35  C   UNL     1       6.486   3.910  12.098  0.00  0.00    +0.000 A 
ATOM     36  C   UNL     1       5.814   3.649  13.293  0.00  0.00    +0.000 A 
ENDBRANCH  27  31
ENDBRANCH  20  23
ENDBRANCH   6  19
TORSDOF 4
ENDMDL
MODEL 6
REMARK VINA RESULT:      -8.3      8.115     11.484
REMARK  Name = 
REMARK  4 active torsions:
REMARK  status: ('A' for Active; 'I' for Inactive)
REMARK    1  A    between atoms: C_6  and  N_7
REMARK    2  A    between atoms: C_8  and  C_10
REMARK    3  A    between atoms: C_14  and  C_15
REMARK    4  A    between atoms: C_27  and  C_28
REMARK                            x       y       z     vdW  Elec       q    Type
REMARK                         _______ _______ _______ _____ _____    ______ ____
ROOT
ATOM      1  O   UNL     1       8.791  15.435  17.920  0.00  0.00    +0.000 OA
ATOM      2  C   UNL     1       8.800  14.232  18.094  0.00  0.00    +0.000 C 
ATOM      3  N   UNL     1       7.981  13.323  17.452  0.00  0.00    +0.000 N 
ATOM      4  C   UNL     1       8.277  12.020  17.828  0.00  0.00    +0.000 A 
ATOM      5  C   UNL     1       7.640  10.892  17.362  0.00  0.00    +0.000 A 
ATOM      6  C   UNL     1       8.037   9.646  17.854  0.00  0.00    +0.000 A 
ATOM      7  C   UNL     1       9.093   9.589  18.792  0.00  0.00    +0.000 A 
ATOM      8  C   UNL     1       9.730  10.761  19.256  0.00  0.00    +0.000 A 
ATOM      9  C   UNL     1       9.314  11.984  18.757  0.00  0.00    +0.000 A 
ATOM     10  C   UNL     1       9.697  13.389  18.977  0.00  0.00    +0.000 C 
ATOM     11  C   UNL     1      10.644  13.842  19.813  0.00  0.00    +0.000 C 
ATOM     12  H   UNL     1       7.267  13.601  16.797  0.00  0.00    +0.000 HD
ENDROOT
BRANCH  11  13
ATOM     13  C   UNL     1      10.844  15.223  20.039  0.00  0.00    +0.000 A 
ATOM     14  C   UNL     1      10.370  16.091  21.002  0.00  0.00    +0.000 A 
ATOM     15  C   UNL     1      10.836  17.388  20.678  0.00  0.00    +0.000 A 
ATOM     16  C   UNL     1      11.606  17.275  19.543  0.00  0.00    +0.000 A 
ATOM     17  N   UNL     1      11.610  15.956  19.164  0.00  0.00    +0.000 N 
ATOM     18  H   UNL     1      12.058  15.594  18.333  0.00  0.00    +0.000 HD
ENDBRANCH  11  13
BRANCH   6  19
ATOM     19  N   UNL     1       7.421   8.440  17.433  0.00  0.00    +0.000 N 
ATOM     20  C   UNL     1       7.610   7.205  18.028  0.00  0.00    +0.000 C 
ATOM     21  O   UNL     1       8.406   6.981  18.940  0.00  0.00    +0.000 OA
ATOM     22  H   UNL     1       6.825   8.474  16.605  0.00  0.00    +0.000 HD
BRANCH  20  23
ATOM     23  C   UNL     1       6.816   6.069  17.485  0.00  0.00    +0.000 A 
ATOM     24  C   UNL     1       7.125   5.654  16.242  0.00  0.00    +0.000 A 
ATOM     25  N   UNL     1       6.477   4.639  15.590  0.00  0.00    +0.000 N 
ATOM     26  C   UNL     1       5.387   4.039  16.147  0.00  0.00    +0.000 A 
ATOM     27  C   UNL     1       4.940   4.323  17.385  0.00  0.00    +0.000 A 
ATOM     28  C   UNL     1       5.695   5.362  18.176  0.00  0.00    +0.000 A 
ATOM     29  O   UNL     1       5.401   5.644  19.337  0.00  0.00    +0.000 OA
ATOM     30  H   UNL     1       6.683   4.480  14.606  0.00  0.00    +0.000 HD
BRANCH  27  31
ATOM     31  C   UNL     1       3.718   3.668  17.857  0.00  0.00    +0.000 A 
ATOM     32  C   UNL     1       3.676   2.284  18.057  0.00  0.00    +0.000 A 
ATOM     33  C   UNL     1       2.467   1.658  18.370  0.00  0.00    +0.000 A 
ATOM     34  C   UNL     1       1.297   2.410  18.482  0.00  0.00    +0.000 A 
ATOM     35  C   UNL     1       1.335   3.790  18.293  0.00  0.00    +0.000 A 
ATOM     36  C   UNL     1       2.541   4.418  17.981  0.00  0.00    +0.000 A 
ENDBRANCH  27  31
ENDBRANCH  20  23
ENDBRANCH   6  19
TORSDOF 4
ENDMDL
MODEL 7
REMARK VINA RESULT:      -8.1      2.236     11.615
REMARK  Name = 
REMARK  4 active torsions:
REMARK  status: ('A' for Active; 'I' for Inactive)
REMARK    1  A    between atoms: C_6  and  N_7
REMARK    2  A    between atoms: C_8  and  C_10
REMARK    3  A    between atoms: C_14  and  C_15
REMARK    4  A    between atoms: C_27  and  C_28
REMARK                            x       y       z     vdW  Elec       q    Type
REMARK                         _______ _______ _______ _____ _____    ______ ____
ROOT
ATOM      1  O   UNL     1      -0.889  12.991  20.121  0.00  0.00    +0.000 OA
ATOM      2  C   UNL     1      -0.384  11.888  20.211  0.00  0.00    +0.000 C 
ATOM      3  N   UNL     1       0.226  11.200  19.180  0.00  0.00    +0.000 N 
ATOM      4  C   UNL     1       0.754   9.993  19.619  0.00  0.00    +0.000 A 
ATOM      5  C   UNL     1       1.425   9.084  18.832  0.00  0.00    +0.000 A 
ATOM      6  C   UNL     1       1.879   7.899  19.417  0.00  0.00    +0.000 A 
ATOM      7  C   UNL     1       1.654   7.689  20.796  0.00  0.00    +0.000 A 
ATOM      8  C   UNL     1       0.961   8.637  21.582  0.00  0.00    +0.000 A 
ATOM      9  C   UNL     1       0.517   9.801  20.979  0.00  0.00    +0.000 A 
ATOM     10  C   UNL     1      -0.223  10.994  21.423  0.00  0.00    +0.000 C 
ATOM     11  C   UNL     1      -0.684  11.238  22.659  0.00  0.00    +0.000 C 
ATOM     12  H   UNL     1       0.269  11.555  18.238  0.00  0.00    +0.000 HD
ENDROOT
BRANCH  11  13
ATOM     13  C   UNL     1      -1.493  12.362  22.948  0.00  0.00    +0.000 A 
ATOM     14  C   UNL     1      -1.209  13.612  23.459  0.00  0.00    +0.000 A 
ATOM     15  C   UNL     1      -2.435  14.302  23.615  0.00  0.00    +0.000 A 
ATOM     16  C   UNL     1      -3.434  13.466  23.169  0.00  0.00    +0.000 A 
ATOM     17  N   UNL     1      -2.853  12.292  22.760  0.00  0.00    +0.000 N 
ATOM     18  H   UNL     1      -3.358  11.480  22.432  0.00  0.00    +0.000 HD
ENDBRANCH  11  13
BRANCH   6  19
ATOM     19  N   UNL     1       2.566   6.907  18.670  0.00  0.00    +0.000 N 
ATOM     20  C   UNL     1       3.748   7.113  17.981  0.00  0.00    +0.000 C 
ATOM     21  O   UNL     1       4.306   8.203  17.855  0.00  0.00    +0.000 OA
ATOM     22  H   UNL     1       2.138   5.983  18.600  0.00  0.00    +0.000 HD
BRANCH  20  23
ATOM     23  C   UNL     1       4.354   5.926  17.317  0.00  0.00    +0.000 A 
ATOM     24  C   UNL     1       4.432   4.798  18.048  0.00  0.00    +0.000 A 
ATOM     25  N   UNL     1       4.981   3.629  17.594  0.00  0.00    +0.000 N 
ATOM     26  C   UNL     1       5.582   3.571  16.371  0.00  0.00    +0.000 A 
ATOM     27  C   UNL     1       5.592   4.600  15.504  0.00  0.00    +0.000 A 
ATOM     28  C   UNL     1       4.903   5.874  15.928  0.00  0.00    +0.000 A 
ATOM     29  O   UNL     1       4.805   6.846  15.181  0.00  0.00    +0.000 OA
ATOM     30  H   UNL     1       5.123   2.867  18.254  0.00  0.00    +0.000 HD
BRANCH  27  31
ATOM     31  C   UNL     1       6.327   4.450  14.246  0.00  0.00    +0.000 A 
ATOM     32  C   UNL     1       7.428   5.264  13.956  0.00  0.00    +0.000 A 
ATOM     33  C   UNL     1       8.030   5.206  12.697  0.00  0.00    +0.000 A 
ATOM     34  C   UNL     1       7.534   4.338  11.723  0.00  0.00    +0.000 A 
ATOM     35  C   UNL     1       6.443   3.520  12.009  0.00  0.00    +0.000 A 
ATOM     36  C   UNL     1       5.841   3.575  13.266  0.00  0.00    +0.000 A 
ENDBRANCH  27  31
ENDBRANCH  20  23
ENDBRANCH   6  19
TORSDOF 4
ENDMDL
MODEL 8
REMARK VINA RESULT:      -8.0      2.722      3.338
REMARK  Name = 
REMARK  4 active torsions:
REMARK  status: ('A' for Active; 'I' for Inactive)
REMARK    1  A    between atoms: C_6  and  N_7
REMARK    2  A    between atoms: C_8  and  C_10
REMARK    3  A    between atoms: C_14  and  C_15
REMARK    4  A    between atoms: C_27  and  C_28
REMARK                            x       y       z     vdW  Elec       q    Type
REMARK                         _______ _______ _______ _____ _____    ______ ____
ROOT
ATOM      1  O   UNL     1       2.425   4.589  20.873  0.00  0.00    +0.000 OA
ATOM      2  C   UNL     1       2.209   5.660  20.340  0.00  0.00    +0.000 C 
ATOM      3  N   UNL     1       1.638   6.760  20.952  0.00  0.00    +0.000 N 
ATOM      4  C   UNL     1       1.581   7.846  20.090  0.00  0.00    +0.000 A 
ATOM      5  C   UNL     1       1.070   9.086  20.404  0.00  0.00    +0.000 A 
ATOM      6  C   UNL     1       1.061  10.076  19.418  0.00  0.00    +0.000 A 
ATOM      7  C   UNL     1       1.597   9.775  18.145  0.00  0.00    +0.000 A 
ATOM      8  C   UNL     1       2.113   8.495  17.847  0.00  0.00    +0.000 A 
ATOM      9  C   UNL     1       2.107   7.530  18.839  0.00  0.00    +0.000 A 
ATOM     10  C   UNL     1       2.529   6.122  18.933  0.00  0.00    +0.000 C 
ATOM     11  C   UNL     1       3.075   5.381  17.957  0.00  0.00    +0.000 C 
ATOM     12  H   UNL     1       1.315   6.745  21.906  0.00  0.00    +0.000 HD
ENDROOT
BRANCH  11  13
ATOM     13  C   UNL     1       3.328   3.999  18.119  0.00  0.00    +0.000 A 
ATOM     14  C   UNL     1       2.695   2.869  17.640  0.00  0.00    +0.000 A 
ATOM     15  C   UNL     1       3.341   1.743  18.204  0.00  0.00    +0.000 A 
ATOM     16  C   UNL     1       4.370   2.212  18.989  0.00  0.00    +0.000 A 
ATOM     17  N   UNL     1       4.359   3.583  18.928  0.00  0.00    +0.000 N 
ATOM     18  H   UNL     1       4.976   4.190  19.449  0.00  0.00    +0.000 HD
ENDBRANCH  11  13
BRANCH   6  19
ATOM     19  N   UNL     1       0.540  11.373  19.660  0.00  0.00    +0.000 N 
ATOM     20  C   UNL     1      -0.777  11.747  19.459  0.00  0.00    +0.000 C 
ATOM     21  O   UNL     1      -1.642  11.027  18.961  0.00  0.00    +0.000 OA
ATOM     22  H   UNL     1       1.192  12.098  19.966  0.00  0.00    +0.000 HD
BRANCH  20  23
ATOM     23  C   UNL     1      -1.145  13.138  19.841  0.00  0.00    +0.000 A 
ATOM     24  C   UNL     1      -0.630  14.129  19.089  0.00  0.00    +0.000 A 
ATOM     25  N   UNL     1      -0.852  15.460  19.321  0.00  0.00    +0.000 N 
ATOM     26  C   UNL     1      -1.553  15.868  20.417  0.00  0.00    +0.000 A 
ATOM     27  C   UNL     1      -2.145  15.016  21.274  0.00  0.00    +0.000 A 
ATOM     28  C   UNL     1      -2.012  13.539  20.991  0.00  0.00    +0.000 A 
ATOM     29  O   UNL     1      -2.569  12.687  21.680  0.00  0.00    +0.000 OA
ATOM     30  H   UNL     1      -0.317  16.144  18.789  0.00  0.00    +0.000 HD
BRANCH  27  31
ATOM     31  C   UNL     1      -2.813  15.562  22.457  0.00  0.00    +0.000 A 
ATOM     32  C   UNL     1      -2.095  15.831  23.628  0.00  0.00    +0.000 A 
ATOM     33  C   UNL     1      -2.768  16.217  24.789  0.00  0.00    +0.000 A 
ATOM     34  C   UNL     1      -4.159  16.334  24.786  0.00  0.00    +0.000 A 
ATOM     35  C   UNL     1      -4.878  16.077  23.621  0.00  0.00    +0.000 A 
ATOM     36  C   UNL     1      -4.209  15.692  22.460  0.00  0.00    +0.000 A 
ENDBRANCH  27  31
ENDBRANCH  20  23
ENDBRANCH   6  19
TORSDOF 4
ENDMDL
MODEL 9
REMARK VINA RESULT:      -8.0      2.551     11.416
REMARK  Name = 
REMARK  4 active torsions:
REMARK  status: ('A' for Active; 'I' for Inactive)
REMARK    1  A    between atoms: C_6  and  N_7
REMARK    2  A    between atoms: C_8  and  C_10
REMARK    3  A    between atoms: C_14  and  C_15
REMARK    4  A    between atoms: C_27  and  C_28
REMARK                            x       y       z     vdW  Elec       q    Type
REMARK                         _______ _______ _______ _____ _____    ______ ____
ROOT
ATOM      1  O   UNL     1      -0.644  10.469  23.471  0.00  0.00    +0.000 OA
ATOM      2  C   UNL     1      -0.126  10.226  22.398  0.00  0.00    +0.000 C 
ATOM      3  N   UNL     1       0.545   9.063  22.076  0.00  0.00    +0.000 N 
ATOM      4  C   UNL     1       0.970   9.070  20.755  0.00  0.00    +0.000 A 
ATOM      5  C   UNL     1       1.661   8.055  20.135  0.00  0.00    +0.000 A 
ATOM      6  C   UNL     1       2.041   8.220  18.800  0.00  0.00    +0.000 A 
ATOM      7  C   UNL     1       1.681   9.412  18.132  0.00  0.00    +0.000 A 
ATOM      8  C   UNL     1       0.971  10.441  18.791  0.00  0.00    +0.000 A 
ATOM      9  C   UNL     1       0.611  10.255  20.114  0.00  0.00    +0.000 A 
ATOM     10  C   UNL     1      -0.099  11.052  21.128  0.00  0.00    +0.000 C 
ATOM     11  C   UNL     1      -0.611  12.283  20.968  0.00  0.00    +0.000 C 
ATOM     12  H   UNL     1       0.691   8.317  22.739  0.00  0.00    +0.000 HD
ENDROOT
BRANCH  11  13
ATOM     13  C   UNL     1      -1.165  13.009  22.047  0.00  0.00    +0.000 A 
ATOM     14  C   UNL     1      -2.423  13.028  22.614  0.00  0.00    +0.000 A 
ATOM     15  C   UNL     1      -2.426  14.023  23.622  0.00  0.00    +0.000 A 
ATOM     16  C   UNL     1      -1.161  14.564  23.666  0.00  0.00    +0.000 A 
ATOM     17  N   UNL     1      -0.400  13.940  22.710  0.00  0.00    +0.000 N 
ATOM     18  H   UNL     1       0.558  14.176  22.488  0.00  0.00    +0.000 HD
ENDBRANCH  11  13
BRANCH   6  19
ATOM     19  N   UNL     1       2.767   7.225  18.095  0.00  0.00    +0.000 N 
ATOM     20  C   UNL     1       3.408   6.149  18.682  0.00  0.00    +0.000 C 
ATOM     21  O   UNL     1       3.506   5.968  19.896  0.00  0.00    +0.000 OA
ATOM     22  H   UNL     1       2.859   7.331  17.084  0.00  0.00    +0.000 HD
BRANCH  20  23
ATOM     23  C   UNL     1       4.057   5.172  17.765  0.00  0.00    +0.000 A 
ATOM     24  C   UNL     1       4.169   3.906  18.211  0.00  0.00    +0.000 A 
ATOM     25  N   UNL     1       4.759   2.895  17.501  0.00  0.00    +0.000 N 
ATOM     26  C   UNL     1       5.368   3.146  16.307  0.00  0.00    +0.000 A 
ATOM     27  C   UNL     1       5.348   4.350  15.707  0.00  0.00    +0.000 A 
ATOM     28  C   UNL     1       4.614   5.466  16.410  0.00  0.00    +0.000 A 
ATOM     29  O   UNL     1       4.488   6.584  15.912  0.00  0.00    +0.000 OA
ATOM     30  H   UNL     1       4.924   2.004  17.966  0.00  0.00    +0.000 HD
BRANCH  27  31
ATOM     31  C   UNL     1       6.094   4.525  14.459  0.00  0.00    +0.000 A 
ATOM     32  C   UNL     1       5.796   3.753  13.330  0.00  0.00    +0.000 A 
ATOM     33  C   UNL     1       6.606   3.831  12.195  0.00  0.00    +0.000 A 
ATOM     34  C   UNL     1       7.716   4.676  12.183  0.00  0.00    +0.000 A 
ATOM     35  C   UNL     1       8.013   5.453  13.301  0.00  0.00    +0.000 A 
ATOM     36  C   UNL     1       7.205   5.379  14.436  0.00  0.00    +0.000 A 
ENDBRANCH  27  31
ENDBRANCH  20  23
ENDBRANCH   6  19
TORSDOF 4
ENDMDL
