MODEL 1
REMARK VINA RESULT:      -8.4      0.000      0.000
REMARK  Name = 
REMARK  3 active torsions:
REMARK  status: ('A' for Active; 'I' for Inactive)
REMARK    1  A    between atoms: C_1  and  C_2
REMARK    2  A    between atoms: C_6  and  C_7
REMARK    3  A    between atoms: C_10  and  C_11
REMARK                            x       y       z     vdW  Elec       q    Type
REMARK                         _______ _______ _______ _____ _____    ______ ____
ROOT
ATOM      1  C   UNL     1       8.456   8.731  18.505  0.00  0.00    +0.000 A 
ATOM      2  C   UNL     1       7.654   8.737  17.435  0.00  0.00    +0.000 A 
ATOM      3  C   UNL     1       7.049   7.508  16.993  0.00  0.00    +0.000 A 
ATOM      4  C   UNL     1       7.090   6.379  17.728  0.00  0.00    +0.000 A 
ATOM      5  C   UNL     1       8.017   6.375  18.917  0.00  0.00    +0.000 A 
ATOM      6  O   UNL     1       8.220   5.393  19.621  0.00  0.00    +0.000 OA
ATOM      7  N   UNL     1       8.653   7.568  19.200  0.00  0.00    +0.000 N 
ATOM      8  H   UNL     1       9.298   7.551  19.980  0.00  0.00    +0.000 HD
ENDROOT
BRANCH   4   9
ATOM      9  C   UNL     1       6.392   5.133  17.283  0.00  0.00    +0.000 C 
ATOM     10  O   UNL     1       6.938   4.411  16.448  0.00  0.00    +0.000 OA
ATOM     11  N   UNL     1       5.149   4.794  17.825  0.00  0.00    +0.000 N 
ATOM     12  C   UNL     1       4.294   5.604  18.708  0.00  0.00    +0.000 C 
ATOM     13  C   UNL     1       3.446   4.764  19.670  0.00  0.00    +0.000 C 
ATOM     14  O   UNL     1       2.771   3.696  19.002  0.00  0.00    +0.000 OA
ATOM     15  C   UNL     1       3.721   2.848  18.343  0.00  0.00    +0.000 C 
ATOM     16  C   UNL     1       4.460   3.627  17.257  0.00  0.00    +0.000 C 
ENDBRANCH   4   9
BRANCH   1  22
ATOM     17  C   UNL     1      10.886  12.850  17.193  0.00  0.00    +0.000 C 
ATOM     18  C   UNL     1      10.325  11.979  18.275  0.00  0.00    +0.000 A 
ATOM     19  C   UNL     1      10.402  12.341  19.630  0.00  0.00    +0.000 A 
ATOM     20  C   UNL     1       9.863  11.513  20.616  0.00  0.00    +0.000 A 
ATOM     21  C   UNL     1       9.239  10.316  20.263  0.00  0.00    +0.000 A 
ATOM     22  C   UNL     1       9.157   9.946  18.919  0.00  0.00    +0.000 A 
ATOM     23  C   UNL     1       9.701  10.780  17.932  0.00  0.00    +0.000 A 
ENDBRANCH   1  22
TORSDOF 2
ENDMDL
MODEL 2
REMARK VINA RESULT:      -8.0      4.310      6.966
REMARK  Name = 
REMARK  3 active torsions:
REMARK  status: ('A' for Active; 'I' for Inactive)
REMARK    1  A    between atoms: C_1  and  C_2
REMARK    2  A    between atoms: C_6  and  C_7
REMARK    3  A    between atoms: C_10  and  C_11
REMARK                            x       y       z     vdW  Elec       q    Type
REMARK                         _______ _______ _______ _____ _____    ______ ____
ROOT
ATOM      1  C   UNL     1       1.591   8.009  20.077  0.00  0.00    +0.000 A 
ATOM      2  C   UNL     1       1.920   8.258  18.805  0.00  0.00    +0.000 A 
ATOM      3  C   UNL     1       2.648   7.270  18.052  0.00  0.00    +0.000 A 
ATOM      4  C   UNL     1       2.840   6.015  18.506  0.00  0.00    +0.000 A 
ATOM      5  C   UNL     1       2.490   5.753  19.949  0.00  0.00    +0.000 A 
ATOM      6  O   UNL     1       2.693   4.687  20.518  0.00  0.00    +0.000 OA
ATOM      7  N   UNL     1       1.903   6.798  20.635  0.00  0.00    +0.000 N 
ATOM      8  H   UNL     1       1.699   6.627  21.612  0.00  0.00    +0.000 HD
ENDROOT
BRANCH   4   9
ATOM      9  C   UNL     1       3.536   4.984  17.675  0.00  0.00    +0.000 C 
ATOM     10  O   UNL     1       2.864   4.109  17.128  0.00  0.00    +0.000 OA
ATOM     11  N   UNL     1       4.923   5.033  17.515  0.00  0.00    +0.000 N 
ATOM     12  C   UNL     1       5.886   5.906  18.206  0.00  0.00    +0.000 C 
ATOM     13  C   UNL     1       7.116   6.246  17.357  0.00  0.00    +0.000 C 
ATOM     14  O   UNL     1       7.692   5.085  16.752  0.00  0.00    +0.000 OA
ATOM     15  C   UNL     1       6.718   4.422  15.933  0.00  0.00    +0.000 C 
ATOM     16  C   UNL     1       5.559   3.922  16.792  0.00  0.00    +0.000 C 
ENDBRANCH   4   9
BRANCH   1  22
ATOM     17  C   UNL     1      -0.468  12.513  20.335  0.00  0.00    +0.000 C 
ATOM     18  C   UNL     1      -0.098  11.229  21.012  0.00  0.00    +0.000 A 
ATOM     19  C   UNL     1      -0.425  10.980  22.355  0.00  0.00    +0.000 A 
ATOM     20  C   UNL     1      -0.075   9.771  22.958  0.00  0.00    +0.000 A 
ATOM     21  C   UNL     1       0.605   8.795  22.228  0.00  0.00    +0.000 A 
ATOM     22  C   UNL     1       0.936   9.031  20.891  0.00  0.00    +0.000 A 
ATOM     23  C   UNL     1       0.583  10.248  20.292  0.00  0.00    +0.000 A 
ENDBRANCH   1  22
TORSDOF 2
ENDMDL
MODEL 3
REMARK VINA RESULT:      -7.9      0.380      1.478
REMARK  Name = 
REMARK  3 active torsions:
REMARK  status: ('A' for Active; 'I' for Inactive)
REMARK    1  A    between atoms: C_1  and  C_2
REMARK    2  A    between atoms: C_6  and  C_7
REMARK    3  A    between atoms: C_10  and  C_11
REMARK                            x       y       z     vdW  Elec       q    Type
REMARK                         _______ _______ _______ _____ _____    ______ ____
ROOT
ATOM      1  C   UNL     1       8.371   8.698  18.410  0.00  0.00    +0.000 A 
ATOM      2  C   UNL     1       7.512   8.654  17.386  0.00  0.00    +0.000 A 
ATOM      3  C   UNL     1       6.907   7.401  17.018  0.00  0.00    +0.000 A 
ATOM      4  C   UNL     1       7.009   6.298  17.786  0.00  0.00    +0.000 A 
ATOM      5  C   UNL     1       7.999   6.350  18.922  0.00  0.00    +0.000 A 
ATOM      6  O   UNL     1       8.259   5.396  19.646  0.00  0.00    +0.000 OA
ATOM      7  N   UNL     1       8.627   7.563  19.130  0.00  0.00    +0.000 N 
ATOM      8  H   UNL     1       9.315   7.583  19.874  0.00  0.00    +0.000 HD
ENDROOT
BRANCH   4   9
ATOM      9  C   UNL     1       6.311   5.027  17.422  0.00  0.00    +0.000 C 
ATOM     10  O   UNL     1       6.858   4.251  16.637  0.00  0.00    +0.000 OA
ATOM     11  N   UNL     1       5.067   4.724  17.983  0.00  0.00    +0.000 N 
ATOM     12  C   UNL     1       4.211   5.590  18.809  0.00  0.00    +0.000 C 
ATOM     13  C   UNL     1       3.360   4.815  19.822  0.00  0.00    +0.000 C 
ATOM     14  O   UNL     1       2.685   3.706  19.224  0.00  0.00    +0.000 OA
ATOM     15  C   UNL     1       3.637   2.816  18.623  0.00  0.00    +0.000 C 
ATOM     16  C   UNL     1       4.378   3.523  17.490  0.00  0.00    +0.000 C 
ENDBRANCH   4   9
BRANCH   1  22
ATOM     17  C   UNL     1       9.623  12.037  21.856  0.00  0.00    +0.000 C 
ATOM     18  C   UNL     1       9.707  11.561  20.438  0.00  0.00    +0.000 A 
ATOM     19  C   UNL     1      10.482  12.231  19.478  0.00  0.00    +0.000 A 
ATOM     20  C   UNL     1      10.549  11.759  18.166  0.00  0.00    +0.000 A 
ATOM     21  C   UNL     1       9.846  10.613  17.796  0.00  0.00    +0.000 A 
ATOM     22  C   UNL     1       9.071   9.938  18.743  0.00  0.00    +0.000 A 
ATOM     23  C   UNL     1       9.006  10.416  20.059  0.00  0.00    +0.000 A 
ENDBRANCH   1  22
TORSDOF 2
ENDMDL
MODEL 4
REMARK VINA RESULT:      -7.7      5.671      7.566
REMARK  Name = 
REMARK  3 active torsions:
REMARK  status: ('A' for Active; 'I' for Inactive)
REMARK    1  A    between atoms: C_1  and  C_2
REMARK    2  A    between atoms: C_6  and  C_7
REMARK    3  A    between atoms: C_10  and  C_11
REMARK                            x       y       z     vdW  Elec       q    Type
REMARK                         _______ _______ _______ _____ _____    ______ ____
ROOT
ATOM      1  C   UNL     1       0.939   8.987  20.419  0.00  0.00    +0.000 A 
ATOM      2  C   UNL     1       1.349   7.867  21.025  0.00  0.00    +0.000 A 
ATOM      3  C   UNL     1       2.101   6.891  20.281  0.00  0.00    +0.000 A 
ATOM      4  C   UNL     1       2.590   7.142  19.050  0.00  0.00    +0.000 A 
ATOM      5  C   UNL     1       2.100   8.394  18.367  0.00  0.00    +0.000 A 
ATOM      6  O   UNL     1       2.391   8.702  17.217  0.00  0.00    +0.000 OA
ATOM      7  N   UNL     1       1.282   9.218  19.114  0.00  0.00    +0.000 N 
ATOM      8  H   UNL     1       0.930  10.041  18.639  0.00  0.00    +0.000 HD
ENDROOT
BRANCH   4   9
ATOM      9  C   UNL     1       3.431   6.139  18.326  0.00  0.00    +0.000 C 
ATOM     10  O   UNL     1       4.592   6.434  18.038  0.00  0.00    +0.000 OA
ATOM     11  N   UNL     1       2.904   4.886  18.003  0.00  0.00    +0.000 N 
ATOM     12  C   UNL     1       1.513   4.425  18.135  0.00  0.00    +0.000 C 
ATOM     13  C   UNL     1       1.393   2.922  18.407  0.00  0.00    +0.000 C 
ATOM     14  O   UNL     1       2.195   2.146  17.513  0.00  0.00    +0.000 OA
ATOM     15  C   UNL     1       3.571   2.540  17.618  0.00  0.00    +0.000 C 
ATOM     16  C   UNL     1       3.737   3.994  17.183  0.00  0.00    +0.000 C 
ENDBRANCH   4   9
BRANCH   1  22
ATOM     17  C   UNL     1      -1.961  13.005  20.204  0.00  0.00    +0.000 C 
ATOM     18  C   UNL     1      -1.349  11.903  21.015  0.00  0.00    +0.000 A 
ATOM     19  C   UNL     1      -1.627  11.751  22.383  0.00  0.00    +0.000 A 
ATOM     20  C   UNL     1      -1.049  10.710  23.112  0.00  0.00    +0.000 A 
ATOM     21  C   UNL     1      -0.190   9.808  22.485  0.00  0.00    +0.000 A 
ATOM     22  C   UNL     1       0.094   9.949  21.124  0.00  0.00    +0.000 A 
ATOM     23  C   UNL     1      -0.488  10.997  20.397  0.00  0.00    +0.000 A 
ENDBRANCH   1  22
TORSDOF 2
ENDMDL
MODEL 5
REMARK VINA RESULT:      -7.6      4.419      6.992
REMARK  Name = 
REMARK  3 active torsions:
REMARK  status: ('A' for Active; 'I' for Inactive)
REMARK    1  A    between atoms: C_1  and  C_2
REMARK    2  A    between atoms: C_6  and  C_7
REMARK    3  A    between atoms: C_10  and  C_11
REMARK                            x       y       z     vdW  Elec       q    Type
REMARK                         _______ _______ _______ _____ _____    ______ ____
ROOT
ATOM      1  C   UNL     1       1.642   8.546  19.424  0.00  0.00    +0.000 A 
ATOM      2  C   UNL     1       1.972   8.565  18.128  0.00  0.00    +0.000 A 
ATOM      3  C   UNL     1       2.692   7.454  17.562  0.00  0.00    +0.000 A 
ATOM      4  C   UNL     1       2.874   6.297  18.229  0.00  0.00    +0.000 A 
ATOM      5  C   UNL     1       2.522   6.296  19.696  0.00  0.00    +0.000 A 
ATOM      6  O   UNL     1       2.717   5.345  20.444  0.00  0.00    +0.000 OA
ATOM      7  N   UNL     1       1.945   7.450  20.187  0.00  0.00    +0.000 N 
ATOM      8  H   UNL     1       1.740   7.455  21.179  0.00  0.00    +0.000 HD
ENDROOT
BRANCH   4   9
ATOM      9  C   UNL     1       3.561   5.130  17.594  0.00  0.00    +0.000 C 
ATOM     10  O   UNL     1       2.883   4.171  17.224  0.00  0.00    +0.000 OA
ATOM     11  N   UNL     1       4.946   5.147  17.411  0.00  0.00    +0.000 N 
ATOM     12  C   UNL     1       5.916   6.130  17.920  0.00  0.00    +0.000 C 
ATOM     13  C   UNL     1       7.136   6.307  17.009  0.00  0.00    +0.000 C 
ATOM     14  O   UNL     1       7.706   5.055  16.620  0.00  0.00    +0.000 OA
ATOM     15  C   UNL     1       6.723   4.254  15.947  0.00  0.00    +0.000 C 
ATOM     16  C   UNL     1       5.574   3.921  16.897  0.00  0.00    +0.000 C 
ENDBRANCH   4   9
BRANCH   1  22
ATOM     17  C   UNL     1      -0.950  10.386  23.231  0.00  0.00    +0.000 C 
ATOM     18  C   UNL     1      -0.251  10.610  21.924  0.00  0.00    +0.000 A 
ATOM     19  C   UNL     1      -0.154  11.886  21.347  0.00  0.00    +0.000 A 
ATOM     20  C   UNL     1       0.510  12.066  20.133  0.00  0.00    +0.000 A 
ATOM     21  C   UNL     1       1.086  10.976  19.480  0.00  0.00    +0.000 A 
ATOM     22  C   UNL     1       0.996   9.701  20.046  0.00  0.00    +0.000 A 
ATOM     23  C   UNL     1       0.327   9.526  21.264  0.00  0.00    +0.000 A 
ENDBRANCH   1  22
TORSDOF 2
ENDMDL
MODEL 6
REMARK VINA RESULT:      -7.6      4.926      7.169
REMARK  Name = 
REMARK  3 active torsions:
REMARK  status: ('A' for Active; 'I' for Inactive)
REMARK    1  A    between atoms: C_1  and  C_2
REMARK    2  A    between atoms: C_6  and  C_7
REMARK    3  A    between atoms: C_10  and  C_11
REMARK                            x       y       z     vdW  Elec       q    Type
REMARK                         _______ _______ _______ _____ _____    ______ ____
ROOT
ATOM      1  C   UNL     1       5.356   4.956  15.627  0.00  0.00    +0.000 A 
ATOM      2  C   UNL     1       5.580   6.123  16.241  0.00  0.00    +0.000 A 
ATOM      3  C   UNL     1       4.808   6.473  17.405  0.00  0.00    +0.000 A 
ATOM      4  C   UNL     1       4.005   5.589  18.030  0.00  0.00    +0.000 A 
ATOM      5  C   UNL     1       3.740   4.288  17.316  0.00  0.00    +0.000 A 
ATOM      6  O   UNL     1       2.965   3.431  17.723  0.00  0.00    +0.000 OA
ATOM      7  N   UNL     1       4.434   4.084  16.139  0.00  0.00    +0.000 N 
ATOM      8  H   UNL     1       4.228   3.223  15.648  0.00  0.00    +0.000 HD
ENDROOT
BRANCH   4   9
ATOM      9  C   UNL     1       3.269   5.953  19.280  0.00  0.00    +0.000 C 
ATOM     10  O   UNL     1       3.459   5.286  20.298  0.00  0.00    +0.000 OA
ATOM     11  N   UNL     1       2.397   7.045  19.287  0.00  0.00    +0.000 N 
ATOM     12  C   UNL     1       1.943   7.850  18.142  0.00  0.00    +0.000 C 
ATOM     13  C   UNL     1       1.637   9.307  18.506  0.00  0.00    +0.000 C 
ATOM     14  O   UNL     1       0.816   9.412  19.671  0.00  0.00    +0.000 OA
ATOM     15  C   UNL     1       1.454   8.768  20.783  0.00  0.00    +0.000 C 
ATOM     16  C   UNL     1       1.611   7.274  20.508  0.00  0.00    +0.000 C 
ENDBRANCH   4   9
BRANCH   1  22
ATOM     17  C   UNL     1       5.483   2.303  11.439  0.00  0.00    +0.000 C 
ATOM     18  C   UNL     1       6.108   3.338  12.324  0.00  0.00    +0.000 A 
ATOM     19  C   UNL     1       7.284   4.013  11.955  0.00  0.00    +0.000 A 
ATOM     20  C   UNL     1       7.839   4.979  12.796  0.00  0.00    +0.000 A 
ATOM     21  C   UNL     1       7.229   5.284  14.013  0.00  0.00    +0.000 A 
ATOM     22  C   UNL     1       6.059   4.619  14.390  0.00  0.00    +0.000 A 
ATOM     23  C   UNL     1       5.506   3.649  13.542  0.00  0.00    +0.000 A 
ENDBRANCH   1  22
TORSDOF 2
ENDMDL
MODEL 7
REMARK VINA RESULT:      -7.6      5.536      7.281
REMARK  Name = 
REMARK  3 active torsions:
REMARK  status: ('A' for Active; 'I' for Inactive)
REMARK    1  A    between atoms: C_1  and  C_2
REMARK    2  A    between atoms: C_6  and  C_7
REMARK    3  A    between atoms: C_10  and  C_11
REMARK                            x       y       z     vdW  Elec       q    Type
REMARK                         _______ _______ _______ _____ _____    ______ ____
ROOT
ATOM      1  C   UNL     1       1.094   9.342  19.302  0.00  0.00    +0.000 A 
ATOM      2  C   UNL     1       1.606   9.360  18.066  0.00  0.00    +0.000 A 
ATOM      3  C   UNL     1       2.509   8.316  17.656  0.00  0.00    +0.000 A 
ATOM      4  C   UNL     1       2.709   7.205  18.392  0.00  0.00    +0.000 A 
ATOM      5  C   UNL     1       2.150   7.208  19.793  0.00  0.00    +0.000 A 
ATOM      6  O   UNL     1       2.330   6.305  20.602  0.00  0.00    +0.000 OA
ATOM      7  N   UNL     1       1.393   8.308  20.147  0.00  0.00    +0.000 N 
ATOM      8  H   UNL     1       1.047   8.319  21.099  0.00  0.00    +0.000 HD
ENDROOT
BRANCH   4   9
ATOM      9  C   UNL     1       3.596   6.101  17.912  0.00  0.00    +0.000 C 
ATOM     10  O   UNL     1       4.782   6.344  17.690  0.00  0.00    +0.000 OA
ATOM     11  N   UNL     1       3.080   4.813  17.739  0.00  0.00    +0.000 N 
ATOM     12  C   UNL     1       1.675   4.382  17.812  0.00  0.00    +0.000 C 
ATOM     13  C   UNL     1       1.506   2.939  18.301  0.00  0.00    +0.000 C 
ATOM     14  O   UNL     1       2.373   2.032  17.616  0.00  0.00    +0.000 OA
ATOM     15  C   UNL     1       3.740   2.434  17.784  0.00  0.00    +0.000 C 
ATOM     16  C   UNL     1       3.969   3.803  17.147  0.00  0.00    +0.000 C 
ENDBRANCH   4   9
BRANCH   1  22
ATOM     17  C   UNL     1      -1.407  11.428  23.042  0.00  0.00    +0.000 C 
ATOM     18  C   UNL     1      -0.953  11.476  21.615  0.00  0.00    +0.000 A 
ATOM     19  C   UNL     1      -1.261  12.561  20.777  0.00  0.00    +0.000 A 
ATOM     20  C   UNL     1      -0.818  12.583  19.454  0.00  0.00    +0.000 A 
ATOM     21  C   UNL     1      -0.061  11.524  18.951  0.00  0.00    +0.000 A 
ATOM     22  C   UNL     1       0.251  10.439  19.775  0.00  0.00    +0.000 A 
ATOM     23  C   UNL     1      -0.198  10.422  21.102  0.00  0.00    +0.000 A 
ENDBRANCH   1  22
TORSDOF 2
ENDMDL
MODEL 8
REMARK VINA RESULT:      -7.5      5.433      7.112
REMARK  Name = 
REMARK  3 active torsions:
REMARK  status: ('A' for Active; 'I' for Inactive)
REMARK    1  A    between atoms: C_1  and  C_2
REMARK    2  A    between atoms: C_6  and  C_7
REMARK    3  A    between atoms: C_10  and  C_11
REMARK                            x       y       z     vdW  Elec       q    Type
REMARK                         _______ _______ _______ _____ _____    ______ ____
ROOT
ATOM      1  C   UNL     1       1.429   9.288  18.688  0.00  0.00    +0.000 A 
ATOM      2  C   UNL     1       2.232   8.924  17.682  0.00  0.00    +0.000 A 
ATOM      3  C   UNL     1       3.039   7.739  17.810  0.00  0.00    +0.000 A 
ATOM      4  C   UNL     1       2.874   6.860  18.819  0.00  0.00    +0.000 A 
ATOM      5  C   UNL     1       1.987   7.293  19.959  0.00  0.00    +0.000 A 
ATOM      6  O   UNL     1       1.816   6.635  20.979  0.00  0.00    +0.000 OA
ATOM      7  N   UNL     1       1.343   8.504  19.807  0.00  0.00    +0.000 N 
ATOM      8  H   UNL     1       0.774   8.805  20.589  0.00  0.00    +0.000 HD
ENDROOT
BRANCH   4   9
ATOM      9  C   UNL     1       3.674   5.598  18.892  0.00  0.00    +0.000 C 
ATOM     10  O   UNL     1       4.863   5.665  19.204  0.00  0.00    +0.000 OA
ATOM     11  N   UNL     1       3.066   4.368  18.627  0.00  0.00    +0.000 N 
ATOM     12  C   UNL     1       1.714   4.119  18.102  0.00  0.00    +0.000 C 
ATOM     13  C   UNL     1       1.103   2.802  18.596  0.00  0.00    +0.000 C 
ATOM     14  O   UNL     1       2.008   1.703  18.459  0.00  0.00    +0.000 OA
ATOM     15  C   UNL     1       3.217   1.967  19.184  0.00  0.00    +0.000 C 
ATOM     16  C   UNL     1       3.932   3.180  18.593  0.00  0.00    +0.000 C 
ENDBRANCH   4   9
BRANCH   1  22
ATOM     17  C   UNL     1      -2.956  11.536  18.123  0.00  0.00    +0.000 C 
ATOM     18  C   UNL     1      -1.482  11.639  18.372  0.00  0.00    +0.000 A 
ATOM     19  C   UNL     1      -0.855  12.874  18.604  0.00  0.00    +0.000 A 
ATOM     20  C   UNL     1       0.519  12.939  18.841  0.00  0.00    +0.000 A 
ATOM     21  C   UNL     1       1.284  11.773  18.852  0.00  0.00    +0.000 A 
ATOM     22  C   UNL     1       0.672  10.538  18.622  0.00  0.00    +0.000 A 
ATOM     23  C   UNL     1      -0.708  10.479  18.383  0.00  0.00    +0.000 A 
ENDBRANCH   1  22
TORSDOF 2
ENDMDL
MODEL 9
REMARK VINA RESULT:      -7.5      5.828      8.831
REMARK  Name = 
REMARK  3 active torsions:
REMARK  status: ('A' for Active; 'I' for Inactive)
REMARK    1  A    between atoms: C_1  and  C_2
REMARK    2  A    between atoms: C_6  and  C_7
REMARK    3  A    between atoms: C_10  and  C_11
REMARK                            x       y       z     vdW  Elec       q    Type
REMARK                         _______ _______ _______ _____ _____    ______ ____
ROOT
ATOM      1  C   UNL     1       2.611   7.352  18.467  0.00  0.00    +0.000 A 
ATOM      2  C   UNL     1       2.394   8.477  17.778  0.00  0.00    +0.000 A 
ATOM      3  C   UNL     1       1.640   9.545  18.380  0.00  0.00    +0.000 A 
ATOM      4  C   UNL     1       1.312   9.548  19.687  0.00  0.00    +0.000 A 
ATOM      5  C   UNL     1       1.537   8.266  20.447  0.00  0.00    +0.000 A 
ATOM      6  O   UNL     1       1.206   8.097  21.615  0.00  0.00    +0.000 OA
ATOM      7  N   UNL     1       2.161   7.246  19.755  0.00  0.00    +0.000 N 
ATOM      8  H   UNL     1       2.280   6.377  20.261  0.00  0.00    +0.000 HD
ENDROOT
BRANCH   4   9
ATOM      9  C   UNL     1       0.592  10.703  20.308  0.00  0.00    +0.000 C 
ATOM     10  O   UNL     1       1.167  11.369  21.170  0.00  0.00    +0.000 OA
ATOM     11  N   UNL     1      -0.704  11.024  19.895  0.00  0.00    +0.000 N 
ATOM     12  C   UNL     1      -1.586  10.258  18.999  0.00  0.00    +0.000 C 
ATOM     13  C   UNL     1      -2.547  11.140  18.193  0.00  0.00    +0.000 C 
ATOM     14  O   UNL     1      -3.218  12.098  19.015  0.00  0.00    +0.000 OA
ATOM     15  C   UNL     1      -2.261  12.929  19.687  0.00  0.00    +0.000 C 
ATOM     16  C   UNL     1      -1.403  12.089  20.630  0.00  0.00    +0.000 C 
ENDBRANCH   4   9
BRANCH   1  22
ATOM     17  C   UNL     1       2.694   2.481  17.534  0.00  0.00    +0.000 C 
ATOM     18  C   UNL     1       3.318   3.833  17.365  0.00  0.00    +0.000 A 
ATOM     19  C   UNL     1       4.471   4.023  16.584  0.00  0.00    +0.000 A 
ATOM     20  C   UNL     1       5.025   5.295  16.437  0.00  0.00    +0.000 A 
ATOM     21  C   UNL     1       4.438   6.393  17.066  0.00  0.00    +0.000 A 
ATOM     22  C   UNL     1       3.292   6.216  17.845  0.00  0.00    +0.000 A 
ATOM     23  C   UNL     1       2.739   4.937  17.990  0.00  0.00    +0.000 A 
ENDBRANCH   1  22
TORSDOF 2
ENDMDL
