MODEL 1
REMARK VINA RESULT:      -8.0      0.000      0.000
REMARK  Name = 
REMARK  4 active torsions:
REMARK  status: ('A' for Active; 'I' for Inactive)
REMARK    1  A    between atoms: C_2  and  C_17
REMARK    2  A    between atoms: N_3  and  C_4
REMARK    3  A    between atoms: C_7  and  C_8
REMARK    4  A    between atoms: C_8  and  N_9
REMARK                            x       y       z     vdW  Elec       q    Type
REMARK                         _______ _______ _______ _____ _____    ______ ____
ROOT
ATOM      1  O   UNL     1       1.617   9.660  22.325  0.00  0.00    +0.000 OA
ATOM      2  C   UNL     1       0.712   9.850  21.518  0.00  0.00    +0.000 C 
ATOM      3  N   UNL     1       0.656   9.294  20.251  0.00  0.00    +0.000 N 
ATOM      4  H   UNL     1      -0.142   9.577  19.695  0.00  0.00    +0.000 HD
ENDROOT
BRANCH   2   5
ATOM      5  C   UNL     1      -0.410  10.723  21.839  0.00  0.00    +0.000 A 
ATOM      6  C   UNL     1      -1.098  10.864  23.030  0.00  0.00    +0.000 A 
ATOM      7  C   UNL     1      -2.104  11.836  22.828  0.00  0.00    +0.000 A 
ATOM      8  C   UNL     1      -3.105  12.424  23.621  0.00  0.00    +0.000 A 
ATOM      9  C   UNL     1      -3.949  13.381  23.043  0.00  0.00    +0.000 A 
ATOM     10  C   UNL     1      -3.807  13.746  21.703  0.00  0.00    +0.000 A 
ATOM     11  C   UNL     1      -2.815  13.175  20.895  0.00  0.00    +0.000 A 
ATOM     12  C   UNL     1      -1.984  12.230  21.497  0.00  0.00    +0.000 A 
ATOM     13  O   UNL     1      -0.952  11.560  20.895  0.00  0.00    +0.000 OA
ENDBRANCH   2   5
BRANCH   3  14
ATOM     14  C   UNL     1       1.558   8.372  19.670  0.00  0.00    +0.000 A 
ATOM     15  C   UNL     1       1.932   7.157  20.249  0.00  0.00    +0.000 A 
ATOM     16  C   UNL     1       2.781   6.265  19.571  0.00  0.00    +0.000 A 
ATOM     17  C   UNL     1       3.277   6.569  18.298  0.00  0.00    +0.000 A 
ATOM     18  C   UNL     1       2.952   7.818  17.751  0.00  0.00    +0.000 A 
ATOM     19  C   UNL     1       2.094   8.701  18.422  0.00  0.00    +0.000 A 
BRANCH  17  20
ATOM     20  C   UNL     1       4.183   5.614  17.549  0.00  0.00    +0.000 C 
BRANCH  20  21
ATOM     21  N   UNL     1       5.421   6.119  16.949  0.00  0.00    +0.000 NA
ATOM     22  C   UNL     1       5.768   5.639  15.606  0.00  0.00    +0.000 C 
ATOM     23  C   UNL     1       6.643   4.371  15.583  0.00  0.00    +0.000 C 
ATOM     24  O   UNL     1       7.806   4.508  16.410  0.00  0.00    +0.000 OA
ATOM     25  C   UNL     1       7.444   4.841  17.755  0.00  0.00    +0.000 C 
ATOM     26  C   UNL     1       6.609   6.127  17.809  0.00  0.00    +0.000 C 
ENDBRANCH  20  21
ENDBRANCH  17  20
ENDBRANCH   3  14
TORSDOF 4
ENDMDL
MODEL 2
REMARK VINA RESULT:      -7.8      6.873      8.883
REMARK  Name = 
REMARK  4 active torsions:
REMARK  status: ('A' for Active; 'I' for Inactive)
REMARK    1  A    between atoms: C_2  and  C_17
REMARK    2  A    between atoms: N_3  and  C_4
REMARK    3  A    between atoms: C_7  and  C_8
REMARK    4  A    between atoms: C_8  and  N_9
REMARK                            x       y       z     vdW  Elec       q    Type
REMARK                         _______ _______ _______ _____ _____    ______ ____
ROOT
ATOM      1  O   UNL     1       8.608   7.299  19.027  0.00  0.00    +0.000 OA
ATOM      2  C   UNL     1       8.162   8.212  18.339  0.00  0.00    +0.000 C 
ATOM      3  N   UNL     1       7.116   8.084  17.440  0.00  0.00    +0.000 N 
ATOM      4  H   UNL     1       6.889   8.926  16.925  0.00  0.00    +0.000 HD
ENDROOT
BRANCH   2   5
ATOM      5  C   UNL     1       8.731   9.552  18.407  0.00  0.00    +0.000 A 
ATOM      6  C   UNL     1       8.514  10.640  17.581  0.00  0.00    +0.000 A 
ATOM      7  C   UNL     1       9.306  11.706  18.066  0.00  0.00    +0.000 A 
ATOM      8  C   UNL     1       9.524  13.044  17.691  0.00  0.00    +0.000 A 
ATOM      9  C   UNL     1      10.423  13.816  18.438  0.00  0.00    +0.000 A 
ATOM     10  C   UNL     1      11.097  13.272  19.534  0.00  0.00    +0.000 A 
ATOM     11  C   UNL     1      10.892  11.942  19.925  0.00  0.00    +0.000 A 
ATOM     12  C   UNL     1       9.987  11.198  19.168  0.00  0.00    +0.000 A 
ATOM     13  O   UNL     1       9.637   9.891  19.383  0.00  0.00    +0.000 OA
ENDBRANCH   2   5
BRANCH   3  14
ATOM     14  C   UNL     1       6.329   6.936  17.187  0.00  0.00    +0.000 A 
ATOM     15  C   UNL     1       6.825   5.729  16.688  0.00  0.00    +0.000 A 
ATOM     16  C   UNL     1       5.986   4.612  16.532  0.00  0.00    +0.000 A 
ATOM     17  C   UNL     1       4.630   4.677  16.870  0.00  0.00    +0.000 A 
ATOM     18  C   UNL     1       4.124   5.909  17.308  0.00  0.00    +0.000 A 
ATOM     19  C   UNL     1       4.964   7.019  17.476  0.00  0.00    +0.000 A 
BRANCH  17  20
ATOM     20  C   UNL     1       3.715   3.480  16.718  0.00  0.00    +0.000 C 
BRANCH  20  21
ATOM     21  N   UNL     1       3.612   2.511  17.813  0.00  0.00    +0.000 NA
ATOM     22  C   UNL     1       2.335   1.807  17.978  0.00  0.00    +0.000 C 
ATOM     23  C   UNL     1       1.332   2.504  18.917  0.00  0.00    +0.000 C 
ATOM     24  O   UNL     1       1.922   2.827  20.183  0.00  0.00    +0.000 OA
ATOM     25  C   UNL     1       3.093   3.635  20.014  0.00  0.00    +0.000 C 
ATOM     26  C   UNL     1       4.127   2.941  19.118  0.00  0.00    +0.000 C 
ENDBRANCH  20  21
ENDBRANCH  17  20
ENDBRANCH   3  14
TORSDOF 4
ENDMDL
MODEL 3
REMARK VINA RESULT:      -7.8      6.775      9.238
REMARK  Name = 
REMARK  4 active torsions:
REMARK  status: ('A' for Active; 'I' for Inactive)
REMARK    1  A    between atoms: C_2  and  C_17
REMARK    2  A    between atoms: N_3  and  C_4
REMARK    3  A    between atoms: C_7  and  C_8
REMARK    4  A    between atoms: C_8  and  N_9
REMARK                            x       y       z     vdW  Elec       q    Type
REMARK                         _______ _______ _______ _____ _____    ______ ____
ROOT
ATOM      1  O   UNL     1       9.107   9.775  19.940  0.00  0.00    +0.000 OA
ATOM      2  C   UNL     1       8.996  10.132  18.771  0.00  0.00    +0.000 C 
ATOM      3  N   UNL     1       8.432   9.369  17.763  0.00  0.00    +0.000 N 
ATOM      4  H   UNL     1       8.446   9.795  16.844  0.00  0.00    +0.000 HD
ENDROOT
BRANCH   2   5
ATOM      5  C   UNL     1       9.484  11.435  18.333  0.00  0.00    +0.000 A 
ATOM      6  C   UNL     1      10.646  11.752  17.654  0.00  0.00    +0.000 A 
ATOM      7  C   UNL     1      10.661  13.153  17.469  0.00  0.00    +0.000 A 
ATOM      8  C   UNL     1      11.533  14.076  16.863  0.00  0.00    +0.000 A 
ATOM      9  C   UNL     1      11.200  15.436  16.890  0.00  0.00    +0.000 A 
ATOM     10  C   UNL     1      10.028  15.876  17.510  0.00  0.00    +0.000 A 
ATOM     11  C   UNL     1       9.145  14.973  18.117  0.00  0.00    +0.000 A 
ATOM     12  C   UNL     1       9.497  13.624  18.071  0.00  0.00    +0.000 A 
ATOM     13  O   UNL     1       8.776  12.582  18.592  0.00  0.00    +0.000 OA
ENDBRANCH   2   5
BRANCH   3  14
ATOM     14  C   UNL     1       7.827   8.096  17.878  0.00  0.00    +0.000 A 
ATOM     15  C   UNL     1       8.312   7.056  18.675  0.00  0.00    +0.000 A 
ATOM     16  C   UNL     1       7.609   5.844  18.789  0.00  0.00    +0.000 A 
ATOM     17  C   UNL     1       6.405   5.643  18.105  0.00  0.00    +0.000 A 
ATOM     18  C   UNL     1       5.957   6.664  17.255  0.00  0.00    +0.000 A 
ATOM     19  C   UNL     1       6.651   7.877  17.153  0.00  0.00    +0.000 A 
BRANCH  17  20
ATOM     20  C   UNL     1       5.630   4.347  18.225  0.00  0.00    +0.000 C 
BRANCH  20  21
ATOM     21  N   UNL     1       4.723   4.155  19.360  0.00  0.00    +0.000 NA
ATOM     22  C   UNL     1       4.406   2.776  19.749  0.00  0.00    +0.000 C 
ATOM     23  C   UNL     1       3.165   2.181  19.057  0.00  0.00    +0.000 C 
ATOM     24  O   UNL     1       2.022   3.038  19.181  0.00  0.00    +0.000 OA
ATOM     25  C   UNL     1       2.302   4.345  18.668  0.00  0.00    +0.000 C 
ATOM     26  C   UNL     1       3.509   4.978  19.373  0.00  0.00    +0.000 C 
ENDBRANCH  20  21
ENDBRANCH  17  20
ENDBRANCH   3  14
TORSDOF 4
ENDMDL
MODEL 4
REMARK VINA RESULT:      -7.7      2.310     10.325
REMARK  Name = 
REMARK  4 active torsions:
REMARK  status: ('A' for Active; 'I' for Inactive)
REMARK    1  A    between atoms: C_2  and  C_17
REMARK    2  A    between atoms: N_3  and  C_4
REMARK    3  A    between atoms: C_7  and  C_8
REMARK    4  A    between atoms: C_8  and  N_9
REMARK                            x       y       z     vdW  Elec       q    Type
REMARK                         _______ _______ _______ _____ _____    ______ ____
ROOT
ATOM      1  O   UNL     1       1.775   5.940  20.528  0.00  0.00    +0.000 OA
ATOM      2  C   UNL     1       2.199   6.735  19.694  0.00  0.00    +0.000 C 
ATOM      3  N   UNL     1       1.879   8.081  19.655  0.00  0.00    +0.000 N 
ATOM      4  H   UNL     1       2.286   8.596  18.882  0.00  0.00    +0.000 HD
ENDROOT
BRANCH   2   5
ATOM      5  C   UNL     1       3.094   6.301  18.629  0.00  0.00    +0.000 A 
ATOM      6  C   UNL     1       3.730   7.052  17.658  0.00  0.00    +0.000 A 
ATOM      7  C   UNL     1       4.485   6.164  16.859  0.00  0.00    +0.000 A 
ATOM      8  C   UNL     1       5.337   6.292  15.748  0.00  0.00    +0.000 A 
ATOM      9  C   UNL     1       5.916   5.137  15.206  0.00  0.00    +0.000 A 
ATOM     10  C   UNL     1       5.654   3.879  15.751  0.00  0.00    +0.000 A 
ATOM     11  C   UNL     1       4.810   3.730  16.860  0.00  0.00    +0.000 A 
ATOM     12  C   UNL     1       4.251   4.895  17.384  0.00  0.00    +0.000 A 
ATOM     13  O   UNL     1       3.411   4.975  18.463  0.00  0.00    +0.000 OA
ENDBRANCH   2   5
BRANCH   3  14
ATOM     14  C   UNL     1       1.084   8.809  20.571  0.00  0.00    +0.000 A 
ATOM     15  C   UNL     1       1.132   8.655  21.959  0.00  0.00    +0.000 A 
ATOM     16  C   UNL     1       0.358   9.469  22.804  0.00  0.00    +0.000 A 
ATOM     17  C   UNL     1      -0.485  10.456  22.279  0.00  0.00    +0.000 A 
ATOM     18  C   UNL     1      -0.579  10.561  20.885  0.00  0.00    +0.000 A 
ATOM     19  C   UNL     1       0.204   9.758  20.043  0.00  0.00    +0.000 A 
BRANCH  17  20
ATOM     20  C   UNL     1      -1.317  11.349  23.176  0.00  0.00    +0.000 C 
BRANCH  20  21
ATOM     21  N   UNL     1      -1.841  12.611  22.647  0.00  0.00    +0.000 NA
ATOM     22  C   UNL     1      -1.151  13.847  23.036  0.00  0.00    +0.000 C 
ATOM     23  C   UNL     1      -1.699  14.515  24.311  0.00  0.00    +0.000 C 
ATOM     24  O   UNL     1      -3.119  14.702  24.249  0.00  0.00    +0.000 OA
ATOM     25  C   UNL     1      -3.791  13.460  24.007  0.00  0.00    +0.000 C 
ATOM     26  C   UNL     1      -3.294  12.796  22.717  0.00  0.00    +0.000 C 
ENDBRANCH  20  21
ENDBRANCH  17  20
ENDBRANCH   3  14
TORSDOF 4
ENDMDL
MODEL 5
REMARK VINA RESULT:      -7.6      0.716      1.160
REMARK  Name = 
REMARK  4 active torsions:
REMARK  status: ('A' for Active; 'I' for Inactive)
REMARK    1  A    between atoms: C_2  and  C_17
REMARK    2  A    between atoms: N_3  and  C_4
REMARK    3  A    between atoms: C_7  and  C_8
REMARK    4  A    between atoms: C_8  and  N_9
REMARK                            x       y       z     vdW  Elec       q    Type
REMARK                         _______ _______ _______ _____ _____    ______ ____
ROOT
ATOM      1  O   UNL     1       1.518   9.873  22.307  0.00  0.00    +0.000 OA
ATOM      2  C   UNL     1       0.581  10.060  21.535  0.00  0.00    +0.000 C 
ATOM      3  N   UNL     1       0.513   9.567  20.244  0.00  0.00    +0.000 N 
ATOM      4  H   UNL     1      -0.314   9.839  19.725  0.00  0.00    +0.000 HD
ENDROOT
BRANCH   2   5
ATOM      5  C   UNL     1      -0.570  10.862  21.932  0.00  0.00    +0.000 A 
ATOM      6  C   UNL     1      -1.254  10.878  23.134  0.00  0.00    +0.000 A 
ATOM      7  C   UNL     1      -2.296  11.825  23.017  0.00  0.00    +0.000 A 
ATOM      8  C   UNL     1      -3.313  12.308  23.861  0.00  0.00    +0.000 A 
ATOM      9  C   UNL     1      -4.196  13.276  23.367  0.00  0.00    +0.000 A 
ATOM     10  C   UNL     1      -4.078  13.756  22.061  0.00  0.00    +0.000 A 
ATOM     11  C   UNL     1      -3.071  13.290  21.205  0.00  0.00    +0.000 A 
ATOM     12  C   UNL     1      -2.201  12.331  21.723  0.00  0.00    +0.000 A 
ATOM     13  O   UNL     1      -1.149  11.752  21.062  0.00  0.00    +0.000 OA
ENDBRANCH   2   5
BRANCH   3  14
ATOM     14  C   UNL     1       1.439   8.720  19.591  0.00  0.00    +0.000 A 
ATOM     15  C   UNL     1       1.862   7.481  20.079  0.00  0.00    +0.000 A 
ATOM     16  C   UNL     1       2.732   6.669  19.332  0.00  0.00    +0.000 A 
ATOM     17  C   UNL     1       3.201   7.078  18.079  0.00  0.00    +0.000 A 
ATOM     18  C   UNL     1       2.826   8.349  17.623  0.00  0.00    +0.000 A 
ATOM     19  C   UNL     1       1.948   9.153  18.363  0.00  0.00    +0.000 A 
BRANCH  17  20
ATOM     20  C   UNL     1       4.130   6.209  17.256  0.00  0.00    +0.000 C 
BRANCH  20  21
ATOM     21  N   UNL     1       4.953   5.200  17.929  0.00  0.00    +0.000 NA
ATOM     22  C   UNL     1       6.058   5.677  18.769  0.00  0.00    +0.000 C 
ATOM     23  C   UNL     1       7.404   5.833  18.035  0.00  0.00    +0.000 C 
ATOM     24  O   UNL     1       7.762   4.644  17.318  0.00  0.00    +0.000 OA
ATOM     25  C   UNL     1       6.731   4.268  16.398  0.00  0.00    +0.000 C 
ATOM     26  C   UNL     1       5.390   4.062  17.113  0.00  0.00    +0.000 C 
ENDBRANCH  20  21
ENDBRANCH  17  20
ENDBRANCH   3  14
TORSDOF 4
ENDMDL
MODEL 6
REMARK VINA RESULT:      -7.6      0.641      1.235
REMARK  Name = 
REMARK  4 active torsions:
REMARK  status: ('A' for Active; 'I' for Inactive)
REMARK    1  A    between atoms: C_2  and  C_17
REMARK    2  A    between atoms: N_3  and  C_4
REMARK    3  A    between atoms: C_7  and  C_8
REMARK    4  A    between atoms: C_8  and  N_9
REMARK                            x       y       z     vdW  Elec       q    Type
REMARK                         _______ _______ _______ _____ _____    ______ ____
ROOT
ATOM      1  O   UNL     1       1.361  10.140  22.119  0.00  0.00    +0.000 OA
ATOM      2  C   UNL     1       0.464  10.247  21.288  0.00  0.00    +0.000 C 
ATOM      3  N   UNL     1       0.440   9.596  20.066  0.00  0.00    +0.000 N 
ATOM      4  H   UNL     1      -0.356   9.817  19.479  0.00  0.00    +0.000 HD
ENDROOT
BRANCH   2   5
ATOM      5  C   UNL     1      -0.682  11.115  21.527  0.00  0.00    +0.000 A 
ATOM      6  C   UNL     1      -1.304  12.002  20.668  0.00  0.00    +0.000 A 
ATOM      7  C   UNL     1      -2.366  12.607  21.377  0.00  0.00    +0.000 A 
ATOM      8  C   UNL     1      -3.357  13.560  21.079  0.00  0.00    +0.000 A 
ATOM      9  C   UNL     1      -4.262  13.928  22.083  0.00  0.00    +0.000 A 
ATOM     10  C   UNL     1      -4.186  13.366  23.360  0.00  0.00    +0.000 A 
ATOM     11  C   UNL     1      -3.208  12.414  23.676  0.00  0.00    +0.000 A 
ATOM     12  C   UNL     1      -2.323  12.060  22.657  0.00  0.00    +0.000 A 
ATOM     13  O   UNL     1      -1.305  11.148  22.750  0.00  0.00    +0.000 OA
ENDBRANCH   2   5
BRANCH   3  14
ATOM     14  C   UNL     1       1.372   8.656  19.568  0.00  0.00    +0.000 A 
ATOM     15  C   UNL     1       1.778   7.505  20.249  0.00  0.00    +0.000 A 
ATOM     16  C   UNL     1       2.656   6.584  19.652  0.00  0.00    +0.000 A 
ATOM     17  C   UNL     1       3.150   6.794  18.359  0.00  0.00    +0.000 A 
ATOM     18  C   UNL     1       2.791   7.981  17.707  0.00  0.00    +0.000 A 
ATOM     19  C   UNL     1       1.905   8.893  18.298  0.00  0.00    +0.000 A 
BRANCH  17  20
ATOM     20  C   UNL     1       4.088   5.806  17.697  0.00  0.00    +0.000 C 
BRANCH  20  21
ATOM     21  N   UNL     1       5.264   6.303  16.977  0.00  0.00    +0.000 NA
ATOM     22  C   UNL     1       5.435   5.875  15.584  0.00  0.00    +0.000 C 
ATOM     23  C   UNL     1       6.257   4.585  15.403  0.00  0.00    +0.000 C 
ATOM     24  O   UNL     1       7.513   4.650  16.092  0.00  0.00    +0.000 OA
ATOM     25  C   UNL     1       7.321   4.930  17.483  0.00  0.00    +0.000 C 
ATOM     26  C   UNL     1       6.543   6.236  17.691  0.00  0.00    +0.000 C 
ENDBRANCH  20  21
ENDBRANCH  17  20
ENDBRANCH   3  14
TORSDOF 4
ENDMDL
MODEL 7
REMARK VINA RESULT:      -7.6      1.068      1.419
REMARK  Name = 
REMARK  4 active torsions:
REMARK  status: ('A' for Active; 'I' for Inactive)
REMARK    1  A    between atoms: C_2  and  C_17
REMARK    2  A    between atoms: N_3  and  C_4
REMARK    3  A    between atoms: C_7  and  C_8
REMARK    4  A    between atoms: C_8  and  N_9
REMARK                            x       y       z     vdW  Elec       q    Type
REMARK                         _______ _______ _______ _____ _____    ______ ____
ROOT
ATOM      1  O   UNL     1       1.885   9.170  22.569  0.00  0.00    +0.000 OA
ATOM      2  C   UNL     1       1.048   9.594  21.778  0.00  0.00    +0.000 C 
ATOM      3  N   UNL     1       0.935   9.192  20.458  0.00  0.00    +0.000 N 
ATOM      4  H   UNL     1       0.213   9.663  19.927  0.00  0.00    +0.000 HD
ENDROOT
BRANCH   2   5
ATOM      5  C   UNL     1       0.081  10.609  22.179  0.00  0.00    +0.000 A 
ATOM      6  C   UNL     1      -1.108  10.461  22.869  0.00  0.00    +0.000 A 
ATOM      7  C   UNL     1      -1.682  11.746  23.006  0.00  0.00    +0.000 A 
ATOM      8  C   UNL     1      -2.848  12.265  23.597  0.00  0.00    +0.000 A 
ATOM      9  C   UNL     1      -3.088  13.643  23.517  0.00  0.00    +0.000 A 
ATOM     10  C   UNL     1      -2.193  14.490  22.860  0.00  0.00    +0.000 A 
ATOM     11  C   UNL     1      -1.025  13.993  22.266  0.00  0.00    +0.000 A 
ATOM     12  C   UNL     1      -0.806  12.619  22.366  0.00  0.00    +0.000 A 
ATOM     13  O   UNL     1       0.270  11.933  21.868  0.00  0.00    +0.000 OA
ENDBRANCH   2   5
BRANCH   3  14
ATOM     14  C   UNL     1       1.685   8.195  19.790  0.00  0.00    +0.000 A 
ATOM     15  C   UNL     1       1.960   6.928  20.310  0.00  0.00    +0.000 A 
ATOM     16  C   UNL     1       2.653   5.970  19.551  0.00  0.00    +0.000 A 
ATOM     17  C   UNL     1       3.090   6.258  18.253  0.00  0.00    +0.000 A 
ATOM     18  C   UNL     1       2.870   7.552  17.761  0.00  0.00    +0.000 A 
ATOM     19  C   UNL     1       2.167   8.503  18.515  0.00  0.00    +0.000 A 
BRANCH  17  20
ATOM     20  C   UNL     1       3.829   5.233  17.417  0.00  0.00    +0.000 C 
BRANCH  20  21
ATOM     21  N   UNL     1       5.243   4.965  17.694  0.00  0.00    +0.000 NA
ATOM     22  C   UNL     1       6.044   6.062  18.250  0.00  0.00    +0.000 C 
ATOM     23  C   UNL     1       6.739   6.948  17.200  0.00  0.00    +0.000 C 
ATOM     24  O   UNL     1       7.492   6.171  16.259  0.00  0.00    +0.000 OA
ATOM     25  C   UNL     1       6.663   5.194  15.619  0.00  0.00    +0.000 C 
ATOM     26  C   UNL     1       5.994   4.269  16.644  0.00  0.00    +0.000 C 
ENDBRANCH  20  21
ENDBRANCH  17  20
ENDBRANCH   3  14
TORSDOF 4
ENDMDL
MODEL 8
REMARK VINA RESULT:      -7.6      6.883      8.663
REMARK  Name = 
REMARK  4 active torsions:
REMARK  status: ('A' for Active; 'I' for Inactive)
REMARK    1  A    between atoms: C_2  and  C_17
REMARK    2  A    between atoms: N_3  and  C_4
REMARK    3  A    between atoms: C_7  and  C_8
REMARK    4  A    between atoms: C_8  and  N_9
REMARK                            x       y       z     vdW  Elec       q    Type
REMARK                         _______ _______ _______ _____ _____    ______ ____
ROOT
ATOM      1  O   UNL     1       8.660   7.463  18.996  0.00  0.00    +0.000 OA
ATOM      2  C   UNL     1       8.187   8.364  18.309  0.00  0.00    +0.000 C 
ATOM      3  N   UNL     1       7.147   8.206  17.409  0.00  0.00    +0.000 N 
ATOM      4  H   UNL     1       6.895   9.042  16.895  0.00  0.00    +0.000 HD
ENDROOT
BRANCH   2   5
ATOM      5  C   UNL     1       8.717   9.720  18.380  0.00  0.00    +0.000 A 
ATOM      6  C   UNL     1       9.772  10.211  19.127  0.00  0.00    +0.000 A 
ATOM      7  C   UNL     1       9.884  11.592  18.848  0.00  0.00    +0.000 A 
ATOM      8  C   UNL     1      10.733  12.633  19.263  0.00  0.00    +0.000 A 
ATOM      9  C   UNL     1      10.519  13.921  18.755  0.00  0.00    +0.000 A 
ATOM     10  C   UNL     1       9.481  14.174  17.856  0.00  0.00    +0.000 A 
ATOM     11  C   UNL     1       8.625  13.151  17.428  0.00  0.00    +0.000 A 
ATOM     12  C   UNL     1       8.864  11.877  17.944  0.00  0.00    +0.000 A 
ATOM     13  O   UNL     1       8.156  10.741  17.652  0.00  0.00    +0.000 OA
ENDBRANCH   2   5
BRANCH   3  14
ATOM     14  C   UNL     1       6.395   7.035  17.153  0.00  0.00    +0.000 A 
ATOM     15  C   UNL     1       6.934   5.831  16.695  0.00  0.00    +0.000 A 
ATOM     16  C   UNL     1       6.126   4.692  16.534  0.00  0.00    +0.000 A 
ATOM     17  C   UNL     1       4.757   4.733  16.826  0.00  0.00    +0.000 A 
ATOM     18  C   UNL     1       4.210   5.960  17.223  0.00  0.00    +0.000 A 
ATOM     19  C   UNL     1       5.019   7.092  17.396  0.00  0.00    +0.000 A 
BRANCH  17  20
ATOM     20  C   UNL     1       3.875   3.512  16.669  0.00  0.00    +0.000 C 
BRANCH  20  21
ATOM     21  N   UNL     1       3.752   2.566  17.782  0.00  0.00    +0.000 NA
ATOM     22  C   UNL     1       2.487   1.833  17.911  0.00  0.00    +0.000 C 
ATOM     23  C   UNL     1       1.430   2.525  18.792  0.00  0.00    +0.000 C 
ATOM     24  O   UNL     1       1.959   2.892  20.073  0.00  0.00    +0.000 OA
ATOM     25  C   UNL     1       3.115   3.726  19.932  0.00  0.00    +0.000 C 
ATOM     26  C   UNL     1       4.202   3.039  19.095  0.00  0.00    +0.000 C 
ENDBRANCH  20  21
ENDBRANCH  17  20
ENDBRANCH   3  14
TORSDOF 4
ENDMDL
MODEL 9
REMARK VINA RESULT:      -7.5      2.335     10.291
REMARK  Name = 
REMARK  4 active torsions:
REMARK  status: ('A' for Active; 'I' for Inactive)
REMARK    1  A    between atoms: C_2  and  C_17
REMARK    2  A    between atoms: N_3  and  C_4
REMARK    3  A    between atoms: C_7  and  C_8
REMARK    4  A    between atoms: C_8  and  N_9
REMARK                            x       y       z     vdW  Elec       q    Type
REMARK                         _______ _______ _______ _____ _____    ______ ____
ROOT
ATOM      1  O   UNL     1       1.702   6.015  20.693  0.00  0.00    +0.000 OA
ATOM      2  C   UNL     1       2.137   6.682  19.759  0.00  0.00    +0.000 C 
ATOM      3  N   UNL     1       1.859   8.021  19.548  0.00  0.00    +0.000 N 
ATOM      4  H   UNL     1       2.270   8.418  18.711  0.00  0.00    +0.000 HD
ENDROOT
BRANCH   2   5
ATOM      5  C   UNL     1       3.003   6.084  18.749  0.00  0.00    +0.000 A 
ATOM      6  C   UNL     1       3.316   4.754  18.539  0.00  0.00    +0.000 A 
ATOM      7  C   UNL     1       4.201   4.694  17.439  0.00  0.00    +0.000 A 
ATOM      8  C   UNL     1       4.860   3.669  16.737  0.00  0.00    +0.000 A 
ATOM      9  C   UNL     1       5.695   4.014  15.667  0.00  0.00    +0.000 A 
ATOM     10  C   UNL     1       5.877   5.349  15.300  0.00  0.00    +0.000 A 
ATOM     11  C   UNL     1       5.228   6.385  15.984  0.00  0.00    +0.000 A 
ATOM     12  C   UNL     1       4.397   6.014  17.042  0.00  0.00    +0.000 A 
ATOM     13  O   UNL     1       3.666   6.862  17.832  0.00  0.00    +0.000 OA
ENDBRANCH   2   5
BRANCH   3  14
ATOM     14  C   UNL     1       1.101   8.887  20.371  0.00  0.00    +0.000 A 
ATOM     15  C   UNL     1       0.241   9.881  19.896  0.00  0.00    +0.000 A 
ATOM     16  C   UNL     1      -0.531  10.652  20.783  0.00  0.00    +0.000 A 
ATOM     17  C   UNL     1      -0.460  10.447  22.165  0.00  0.00    +0.000 A 
ATOM     18  C   UNL     1       0.452   9.494  22.639  0.00  0.00    +0.000 A 
ATOM     19  C   UNL     1       1.212   8.717  21.754  0.00  0.00    +0.000 A 
BRANCH  17  20
ATOM     20  C   UNL     1      -1.294  11.262  23.133  0.00  0.00    +0.000 C 
BRANCH  20  21
ATOM     21  N   UNL     1      -2.009  12.444  22.645  0.00  0.00    +0.000 NA
ATOM     22  C   UNL     1      -1.377  13.752  22.853  0.00  0.00    +0.000 C 
ATOM     23  C   UNL     1      -1.760  14.449  24.172  0.00  0.00    +0.000 C 
ATOM     24  O   UNL     1      -3.181  14.518  24.347  0.00  0.00    +0.000 OA
ATOM     25  C   UNL     1      -3.770  13.214  24.282  0.00  0.00    +0.000 C 
ATOM     26  C   UNL     1      -3.441  12.516  22.956  0.00  0.00    +0.000 C 
ENDBRANCH  20  21
ENDBRANCH  17  20
ENDBRANCH   3  14
TORSDOF 4
ENDMDL
