MODEL 1
REMARK VINA RESULT:      -6.5      0.000      0.000
REMARK  Name = 
REMARK  8 active torsions:
REMARK  status: ('A' for Active; 'I' for Inactive)
REMARK    1  A    between atoms: C_1  and  S_2
REMARK    2  A    between atoms: S_2  and  C_3
REMARK    3  A    between atoms: C_6  and  C_7
REMARK    4  A    between atoms: C_7  and  N_8
REMARK    5  A    between atoms: N_8  and  C_9
REMARK    6  A    between atoms: C_9  and  C_10
REMARK    7  A    between atoms: C_10  and  O_11
REMARK    8  A    between atoms: C_10  and  C_12
REMARK                            x       y       z     vdW  Elec       q    Type
REMARK                         _______ _______ _______ _____ _____    ______ ____
ROOT
ATOM      1  N   UNL     1       3.535   4.355  17.202  0.00  0.00    +0.000 NA
ATOM      2  H   UNL     1       3.462   4.640  16.196  0.00  0.00    +0.000 HD
ENDROOT
BRANCH   1   3
ATOM      3  C   UNL     1       4.298   5.384  17.917  0.00  0.00    +0.000 C 
BRANCH   3   7
ATOM      4  C   UNL     1       1.639   8.423  19.407  0.00  0.00    +0.000 A 
ATOM      5  C   UNL     1       1.910   7.281  20.170  0.00  0.00    +0.000 A 
ATOM      6  C   UNL     1       2.776   6.304  19.682  0.00  0.00    +0.000 A 
ATOM      7  C   UNL     1       3.368   6.449  18.419  0.00  0.00    +0.000 A 
ATOM      8  C   UNL     1       3.083   7.586  17.646  0.00  0.00    +0.000 A 
ATOM      9  C   UNL     1       2.223   8.573  18.141  0.00  0.00    +0.000 A 
BRANCH   4  11
ATOM     10  C   UNL     1       0.035   8.658  21.479  0.00  0.00    +0.000 C 
ATOM     11  S   UNL     1       0.552   9.686  20.064  0.00  0.00    +0.000 S 
ENDBRANCH   4  11
ENDBRANCH   3   7
ENDBRANCH   1   3
BRANCH   1  12
ATOM     12  C   UNL     1       4.229   3.068  17.286  0.00  0.00    +0.000 C 
BRANCH  12  13
ATOM     13  C   UNL     1       3.300   1.972  17.847  0.00  0.00    +0.000 C 
BRANCH  13  14
ATOM     14  C   UNL     1       2.609   2.452  19.106  0.00  0.00    +0.000 A 
ATOM     15  C   UNL     1       3.322   2.559  20.314  0.00  0.00    +0.000 A 
ATOM     16  C   UNL     1       2.679   2.990  21.478  0.00  0.00    +0.000 A 
ATOM     17  C   UNL     1       1.319   3.314  21.449  0.00  0.00    +0.000 A 
ATOM     18  C   UNL     1       0.603   3.213  20.256  0.00  0.00    +0.000 A 
ATOM     19  C   UNL     1       1.241   2.790  19.090  0.00  0.00    +0.000 A 
ENDBRANCH  13  14
BRANCH  13  20
ATOM     20  O   UNL     1       3.999   0.776  18.097  0.00  0.00    +0.000 OA
ATOM     21  H   UNL     1       4.798   0.994  18.641  0.00  0.00    +0.000 HD
ENDBRANCH  13  20
ENDBRANCH  12  13
ENDBRANCH   1  12
TORSDOF 7
ENDMDL
MODEL 2
REMARK VINA RESULT:      -6.3      2.909      4.785
REMARK  Name = 
REMARK  8 active torsions:
REMARK  status: ('A' for Active; 'I' for Inactive)
REMARK    1  A    between atoms: C_1  and  S_2
REMARK    2  A    between atoms: S_2  and  C_3
REMARK    3  A    between atoms: C_6  and  C_7
REMARK    4  A    between atoms: C_7  and  N_8
REMARK    5  A    between atoms: N_8  and  C_9
REMARK    6  A    between atoms: C_9  and  C_10
REMARK    7  A    between atoms: C_10  and  O_11
REMARK    8  A    between atoms: C_10  and  C_12
REMARK                            x       y       z     vdW  Elec       q    Type
REMARK                         _______ _______ _______ _____ _____    ______ ____
ROOT
ATOM      1  N   UNL     1       2.157   6.140  20.862  0.00  0.00    +0.000 NA
ATOM      2  H   UNL     1       1.770   6.812  21.567  0.00  0.00    +0.000 HD
ENDROOT
BRANCH   1   3
ATOM      3  C   UNL     1       2.376   6.866  19.607  0.00  0.00    +0.000 C 
BRANCH   3   7
ATOM      4  C   UNL     1       5.702   5.183  17.454  0.00  0.00    +0.000 A 
ATOM      5  C   UNL     1       4.615   5.733  16.764  0.00  0.00    +0.000 A 
ATOM      6  C   UNL     1       3.543   6.280  17.469  0.00  0.00    +0.000 A 
ATOM      7  C   UNL     1       3.539   6.269  18.871  0.00  0.00    +0.000 A 
ATOM      8  C   UNL     1       4.622   5.701  19.563  0.00  0.00    +0.000 A 
ATOM      9  C   UNL     1       5.702   5.163  18.856  0.00  0.00    +0.000 A 
BRANCH   4  11
ATOM     10  C   UNL     1       6.016   3.775  15.253  0.00  0.00    +0.000 C 
ATOM     11  S   UNL     1       7.085   4.515  16.533  0.00  0.00    +0.000 S 
ENDBRANCH   4  11
ENDBRANCH   3   7
ENDBRANCH   1   3
BRANCH   1  12
ATOM     12  C   UNL     1       1.193   5.057  20.654  0.00  0.00    +0.000 C 
BRANCH  12  13
ATOM     13  C   UNL     1       1.798   3.693  21.042  0.00  0.00    +0.000 C 
BRANCH  13  14
ATOM     14  C   UNL     1       2.447   3.036  19.842  0.00  0.00    +0.000 A 
ATOM     15  C   UNL     1       1.876   3.164  18.563  0.00  0.00    +0.000 A 
ATOM     16  C   UNL     1       2.470   2.546  17.459  0.00  0.00    +0.000 A 
ATOM     17  C   UNL     1       3.635   1.792  17.621  0.00  0.00    +0.000 A 
ATOM     18  C   UNL     1       4.212   1.659  18.885  0.00  0.00    +0.000 A 
ATOM     19  C   UNL     1       3.626   2.279  19.990  0.00  0.00    +0.000 A 
ENDBRANCH  13  14
BRANCH  13  20
ATOM     20  O   UNL     1       0.833   2.838  21.606  0.00  0.00    +0.000 OA
ATOM     21  H   UNL     1       0.429   2.303  20.876  0.00  0.00    +0.000 HD
ENDBRANCH  13  20
ENDBRANCH  12  13
ENDBRANCH   1  12
TORSDOF 7
ENDMDL
MODEL 3
REMARK VINA RESULT:      -6.3      1.048      1.661
REMARK  Name = 
REMARK  8 active torsions:
REMARK  status: ('A' for Active; 'I' for Inactive)
REMARK    1  A    between atoms: C_1  and  S_2
REMARK    2  A    between atoms: S_2  and  C_3
REMARK    3  A    between atoms: C_6  and  C_7
REMARK    4  A    between atoms: C_7  and  N_8
REMARK    5  A    between atoms: N_8  and  C_9
REMARK    6  A    between atoms: C_9  and  C_10
REMARK    7  A    between atoms: C_10  and  O_11
REMARK    8  A    between atoms: C_10  and  C_12
REMARK                            x       y       z     vdW  Elec       q    Type
REMARK                         _______ _______ _______ _____ _____    ______ ____
ROOT
ATOM      1  N   UNL     1       4.315   5.746  18.745  0.00  0.00    +0.000 NA
ATOM      2  H   UNL     1       3.630   5.454  19.483  0.00  0.00    +0.000 HD
ENDROOT
BRANCH   1   3
ATOM      3  C   UNL     1       3.604   6.559  17.753  0.00  0.00    +0.000 C 
BRANCH   3   7
ATOM      4  C   UNL     1       0.931   9.316  19.697  0.00  0.00    +0.000 A 
ATOM      5  C   UNL     1       1.346   9.539  18.379  0.00  0.00    +0.000 A 
ATOM      6  C   UNL     1       2.208   8.639  17.755  0.00  0.00    +0.000 A 
ATOM      7  C   UNL     1       2.678   7.513  18.447  0.00  0.00    +0.000 A 
ATOM      8  C   UNL     1       2.276   7.298  19.775  0.00  0.00    +0.000 A 
ATOM      9  C   UNL     1       1.401   8.196  20.398  0.00  0.00    +0.000 A 
BRANCH   4  11
ATOM     10  C   UNL     1      -0.197   9.568  22.061  0.00  0.00    +0.000 C 
ATOM     11  S   UNL     1      -0.204  10.464  20.472  0.00  0.00    +0.000 S 
ENDBRANCH   4  11
ENDBRANCH   3   7
ENDBRANCH   1   3
BRANCH   1  12
ATOM     12  C   UNL     1       4.870   4.549  18.108  0.00  0.00    +0.000 C 
BRANCH  12  13
ATOM     13  C   UNL     1       3.779   3.484  17.881  0.00  0.00    +0.000 C 
BRANCH  13  14
ATOM     14  C   UNL     1       2.925   3.323  19.122  0.00  0.00    +0.000 A 
ATOM     15  C   UNL     1       3.463   2.746  20.287  0.00  0.00    +0.000 A 
ATOM     16  C   UNL     1       2.669   2.586  21.427  0.00  0.00    +0.000 A 
ATOM     17  C   UNL     1       1.333   2.995  21.414  0.00  0.00    +0.000 A 
ATOM     18  C   UNL     1       0.789   3.569  20.264  0.00  0.00    +0.000 A 
ATOM     19  C   UNL     1       1.579   3.737  19.125  0.00  0.00    +0.000 A 
ENDBRANCH  13  14
BRANCH  13  20
ATOM     20  O   UNL     1       4.331   2.247  17.502  0.00  0.00    +0.000 OA
ATOM     21  H   UNL     1       3.798   1.890  16.746  0.00  0.00    +0.000 HD
ENDBRANCH  13  20
ENDBRANCH  12  13
ENDBRANCH   1  12
TORSDOF 7
ENDMDL
MODEL 4
REMARK VINA RESULT:      -6.3      1.266      2.086
REMARK  Name = 
REMARK  8 active torsions:
REMARK  status: ('A' for Active; 'I' for Inactive)
REMARK    1  A    between atoms: C_1  and  S_2
REMARK    2  A    between atoms: S_2  and  C_3
REMARK    3  A    between atoms: C_6  and  C_7
REMARK    4  A    between atoms: C_7  and  N_8
REMARK    5  A    between atoms: N_8  and  C_9
REMARK    6  A    between atoms: C_9  and  C_10
REMARK    7  A    between atoms: C_10  and  O_11
REMARK    8  A    between atoms: C_10  and  C_12
REMARK                            x       y       z     vdW  Elec       q    Type
REMARK                         _______ _______ _______ _____ _____    ______ ____
ROOT
ATOM      1  N   UNL     1       4.682   5.716  18.763  0.00  0.00    +0.000 NA
ATOM      2  H   UNL     1       4.164   5.661  19.673  0.00  0.00    +0.000 HD
ENDROOT
BRANCH   1   3
ATOM      3  C   UNL     1       3.781   6.284  17.754  0.00  0.00    +0.000 C 
BRANCH   3   7
ATOM      4  C   UNL     1       1.094   9.121  19.559  0.00  0.00    +0.000 A 
ATOM      5  C   UNL     1       1.531   9.296  18.242  0.00  0.00    +0.000 A 
ATOM      6  C   UNL     1       2.398   8.370  17.663  0.00  0.00    +0.000 A 
ATOM      7  C   UNL     1       2.850   7.267  18.400  0.00  0.00    +0.000 A 
ATOM      8  C   UNL     1       2.426   7.100  19.728  0.00  0.00    +0.000 A 
ATOM      9  C   UNL     1       1.546   8.023  20.306  0.00  0.00    +0.000 A 
BRANCH   4  11
ATOM     10  C   UNL     1      -0.771  10.746  18.662  0.00  0.00    +0.000 C 
ATOM     11  S   UNL     1      -0.046  10.301  20.276  0.00  0.00    +0.000 S 
ENDBRANCH   4  11
ENDBRANCH   3   7
ENDBRANCH   1   3
BRANCH   1  12
ATOM     12  C   UNL     1       5.093   4.367  18.365  0.00  0.00    +0.000 C 
BRANCH  12  13
ATOM     13  C   UNL     1       3.873   3.504  17.985  0.00  0.00    +0.000 C 
BRANCH  13  14
ATOM     14  C   UNL     1       2.967   3.305  19.183  0.00  0.00    +0.000 A 
ATOM     15  C   UNL     1       1.615   3.688  19.125  0.00  0.00    +0.000 A 
ATOM     16  C   UNL     1       0.784   3.516  20.236  0.00  0.00    +0.000 A 
ATOM     17  C   UNL     1       1.295   2.965  21.414  0.00  0.00    +0.000 A 
ATOM     18  C   UNL     1       2.634   2.580  21.483  0.00  0.00    +0.000 A 
ATOM     19  C   UNL     1       3.467   2.744  20.375  0.00  0.00    +0.000 A 
ENDBRANCH  13  14
BRANCH  13  20
ATOM     20  O   UNL     1       4.261   2.261  17.452  0.00  0.00    +0.000 OA
ATOM     21  H   UNL     1       4.739   1.758  18.160  0.00  0.00    +0.000 HD
ENDBRANCH  13  20
ENDBRANCH  12  13
ENDBRANCH   1  12
TORSDOF 7
ENDMDL
MODEL 5
REMARK VINA RESULT:      -6.2      1.173      1.705
REMARK  Name = 
REMARK  8 active torsions:
REMARK  status: ('A' for Active; 'I' for Inactive)
REMARK    1  A    between atoms: C_1  and  S_2
REMARK    2  A    between atoms: S_2  and  C_3
REMARK    3  A    between atoms: C_6  and  C_7
REMARK    4  A    between atoms: C_7  and  N_8
REMARK    5  A    between atoms: N_8  and  C_9
REMARK    6  A    between atoms: C_9  and  C_10
REMARK    7  A    between atoms: C_10  and  O_11
REMARK    8  A    between atoms: C_10  and  C_12
REMARK                            x       y       z     vdW  Elec       q    Type
REMARK                         _______ _______ _______ _____ _____    ______ ____
ROOT
ATOM      1  N   UNL     1       5.204   3.546  17.814  0.00  0.00    +0.000 NA
ATOM      2  H   UNL     1       5.011   3.529  18.844  0.00  0.00    +0.000 HD
ENDROOT
BRANCH   1   3
ATOM      3  C   UNL     1       5.495   4.929  17.424  0.00  0.00    +0.000 C 
BRANCH   3   7
ATOM      4  C   UNL     1       2.480   7.578  18.979  0.00  0.00    +0.000 A 
ATOM      5  C   UNL     1       3.064   7.822  17.731  0.00  0.00    +0.000 A 
ATOM      6  C   UNL     1       4.037   6.957  17.232  0.00  0.00    +0.000 A 
ATOM      7  C   UNL     1       4.448   5.846  17.983  0.00  0.00    +0.000 A 
ATOM      8  C   UNL     1       3.875   5.611  19.243  0.00  0.00    +0.000 A 
ATOM      9  C   UNL     1       2.890   6.473  19.739  0.00  0.00    +0.000 A 
BRANCH   4  11
ATOM     10  C   UNL     1       1.427   9.868  18.223  0.00  0.00    +0.000 C 
ATOM     11  S   UNL     1       1.208   8.681  19.590  0.00  0.00    +0.000 S 
ENDBRANCH   4  11
ENDBRANCH   3   7
ENDBRANCH   1   3
BRANCH   1  12
ATOM     12  C   UNL     1       4.021   3.061  17.099  0.00  0.00    +0.000 C 
BRANCH  12  13
ATOM     13  C   UNL     1       3.349   1.900  17.859  0.00  0.00    +0.000 C 
BRANCH  13  14
ATOM     14  C   UNL     1       2.639   2.413  19.095  0.00  0.00    +0.000 A 
ATOM     15  C   UNL     1       3.250   2.319  20.359  0.00  0.00    +0.000 A 
ATOM     16  C   UNL     1       2.587   2.781  21.499  0.00  0.00    +0.000 A 
ATOM     17  C   UNL     1       1.308   3.335  21.391  0.00  0.00    +0.000 A 
ATOM     18  C   UNL     1       0.693   3.434  20.143  0.00  0.00    +0.000 A 
ATOM     19  C   UNL     1       1.353   2.981  19.000  0.00  0.00    +0.000 A 
ENDBRANCH  13  14
BRANCH  13  20
ATOM     20  O   UNL     1       4.276   0.901  18.206  0.00  0.00    +0.000 OA
ATOM     21  H   UNL     1       4.541   0.424  17.378  0.00  0.00    +0.000 HD
ENDBRANCH  13  20
ENDBRANCH  12  13
ENDBRANCH   1  12
TORSDOF 7
ENDMDL
MODEL 6
REMARK VINA RESULT:      -6.2      2.733      4.684
REMARK  Name = 
REMARK  8 active torsions:
REMARK  status: ('A' for Active; 'I' for Inactive)
REMARK    1  A    between atoms: C_1  and  S_2
REMARK    2  A    between atoms: S_2  and  C_3
REMARK    3  A    between atoms: C_6  and  C_7
REMARK    4  A    between atoms: C_7  and  N_8
REMARK    5  A    between atoms: N_8  and  C_9
REMARK    6  A    between atoms: C_9  and  C_10
REMARK    7  A    between atoms: C_10  and  O_11
REMARK    8  A    between atoms: C_10  and  C_12
REMARK                            x       y       z     vdW  Elec       q    Type
REMARK                         _______ _______ _______ _____ _____    ______ ____
ROOT
ATOM      1  N   UNL     1       2.571   1.729  19.071  0.00  0.00    +0.000 NA
ATOM      2  H   UNL     1       2.958   2.432  19.745  0.00  0.00    +0.000 HD
ENDROOT
BRANCH   1   3
ATOM      3  C   UNL     1       3.398   1.749  17.860  0.00  0.00    +0.000 C 
BRANCH   3   7
ATOM      4  C   UNL     1       6.200   5.007  18.104  0.00  0.00    +0.000 A 
ATOM      5  C   UNL     1       5.664   4.443  19.267  0.00  0.00    +0.000 A 
ATOM      6  C   UNL     1       4.761   3.385  19.180  0.00  0.00    +0.000 A 
ATOM      7  C   UNL     1       4.370   2.889  17.928  0.00  0.00    +0.000 A 
ATOM      8  C   UNL     1       4.894   3.467  16.759  0.00  0.00    +0.000 A 
ATOM      9  C   UNL     1       5.810   4.521  16.848  0.00  0.00    +0.000 A 
BRANCH   4  11
ATOM     10  C   UNL     1       6.405   7.463  17.181  0.00  0.00    +0.000 C 
ATOM     11  S   UNL     1       7.385   6.343  18.235  0.00  0.00    +0.000 S 
ENDBRANCH   4  11
ENDBRANCH   3   7
ENDBRANCH   1   3
BRANCH   1  12
ATOM     12  C   UNL     1       1.190   2.090  18.742  0.00  0.00    +0.000 C 
BRANCH  12  13
ATOM     13  C   UNL     1       0.668   3.199  19.678  0.00  0.00    +0.000 C 
BRANCH  13  14
ATOM     14  C   UNL     1       1.385   4.506  19.409  0.00  0.00    +0.000 A 
ATOM     15  C   UNL     1       1.638   4.920  18.089  0.00  0.00    +0.000 A 
ATOM     16  C   UNL     1       2.311   6.121  17.843  0.00  0.00    +0.000 A 
ATOM     17  C   UNL     1       2.741   6.915  18.909  0.00  0.00    +0.000 A 
ATOM     18  C   UNL     1       2.494   6.514  20.223  0.00  0.00    +0.000 A 
ATOM     19  C   UNL     1       1.817   5.320  20.474  0.00  0.00    +0.000 A 
ENDBRANCH  13  14
BRANCH  13  20
ATOM     20  O   UNL     1       0.798   2.839  21.032  0.00  0.00    +0.000 OA
ATOM     21  H   UNL     1       1.678   2.399  21.152  0.00  0.00    +0.000 HD
ENDBRANCH  13  20
ENDBRANCH  12  13
ENDBRANCH   1  12
TORSDOF 7
ENDMDL
MODEL 7
REMARK VINA RESULT:      -6.2      1.926      3.668
REMARK  Name = 
REMARK  8 active torsions:
REMARK  status: ('A' for Active; 'I' for Inactive)
REMARK    1  A    between atoms: C_1  and  S_2
REMARK    2  A    between atoms: S_2  and  C_3
REMARK    3  A    between atoms: C_6  and  C_7
REMARK    4  A    between atoms: C_7  and  N_8
REMARK    5  A    between atoms: N_8  and  C_9
REMARK    6  A    between atoms: C_9  and  C_10
REMARK    7  A    between atoms: C_10  and  O_11
REMARK    8  A    between atoms: C_10  and  C_12
REMARK                            x       y       z     vdW  Elec       q    Type
REMARK                         _______ _______ _______ _____ _____    ______ ____
ROOT
ATOM      1  N   UNL     1       2.293   2.616  21.174  0.00  0.00    +0.000 NA
ATOM      2  H   UNL     1       1.996   1.786  21.742  0.00  0.00    +0.000 HD
ENDROOT
BRANCH   1   3
ATOM      3  C   UNL     1       1.090   3.355  20.778  0.00  0.00    +0.000 C 
BRANCH   3   7
ATOM      4  C   UNL     1       2.232   6.877  18.582  0.00  0.00    +0.000 A 
ATOM      5  C   UNL     1       2.273   6.868  19.981  0.00  0.00    +0.000 A 
ATOM      6  C   UNL     1       1.906   5.722  20.685  0.00  0.00    +0.000 A 
ATOM      7  C   UNL     1       1.478   4.577  19.998  0.00  0.00    +0.000 A 
ATOM      8  C   UNL     1       1.420   4.591  18.595  0.00  0.00    +0.000 A 
ATOM      9  C   UNL     1       1.800   5.738  17.888  0.00  0.00    +0.000 A 
BRANCH   4  11
ATOM     10  C   UNL     1       1.487   9.399  18.498  0.00  0.00    +0.000 C 
ATOM     11  S   UNL     1       2.740   8.347  17.693  0.00  0.00    +0.000 S 
ENDBRANCH   4  11
ENDBRANCH   3   7
ENDBRANCH   1   3
BRANCH   1  12
ATOM     12  C   UNL     1       3.009   2.149  19.984  0.00  0.00    +0.000 C 
BRANCH  12  13
ATOM     13  C   UNL     1       4.493   2.569  20.030  0.00  0.00    +0.000 C 
BRANCH  13  14
ATOM     14  C   UNL     1       4.806   3.544  18.914  0.00  0.00    +0.000 A 
ATOM     15  C   UNL     1       5.381   4.795  19.200  0.00  0.00    +0.000 A 
ATOM     16  C   UNL     1       5.657   5.698  18.169  0.00  0.00    +0.000 A 
ATOM     17  C   UNL     1       5.358   5.363  16.845  0.00  0.00    +0.000 A 
ATOM     18  C   UNL     1       4.788   4.124  16.550  0.00  0.00    +0.000 A 
ATOM     19  C   UNL     1       4.516   3.216  17.574  0.00  0.00    +0.000 A 
ENDBRANCH  13  14
BRANCH  13  20
ATOM     20  O   UNL     1       5.350   1.456  19.964  0.00  0.00    +0.000 OA
ATOM     21  H   UNL     1       6.201   1.745  19.546  0.00  0.00    +0.000 HD
ENDBRANCH  13  20
ENDBRANCH  12  13
ENDBRANCH   1  12
TORSDOF 7
ENDMDL
MODEL 8
REMARK VINA RESULT:      -6.2      0.770      1.765
REMARK  Name = 
REMARK  8 active torsions:
REMARK  status: ('A' for Active; 'I' for Inactive)
REMARK    1  A    between atoms: C_1  and  S_2
REMARK    2  A    between atoms: S_2  and  C_3
REMARK    3  A    between atoms: C_6  and  C_7
REMARK    4  A    between atoms: C_7  and  N_8
REMARK    5  A    between atoms: N_8  and  C_9
REMARK    6  A    between atoms: C_9  and  C_10
REMARK    7  A    between atoms: C_10  and  O_11
REMARK    8  A    between atoms: C_10  and  C_12
REMARK                            x       y       z     vdW  Elec       q    Type
REMARK                         _______ _______ _______ _____ _____    ______ ____
ROOT
ATOM      1  N   UNL     1       4.876   3.738  18.048  0.00  0.00    +0.000 NA
ATOM      2  H   UNL     1       4.286   3.900  18.899  0.00  0.00    +0.000 HD
ENDROOT
BRANCH   1   3
ATOM      3  C   UNL     1       4.943   4.992  17.290  0.00  0.00    +0.000 C 
BRANCH   3   7
ATOM      4  C   UNL     1       2.312   7.931  19.013  0.00  0.00    +0.000 A 
ATOM      5  C   UNL     1       2.988   8.197  17.816  0.00  0.00    +0.000 A 
ATOM      6  C   UNL     1       3.835   7.238  17.263  0.00  0.00    +0.000 A 
ATOM      7  C   UNL     1       4.028   6.008  17.907  0.00  0.00    +0.000 A 
ATOM      8  C   UNL     1       3.364   5.747  19.117  0.00  0.00    +0.000 A 
ATOM      9  C   UNL     1       2.505   6.705  19.666  0.00  0.00    +0.000 A 
BRANCH   4  11
ATOM     10  C   UNL     1       1.016   8.276  21.277  0.00  0.00    +0.000 C 
ATOM     11  S   UNL     1       1.202   9.160  19.692  0.00  0.00    +0.000 S 
ENDBRANCH   4  11
ENDBRANCH   3   7
ENDBRANCH   1   3
BRANCH   1  12
ATOM     12  C   UNL     1       4.257   2.691  17.230  0.00  0.00    +0.000 C 
BRANCH  12  13
ATOM     13  C   UNL     1       3.627   1.596  18.114  0.00  0.00    +0.000 C 
BRANCH  13  14
ATOM     14  C   UNL     1       2.782   2.215  19.208  0.00  0.00    +0.000 A 
ATOM     15  C   UNL     1       1.480   2.671  18.930  0.00  0.00    +0.000 A 
ATOM     16  C   UNL     1       0.707   3.254  19.939  0.00  0.00    +0.000 A 
ATOM     17  C   UNL     1       1.225   3.391  21.229  0.00  0.00    +0.000 A 
ATOM     18  C   UNL     1       2.514   2.941  21.516  0.00  0.00    +0.000 A 
ATOM     19  C   UNL     1       3.289   2.353  20.515  0.00  0.00    +0.000 A 
ENDBRANCH  13  14
BRANCH  13  20
ATOM     20  O   UNL     1       4.605   0.750  18.670  0.00  0.00    +0.000 OA
ATOM     21  H   UNL     1       4.187   0.241  19.411  0.00  0.00    +0.000 HD
ENDBRANCH  13  20
ENDBRANCH  12  13
ENDBRANCH   1  12
TORSDOF 7
ENDMDL
MODEL 9
REMARK VINA RESULT:      -6.2      0.956      1.483
REMARK  Name = 
REMARK  8 active torsions:
REMARK  status: ('A' for Active; 'I' for Inactive)
REMARK    1  A    between atoms: C_1  and  S_2
REMARK    2  A    between atoms: S_2  and  C_3
REMARK    3  A    between atoms: C_6  and  C_7
REMARK    4  A    between atoms: C_7  and  N_8
REMARK    5  A    between atoms: N_8  and  C_9
REMARK    6  A    between atoms: C_9  and  C_10
REMARK    7  A    between atoms: C_10  and  O_11
REMARK    8  A    between atoms: C_10  and  C_12
REMARK                            x       y       z     vdW  Elec       q    Type
REMARK                         _______ _______ _______ _____ _____    ______ ____
ROOT
ATOM      1  N   UNL     1       4.905   3.904  17.776  0.00  0.00    +0.000 NA
ATOM      2  H   UNL     1       4.709   3.873  18.805  0.00  0.00    +0.000 HD
ENDROOT
BRANCH   1   3
ATOM      3  C   UNL     1       5.093   5.305  17.386  0.00  0.00    +0.000 C 
BRANCH   3   7
ATOM      4  C   UNL     1       2.155   7.747  19.369  0.00  0.00    +0.000 A 
ATOM      5  C   UNL     1       2.644   6.586  19.981  0.00  0.00    +0.000 A 
ATOM      6  C   UNL     1       3.599   5.803  19.333  0.00  0.00    +0.000 A 
ATOM      7  C   UNL     1       4.064   6.163  18.061  0.00  0.00    +0.000 A 
ATOM      8  C   UNL     1       3.560   7.317  17.439  0.00  0.00    +0.000 A 
ATOM      9  C   UNL     1       2.610   8.110  18.094  0.00  0.00    +0.000 A 
BRANCH   4  11
ATOM     10  C   UNL     1       0.992  10.072  18.964  0.00  0.00    +0.000 C 
ATOM     11  S   UNL     1       0.954   8.759  20.229  0.00  0.00    +0.000 S 
ENDBRANCH   4  11
ENDBRANCH   3   7
ENDBRANCH   1   3
BRANCH   1  12
ATOM     12  C   UNL     1       3.766   3.331  17.054  0.00  0.00    +0.000 C 
BRANCH  12  13
ATOM     13  C   UNL     1       3.226   2.078  17.774  0.00  0.00    +0.000 C 
BRANCH  13  14
ATOM     14  C   UNL     1       2.552   2.461  19.076  0.00  0.00    +0.000 A 
ATOM     15  C   UNL     1       1.232   2.946  19.078  0.00  0.00    +0.000 A 
ATOM     16  C   UNL     1       0.616   3.311  20.279  0.00  0.00    +0.000 A 
ATOM     17  C   UNL     1       1.312   3.199  21.486  0.00  0.00    +0.000 A 
ATOM     18  C   UNL     1       2.621   2.718  21.495  0.00  0.00    +0.000 A 
ATOM     19  C   UNL     1       3.239   2.346  20.300  0.00  0.00    +0.000 A 
ENDBRANCH  13  14
BRANCH  13  20
ATOM     20  O   UNL     1       4.243   1.134  18.008  0.00  0.00    +0.000 OA
ATOM     21  H   UNL     1       4.996   1.596  18.460  0.00  0.00    +0.000 HD
ENDBRANCH  13  20
ENDBRANCH  12  13
ENDBRANCH   1  12
TORSDOF 7
ENDMDL
