MODEL 1
REMARK VINA RESULT:      -7.4      0.000      0.000
REMARK  Name = 
REMARK  4 active torsions:
REMARK  status: ('A' for Active; 'I' for Inactive)
REMARK    1  A    between atoms: C_1  and  C_2
REMARK    2  A    between atoms: C_2  and  C_3
REMARK    3  A    between atoms: C_3  and  N_4
REMARK    4  A    between atoms: C_16  and  C_17
REMARK                            x       y       z     vdW  Elec       q    Type
REMARK                         _______ _______ _______ _____ _____    ______ ____
ROOT
ATOM      1  N   UNL     1       4.556   3.559  18.591  0.00  0.00    +0.000 NA
ATOM      2  C   UNL     1       5.445   4.119  19.612  0.00  0.00    +0.000 C 
ATOM      3  C   UNL     1       6.630   4.999  19.234  0.00  0.00    +0.000 C 
ATOM      4  O   UNL     1       7.422   5.313  20.137  0.00  0.00    +0.000 OA
ATOM      5  N   UNL     1       6.903   5.546  18.027  0.00  0.00    +0.000 N 
ATOM      6  C   UNL     1       6.419   5.257  16.753  0.00  0.00    +0.000 A 
ATOM      7  C   UNL     1       7.300   5.558  15.701  0.00  0.00    +0.000 A 
ATOM      8  C   UNL     1       7.084   5.055  14.422  0.00  0.00    +0.000 A 
ATOM      9  C   UNL     1       5.962   4.272  14.184  0.00  0.00    +0.000 A 
ATOM     10  I   UNL     1       5.723   3.349  12.341  0.00  0.00    +0.000 I 
ATOM     11  C   UNL     1       5.014   4.087  15.192  0.00  0.00    +0.000 A 
ATOM     12  C   UNL     1       5.211   4.620  16.487  0.00  0.00    +0.000 A 
ATOM     13  C   UNL     1       4.113   4.473  17.528  0.00  0.00    +0.000 C 
ATOM     14  H   UNL     1       7.767   6.070  18.076  0.00  0.00    +0.000 HD
ENDROOT
BRANCH  13  15
ATOM     15  C   UNL     1       3.387   5.793  17.865  0.00  0.00    +0.000 A 
ATOM     16  C   UNL     1       3.726   6.952  17.136  0.00  0.00    +0.000 A 
ATOM     17  C   UNL     1       3.178   8.206  17.447  0.00  0.00    +0.000 A 
ATOM     18  C   UNL     1       2.272   8.334  18.493  0.00  0.00    +0.000 A 
ATOM     19  C   UNL     1       1.920   7.213  19.227  0.00  0.00    +0.000 A 
ATOM     20  C   UNL     1       2.478   5.965  18.922  0.00  0.00    +0.000 A 
ENDBRANCH  13  15
BRANCH   1  21
ATOM     21  C   UNL     1       3.476   2.814  19.266  0.00  0.00    +0.000 C 
BRANCH  21  23
ATOM     22  C   UNL     1       0.960   2.531  18.846  0.00  0.00    +0.000 C 
ATOM     23  C   UNL     1       2.372   2.182  18.401  0.00  0.00    +0.000 C 
ENDBRANCH  21  23
ENDBRANCH   1  21
TORSDOF 3
ENDMDL
MODEL 2
REMARK VINA RESULT:      -7.3      0.164      1.031
REMARK  Name = 
REMARK  4 active torsions:
REMARK  status: ('A' for Active; 'I' for Inactive)
REMARK    1  A    between atoms: C_1  and  C_2
REMARK    2  A    between atoms: C_2  and  C_3
REMARK    3  A    between atoms: C_3  and  N_4
REMARK    4  A    between atoms: C_16  and  C_17
REMARK                            x       y       z     vdW  Elec       q    Type
REMARK                         _______ _______ _______ _____ _____    ______ ____
ROOT
ATOM      1  N   UNL     1       4.540   3.685  18.685  0.00  0.00    +0.000 NA
ATOM      2  C   UNL     1       5.478   4.204  19.684  0.00  0.00    +0.000 C 
ATOM      3  C   UNL     1       6.696   5.023  19.277  0.00  0.00    +0.000 C 
ATOM      4  O   UNL     1       7.523   5.300  20.161  0.00  0.00    +0.000 OA
ATOM      5  N   UNL     1       6.970   5.551  18.061  0.00  0.00    +0.000 N 
ATOM      6  C   UNL     1       6.445   5.281  16.800  0.00  0.00    +0.000 A 
ATOM      7  C   UNL     1       7.317   5.534  15.728  0.00  0.00    +0.000 A 
ATOM      8  C   UNL     1       7.048   5.038  14.456  0.00  0.00    +0.000 A 
ATOM      9  C   UNL     1       5.884   4.311  14.246  0.00  0.00    +0.000 A 
ATOM     10  I   UNL     1       5.559   3.393  12.413  0.00  0.00    +0.000 I 
ATOM     11  C   UNL     1       4.950   4.177  15.275  0.00  0.00    +0.000 A 
ATOM     12  C   UNL     1       5.201   4.704  16.563  0.00  0.00    +0.000 A 
ATOM     13  C   UNL     1       4.120   4.616  17.627  0.00  0.00    +0.000 C 
ATOM     14  H   UNL     1       7.860   6.031  18.089  0.00  0.00    +0.000 HD
ENDROOT
BRANCH  13  15
ATOM     15  C   UNL     1       3.468   5.971  17.974  0.00  0.00    +0.000 A 
ATOM     16  C   UNL     1       2.576   6.030  19.066  0.00  0.00    +0.000 A 
ATOM     17  C   UNL     1       1.875   7.202  19.384  0.00  0.00    +0.000 A 
ATOM     18  C   UNL     1       2.049   8.351  18.621  0.00  0.00    +0.000 A 
ATOM     19  C   UNL     1       2.917   8.325  17.542  0.00  0.00    +0.000 A 
ATOM     20  C   UNL     1       3.606   7.149  17.219  0.00  0.00    +0.000 A 
ENDBRANCH  13  15
BRANCH   1  21
ATOM     21  C   UNL     1       3.439   2.997  19.387  0.00  0.00    +0.000 C 
BRANCH  21  23
ATOM     22  C   UNL     1       0.954   2.627  18.865  0.00  0.00    +0.000 C 
ATOM     23  C   UNL     1       2.392   2.247  18.547  0.00  0.00    +0.000 C 
ENDBRANCH  21  23
ENDBRANCH   1  21
TORSDOF 3
ENDMDL
MODEL 3
REMARK VINA RESULT:      -6.8      5.217      7.645
REMARK  Name = 
REMARK  4 active torsions:
REMARK  status: ('A' for Active; 'I' for Inactive)
REMARK    1  A    between atoms: C_1  and  C_2
REMARK    2  A    between atoms: C_2  and  C_3
REMARK    3  A    between atoms: C_3  and  N_4
REMARK    4  A    between atoms: C_16  and  C_17
REMARK                            x       y       z     vdW  Elec       q    Type
REMARK                         _______ _______ _______ _____ _____    ______ ____
ROOT
ATOM      1  N   UNL     1       0.696  11.290  20.592  0.00  0.00    +0.000 NA
ATOM      2  C   UNL     1       1.207  12.404  19.789  0.00  0.00    +0.000 C 
ATOM      3  C   UNL     1       2.014  12.160  18.519  0.00  0.00    +0.000 C 
ATOM      4  O   UNL     1       2.538  13.146  17.976  0.00  0.00    +0.000 OA
ATOM      5  N   UNL     1       2.187  10.991  17.860  0.00  0.00    +0.000 N 
ATOM      6  C   UNL     1       1.976   9.672  18.252  0.00  0.00    +0.000 A 
ATOM      7  C   UNL     1       2.785   8.724  17.604  0.00  0.00    +0.000 A 
ATOM      8  C   UNL     1       2.901   7.428  18.096  0.00  0.00    +0.000 A 
ATOM      9  C   UNL     1       2.179   7.066  19.225  0.00  0.00    +0.000 A 
ATOM     10  I   UNL     1       2.487   5.206  20.092  0.00  0.00    +0.000 I 
ATOM     11  C   UNL     1       1.269   7.963  19.788  0.00  0.00    +0.000 A 
ATOM     12  C   UNL     1       1.123   9.273  19.276  0.00  0.00    +0.000 A 
ATOM     13  C   UNL     1       0.057  10.186  19.860  0.00  0.00    +0.000 C 
ATOM     14  H   UNL     1       2.786  11.137  17.058  0.00  0.00    +0.000 HD
ENDROOT
BRANCH  13  15
ATOM     15  C   UNL     1      -1.135  10.444  18.915  0.00  0.00    +0.000 A 
ATOM     16  C   UNL     1      -1.181   9.753  17.685  0.00  0.00    +0.000 A 
ATOM     17  C   UNL     1      -2.182  10.003  16.735  0.00  0.00    +0.000 A 
ATOM     18  C   UNL     1      -3.168  10.949  16.989  0.00  0.00    +0.000 A 
ATOM     19  C   UNL     1      -3.150  11.645  18.187  0.00  0.00    +0.000 A 
ATOM     20  C   UNL     1      -2.142  11.401  19.129  0.00  0.00    +0.000 A 
ENDBRANCH  13  15
BRANCH   1  21
ATOM     21  C   UNL     1      -0.094  11.840  21.710  0.00  0.00    +0.000 C 
BRANCH  21  23
ATOM     22  C   UNL     1      -0.145   9.783  23.243  0.00  0.00    +0.000 C 
ATOM     23  C   UNL     1      -0.946  10.874  22.549  0.00  0.00    +0.000 C 
ENDBRANCH  21  23
ENDBRANCH   1  21
TORSDOF 3
ENDMDL
MODEL 4
REMARK VINA RESULT:      -6.7      5.460      7.966
REMARK  Name = 
REMARK  4 active torsions:
REMARK  status: ('A' for Active; 'I' for Inactive)
REMARK    1  A    between atoms: C_1  and  C_2
REMARK    2  A    between atoms: C_2  and  C_3
REMARK    3  A    between atoms: C_3  and  N_4
REMARK    4  A    between atoms: C_16  and  C_17
REMARK                            x       y       z     vdW  Elec       q    Type
REMARK                         _______ _______ _______ _____ _____    ______ ____
ROOT
ATOM      1  N   UNL     1       0.703  11.529  20.536  0.00  0.00    +0.000 NA
ATOM      2  C   UNL     1       1.251  12.578  19.671  0.00  0.00    +0.000 C 
ATOM      3  C   UNL     1       2.047  12.235  18.418  0.00  0.00    +0.000 C 
ATOM      4  O   UNL     1       2.604  13.170  17.819  0.00  0.00    +0.000 OA
ATOM      5  N   UNL     1       2.178  11.026  17.825  0.00  0.00    +0.000 N 
ATOM      6  C   UNL     1       1.922   9.739  18.291  0.00  0.00    +0.000 A 
ATOM      7  C   UNL     1       2.697   8.728  17.697  0.00  0.00    +0.000 A 
ATOM      8  C   UNL     1       2.768   7.458  18.262  0.00  0.00    +0.000 A 
ATOM      9  C   UNL     1       2.036   7.186  19.409  0.00  0.00    +0.000 A 
ATOM     10  I   UNL     1       2.281   5.368  20.380  0.00  0.00    +0.000 I 
ATOM     11  C   UNL     1       1.159   8.145  19.921  0.00  0.00    +0.000 A 
ATOM     12  C   UNL     1       1.057   9.428  19.336  0.00  0.00    +0.000 A 
ATOM     13  C   UNL     1       0.025  10.409  19.867  0.00  0.00    +0.000 C 
ATOM     14  H   UNL     1       2.780  11.105  17.016  0.00  0.00    +0.000 HD
ENDROOT
BRANCH  13  15
ATOM     15  C   UNL     1      -1.159  10.655  18.909  0.00  0.00    +0.000 A 
ATOM     16  C   UNL     1      -2.182  11.538  19.315  0.00  0.00    +0.000 A 
ATOM     17  C   UNL     1      -3.333  11.741  18.540  0.00  0.00    +0.000 A 
ATOM     18  C   UNL     1      -3.493  11.067  17.335  0.00  0.00    +0.000 A 
ATOM     19  C   UNL     1      -2.507  10.192  16.909  0.00  0.00    +0.000 A 
ATOM     20  C   UNL     1      -1.364   9.983  17.691  0.00  0.00    +0.000 A 
ENDBRANCH  13  15
BRANCH   1  21
ATOM     21  C   UNL     1      -0.065  12.169  21.621  0.00  0.00    +0.000 C 
BRANCH  21  23
ATOM     22  C   UNL     1      -2.123  11.779  23.103  0.00  0.00    +0.000 C 
ATOM     23  C   UNL     1      -0.764  11.267  22.652  0.00  0.00    +0.000 C 
ENDBRANCH  21  23
ENDBRANCH   1  21
TORSDOF 3
ENDMDL
MODEL 5
REMARK VINA RESULT:      -6.6      7.273      9.239
REMARK  Name = 
REMARK  4 active torsions:
REMARK  status: ('A' for Active; 'I' for Inactive)
REMARK    1  A    between atoms: C_1  and  C_2
REMARK    2  A    between atoms: C_2  and  C_3
REMARK    3  A    between atoms: C_3  and  N_4
REMARK    4  A    between atoms: C_16  and  C_17
REMARK                            x       y       z     vdW  Elec       q    Type
REMARK                         _______ _______ _______ _____ _____    ______ ____
ROOT
ATOM      1  N   UNL     1      -1.118  10.626  17.997  0.00  0.00    +0.000 NA
ATOM      2  C   UNL     1      -0.074   9.639  17.711  0.00  0.00    +0.000 C 
ATOM      3  C   UNL     1       1.404   9.990  17.832  0.00  0.00    +0.000 C 
ATOM      4  O   UNL     1       2.227   9.152  17.431  0.00  0.00    +0.000 OA
ATOM      5  N   UNL     1       1.948  11.097  18.388  0.00  0.00    +0.000 N 
ATOM      6  C   UNL     1       1.393  12.330  18.720  0.00  0.00    +0.000 A 
ATOM      7  C   UNL     1       2.292  13.409  18.704  0.00  0.00    +0.000 A 
ATOM      8  C   UNL     1       1.833  14.723  18.716  0.00  0.00    +0.000 A 
ATOM      9  C   UNL     1       0.466  14.961  18.777  0.00  0.00    +0.000 A 
ATOM     10  I   UNL     1      -0.250  16.900  18.596  0.00  0.00    +0.000 I 
ATOM     11  C   UNL     1      -0.421  13.894  18.933  0.00  0.00    +0.000 A 
ATOM     12  C   UNL     1       0.040  12.557  18.952  0.00  0.00    +0.000 A 
ATOM     13  C   UNL     1      -0.948  11.433  19.215  0.00  0.00    +0.000 C 
ATOM     14  H   UNL     1       2.956  11.059  18.309  0.00  0.00    +0.000 HD
ENDROOT
BRANCH  13  15
ATOM     15  C   UNL     1      -0.784  10.763  20.596  0.00  0.00    +0.000 A 
ATOM     16  C   UNL     1      -1.147  11.495  21.746  0.00  0.00    +0.000 A 
ATOM     17  C   UNL     1      -0.940  10.990  23.038  0.00  0.00    +0.000 A 
ATOM     18  C   UNL     1      -0.367   9.736  23.216  0.00  0.00    +0.000 A 
ATOM     19  C   UNL     1       0.001   8.994  22.106  0.00  0.00    +0.000 A 
ATOM     20  C   UNL     1      -0.196   9.506  20.817  0.00  0.00    +0.000 A 
ENDBRANCH  13  15
BRANCH   1  21
ATOM     21  C   UNL     1      -2.434   9.973  17.857  0.00  0.00    +0.000 C 
BRANCH  21  23
ATOM     22  C   UNL     1      -2.893  10.305  15.355  0.00  0.00    +0.000 C 
ATOM     23  C   UNL     1      -3.397  10.493  16.777  0.00  0.00    +0.000 C 
ENDBRANCH  21  23
ENDBRANCH   1  21
TORSDOF 3
ENDMDL
MODEL 6
REMARK VINA RESULT:      -6.5      1.403      1.808
REMARK  Name = 
REMARK  4 active torsions:
REMARK  status: ('A' for Active; 'I' for Inactive)
REMARK    1  A    between atoms: C_1  and  C_2
REMARK    2  A    between atoms: C_2  and  C_3
REMARK    3  A    between atoms: C_3  and  N_4
REMARK    4  A    between atoms: C_16  and  C_17
REMARK                            x       y       z     vdW  Elec       q    Type
REMARK                         _______ _______ _______ _____ _____    ______ ____
ROOT
ATOM      1  N   UNL     1       3.019   2.895  17.939  0.00  0.00    +0.000 NA
ATOM      2  C   UNL     1       3.427   2.569  19.308  0.00  0.00    +0.000 C 
ATOM      3  C   UNL     1       4.810   2.936  19.832  0.00  0.00    +0.000 C 
ATOM      4  O   UNL     1       5.136   2.497  20.946  0.00  0.00    +0.000 OA
ATOM      5  N   UNL     1       5.726   3.746  19.252  0.00  0.00    +0.000 N 
ATOM      6  C   UNL     1       5.842   4.222  17.949  0.00  0.00    +0.000 A 
ATOM      7  C   UNL     1       7.154   4.513  17.538  0.00  0.00    +0.000 A 
ATOM      8  C   UNL     1       7.457   4.704  16.194  0.00  0.00    +0.000 A 
ATOM      9  C   UNL     1       6.436   4.635  15.255  0.00  0.00    +0.000 A 
ATOM     10  I   UNL     1       6.891   4.717  13.231  0.00  0.00    +0.000 I 
ATOM     11  C   UNL     1       5.113   4.484  15.673  0.00  0.00    +0.000 A 
ATOM     12  C   UNL     1       4.793   4.319  17.040  0.00  0.00    +0.000 A 
ATOM     13  C   UNL     1       3.334   4.250  17.461  0.00  0.00    +0.000 C 
ATOM     14  H   UNL     1       6.557   3.788  19.827  0.00  0.00    +0.000 HD
ENDROOT
BRANCH  13  15
ATOM     15  C   UNL     1       2.840   5.497  18.224  0.00  0.00    +0.000 A 
ATOM     16  C   UNL     1       2.842   6.739  17.556  0.00  0.00    +0.000 A 
ATOM     17  C   UNL     1       2.496   7.930  18.211  0.00  0.00    +0.000 A 
ATOM     18  C   UNL     1       2.135   7.912  19.553  0.00  0.00    +0.000 A 
ATOM     19  C   UNL     1       2.125   6.707  20.237  0.00  0.00    +0.000 A 
ATOM     20  C   UNL     1       2.482   5.521  19.583  0.00  0.00    +0.000 A 
ENDBRANCH  13  15
BRANCH   1  21
ATOM     21  C   UNL     1       1.617   2.476  17.754  0.00  0.00    +0.000 C 
BRANCH  21  23
ATOM     22  C   UNL     1       0.310   3.172  19.850  0.00  0.00    +0.000 C 
ATOM     23  C   UNL     1       0.819   2.026  18.989  0.00  0.00    +0.000 C 
ENDBRANCH  21  23
ENDBRANCH   1  21
TORSDOF 3
ENDMDL
MODEL 7
REMARK VINA RESULT:      -6.4      1.360      2.009
REMARK  Name = 
REMARK  4 active torsions:
REMARK  status: ('A' for Active; 'I' for Inactive)
REMARK    1  A    between atoms: C_1  and  C_2
REMARK    2  A    between atoms: C_2  and  C_3
REMARK    3  A    between atoms: C_3  and  N_4
REMARK    4  A    between atoms: C_16  and  C_17
REMARK                            x       y       z     vdW  Elec       q    Type
REMARK                         _______ _______ _______ _____ _____    ______ ____
ROOT
ATOM      1  N   UNL     1       2.988   3.093  17.925  0.00  0.00    +0.000 NA
ATOM      2  C   UNL     1       3.413   2.754  19.286  0.00  0.00    +0.000 C 
ATOM      3  C   UNL     1       4.828   3.045  19.771  0.00  0.00    +0.000 C 
ATOM      4  O   UNL     1       5.157   2.596  20.880  0.00  0.00    +0.000 OA
ATOM      5  N   UNL     1       5.773   3.797  19.160  0.00  0.00    +0.000 N 
ATOM      6  C   UNL     1       5.882   4.255  17.850  0.00  0.00    +0.000 A 
ATOM      7  C   UNL     1       7.197   4.467  17.404  0.00  0.00    +0.000 A 
ATOM      8  C   UNL     1       7.475   4.631  16.050  0.00  0.00    +0.000 A 
ATOM      9  C   UNL     1       6.427   4.613  15.138  0.00  0.00    +0.000 A 
ATOM     10  I   UNL     1       6.833   4.654  13.103  0.00  0.00    +0.000 I 
ATOM     11  C   UNL     1       5.109   4.542  15.592  0.00  0.00    +0.000 A 
ATOM     12  C   UNL     1       4.817   4.406  16.968  0.00  0.00    +0.000 A 
ATOM     13  C   UNL     1       3.367   4.423  17.427  0.00  0.00    +0.000 C 
ATOM     14  H   UNL     1       6.620   3.795  19.713  0.00  0.00    +0.000 HD
ENDROOT
BRANCH  13  15
ATOM     15  C   UNL     1       2.966   5.702  18.192  0.00  0.00    +0.000 A 
ATOM     16  C   UNL     1       2.548   5.581  19.534  0.00  0.00    +0.000 A 
ATOM     17  C   UNL     1       2.081   6.684  20.264  0.00  0.00    +0.000 A 
ATOM     18  C   UNL     1       2.022   7.941  19.674  0.00  0.00    +0.000 A 
ATOM     19  C   UNL     1       2.425   8.092  18.357  0.00  0.00    +0.000 A 
ATOM     20  C   UNL     1       2.880   6.986  17.627  0.00  0.00    +0.000 A 
ENDBRANCH  13  15
BRANCH   1  21
ATOM     21  C   UNL     1       1.560   2.753  17.780  0.00  0.00    +0.000 C 
BRANCH  21  23
ATOM     22  C   UNL     1       0.386   3.168  20.024  0.00  0.00    +0.000 C 
ATOM     23  C   UNL     1       0.827   2.146  18.988  0.00  0.00    +0.000 C 
ENDBRANCH  21  23
ENDBRANCH   1  21
TORSDOF 3
ENDMDL
MODEL 8
REMARK VINA RESULT:      -6.4      2.523      5.491
REMARK  Name = 
REMARK  4 active torsions:
REMARK  status: ('A' for Active; 'I' for Inactive)
REMARK    1  A    between atoms: C_1  and  C_2
REMARK    2  A    between atoms: C_2  and  C_3
REMARK    3  A    between atoms: C_3  and  N_4
REMARK    4  A    between atoms: C_16  and  C_17
REMARK                            x       y       z     vdW  Elec       q    Type
REMARK                         _______ _______ _______ _____ _____    ______ ____
ROOT
ATOM      1  N   UNL     1       6.443   5.684  18.685  0.00  0.00    +0.000 NA
ATOM      2  C   UNL     1       6.340   4.303  19.164  0.00  0.00    +0.000 C 
ATOM      3  C   UNL     1       4.992   3.598  19.265  0.00  0.00    +0.000 C 
ATOM      4  O   UNL     1       4.967   2.486  19.818  0.00  0.00    +0.000 OA
ATOM      5  N   UNL     1       3.803   4.009  18.766  0.00  0.00    +0.000 N 
ATOM      6  C   UNL     1       3.376   5.254  18.312  0.00  0.00    +0.000 A 
ATOM      7  C   UNL     1       1.996   5.488  18.434  0.00  0.00    +0.000 A 
ATOM      8  C   UNL     1       1.474   6.772  18.307  0.00  0.00    +0.000 A 
ATOM      9  C   UNL     1       2.334   7.825  18.024  0.00  0.00    +0.000 A 
ATOM     10  I   UNL     1       1.612   9.771  18.027  0.00  0.00    +0.000 I 
ATOM     11  C   UNL     1       3.682   7.575  17.765  0.00  0.00    +0.000 A 
ATOM     12  C   UNL     1       4.215   6.269  17.862  0.00  0.00    +0.000 A 
ATOM     13  C   UNL     1       5.667   6.026  17.483  0.00  0.00    +0.000 C 
ATOM     14  H   UNL     1       3.083   3.340  19.005  0.00  0.00    +0.000 HD
ENDROOT
BRANCH  13  15
ATOM     15  C   UNL     1       5.849   5.240  16.168  0.00  0.00    +0.000 A 
ATOM     16  C   UNL     1       7.052   5.401  15.448  0.00  0.00    +0.000 A 
ATOM     17  C   UNL     1       7.253   4.793  14.201  0.00  0.00    +0.000 A 
ATOM     18  C   UNL     1       6.258   4.002  13.639  0.00  0.00    +0.000 A 
ATOM     19  C   UNL     1       5.065   3.825  14.321  0.00  0.00    +0.000 A 
ATOM     20  C   UNL     1       4.863   4.444  15.561  0.00  0.00    +0.000 A 
ENDBRANCH  13  15
BRANCH   1  21
ATOM     21  C   UNL     1       7.869   6.059  18.637  0.00  0.00    +0.000 C 
BRANCH  21  23
ATOM     22  C   UNL     1       7.835   8.385  17.554  0.00  0.00    +0.000 C 
ATOM     23  C   UNL     1       8.238   7.547  18.757  0.00  0.00    +0.000 C 
ENDBRANCH  21  23
ENDBRANCH   1  21
TORSDOF 3
ENDMDL
MODEL 9
REMARK VINA RESULT:      -6.3      6.371      9.071
REMARK  Name = 
REMARK  4 active torsions:
REMARK  status: ('A' for Active; 'I' for Inactive)
REMARK    1  A    between atoms: C_1  and  C_2
REMARK    2  A    between atoms: C_2  and  C_3
REMARK    3  A    between atoms: C_3  and  N_4
REMARK    4  A    between atoms: C_16  and  C_17
REMARK                            x       y       z     vdW  Elec       q    Type
REMARK                         _______ _______ _______ _____ _____    ______ ____
ROOT
ATOM      1  N   UNL     1       1.108  10.108  19.866  0.00  0.00    +0.000 NA
ATOM      2  C   UNL     1       0.463   9.869  21.160  0.00  0.00    +0.000 C 
ATOM      3  C   UNL     1      -0.014  11.024  22.033  0.00  0.00    +0.000 C 
ATOM      4  O   UNL     1      -0.414  10.751  23.176  0.00  0.00    +0.000 OA
ATOM      5  N   UNL     1      -0.118  12.330  21.694  0.00  0.00    +0.000 N 
ATOM      6  C   UNL     1       0.428  13.054  20.637  0.00  0.00    +0.000 A 
ATOM      7  C   UNL     1       0.630  14.420  20.896  0.00  0.00    +0.000 A 
ATOM      8  C   UNL     1       1.431  15.194  20.062  0.00  0.00    +0.000 A 
ATOM      9  C   UNL     1       2.010  14.607  18.944  0.00  0.00    +0.000 A 
ATOM     10  I   UNL     1       3.365  15.686  17.801  0.00  0.00    +0.000 I 
ATOM     11  C   UNL     1       1.699  13.288  18.610  0.00  0.00    +0.000 A 
ATOM     12  C   UNL     1       0.862  12.503  19.435  0.00  0.00    +0.000 A 
ATOM     13  C   UNL     1       0.476  11.102  18.987  0.00  0.00    +0.000 C 
ATOM     14  H   UNL     1      -0.450  12.863  22.486  0.00  0.00    +0.000 HD
ENDROOT
BRANCH  13  15
ATOM     15  C   UNL     1      -1.002  10.964  18.562  0.00  0.00    +0.000 A 
ATOM     16  C   UNL     1      -1.331  10.015  17.571  0.00  0.00    +0.000 A 
ATOM     17  C   UNL     1      -2.635   9.896  17.068  0.00  0.00    +0.000 A 
ATOM     18  C   UNL     1      -3.648  10.720  17.545  0.00  0.00    +0.000 A 
ATOM     19  C   UNL     1      -3.355  11.662  18.518  0.00  0.00    +0.000 A 
ATOM     20  C   UNL     1      -2.049  11.786  19.010  0.00  0.00    +0.000 A 
ENDBRANCH  13  15
BRANCH   1  21
ATOM     21  C   UNL     1       1.393   8.805  19.236  0.00  0.00    +0.000 C 
BRANCH  21  23
ATOM     22  C   UNL     1       3.141   7.633  17.768  0.00  0.00    +0.000 C 
ATOM     23  C   UNL     1       2.163   8.790  17.905  0.00  0.00    +0.000 C 
ENDBRANCH  21  23
ENDBRANCH   1  21
TORSDOF 3
ENDMDL
