MODEL 1
REMARK VINA RESULT:      -6.7      0.000      0.000
REMARK  Name = 
REMARK  5 active torsions:
REMARK  status: ('A' for Active; 'I' for Inactive)
REMARK    1  A    between atoms: C_1  and  C_2
REMARK    2  A    between atoms: C_2  and  C_13
REMARK    3  A    between atoms: N_3  and  N_4
REMARK    4  A    between atoms: N_4  and  C_5
REMARK    5  A    between atoms: C_5  and  N_7
REMARK                            x       y       z     vdW  Elec       q    Type
REMARK                         _______ _______ _______ _____ _____    ______ ____
ROOT
ATOM      1  N   UNL     1       4.316   4.647  19.389  0.00  0.00    +0.000 N 
ATOM      2  H   UNL     1       4.823   4.392  20.222  0.00  0.00    +0.000 HD
ENDROOT
BRANCH   1   5
ATOM      3  C   UNL     1       1.715   5.158  20.493  0.00  0.00    +0.000 C 
ATOM      4  C   UNL     1       2.605   6.151  19.762  0.00  0.00    +0.000 C 
ATOM      5  N   UNL     1       3.785   5.889  19.282  0.00  0.00    +0.000 NA
BRANCH   4   6
ATOM      6  C   UNL     1       2.054   7.538  19.559  0.00  0.00    +0.000 A 
ATOM      7  C   UNL     1       1.383   8.230  20.578  0.00  0.00    +0.000 A 
ATOM      8  C   UNL     1       0.872   9.510  20.347  0.00  0.00    +0.000 A 
ATOM      9  C   UNL     1       1.024  10.110  19.097  0.00  0.00    +0.000 A 
ATOM     10  C   UNL     1       1.685   9.433  18.079  0.00  0.00    +0.000 A 
ATOM     11  C   UNL     1       2.198   8.153  18.305  0.00  0.00    +0.000 A 
ENDBRANCH   4   6
ENDBRANCH   1   5
BRANCH   1  12
ATOM     12  C   UNL     1       4.489   3.809  18.291  0.00  0.00    +0.000 C 
ATOM     13  S   UNL     1       3.628   2.383  18.071  0.00  0.00    +0.000 S 
BRANCH  12  14
ATOM     14  N   UNL     1       5.452   4.307  17.393  0.00  0.00    +0.000 N 
ATOM     15  C   UNL     1       6.770   4.776  17.860  0.00  0.00    +0.000 C 
ATOM     16  C   UNL     1       7.282   5.918  16.978  0.00  0.00    +0.000 C 
ATOM     17  O   UNL     1       7.316   5.532  15.597  0.00  0.00    +0.000 OA
ATOM     18  C   UNL     1       6.011   5.136  15.145  0.00  0.00    +0.000 C 
ATOM     19  C   UNL     1       5.471   3.956  15.962  0.00  0.00    +0.000 C 
ENDBRANCH  12  14
ENDBRANCH   1  12
TORSDOF 4
ENDMDL
MODEL 2
REMARK VINA RESULT:      -6.7      2.604      4.067
REMARK  Name = 
REMARK  5 active torsions:
REMARK  status: ('A' for Active; 'I' for Inactive)
REMARK    1  A    between atoms: C_1  and  C_2
REMARK    2  A    between atoms: C_2  and  C_13
REMARK    3  A    between atoms: N_3  and  N_4
REMARK    4  A    between atoms: N_4  and  C_5
REMARK    5  A    between atoms: C_5  and  N_7
REMARK                            x       y       z     vdW  Elec       q    Type
REMARK                         _______ _______ _______ _____ _____    ______ ____
ROOT
ATOM      1  N   UNL     1       4.611   5.345  16.146  0.00  0.00    +0.000 N 
ATOM      2  H   UNL     1       4.131   5.885  15.444  0.00  0.00    +0.000 HD
ENDROOT
BRANCH   1   5
ATOM      3  C   UNL     1       3.081   6.848  18.054  0.00  0.00    +0.000 C 
ATOM      4  C   UNL     1       3.201   5.334  17.974  0.00  0.00    +0.000 C 
ATOM      5  N   UNL     1       3.898   4.683  17.089  0.00  0.00    +0.000 NA
BRANCH   4   6
ATOM      6  C   UNL     1       2.477   4.536  19.026  0.00  0.00    +0.000 A 
ATOM      7  C   UNL     1       2.708   4.727  20.396  0.00  0.00    +0.000 A 
ATOM      8  C   UNL     1       2.028   3.956  21.343  0.00  0.00    +0.000 A 
ATOM      9  C   UNL     1       1.113   2.988  20.931  0.00  0.00    +0.000 A 
ATOM     10  C   UNL     1       0.878   2.788  19.576  0.00  0.00    +0.000 A 
ATOM     11  C   UNL     1       1.556   3.556  18.625  0.00  0.00    +0.000 A 
ENDBRANCH   4   6
ENDBRANCH   1   5
BRANCH   1  12
ATOM     12  C   UNL     1       5.950   5.062  15.884  0.00  0.00    +0.000 C 
ATOM     13  S   UNL     1       6.458   4.110  14.596  0.00  0.00    +0.000 S 
BRANCH  12  14
ATOM     14  N   UNL     1       6.812   5.676  16.811  0.00  0.00    +0.000 N 
ATOM     15  C   UNL     1       7.519   4.891  17.840  0.00  0.00    +0.000 C 
ATOM     16  C   UNL     1       7.709   5.717  19.116  0.00  0.00    +0.000 C 
ATOM     17  O   UNL     1       8.379   6.955  18.838  0.00  0.00    +0.000 OA
ATOM     18  C   UNL     1       7.642   7.731  17.880  0.00  0.00    +0.000 C 
ATOM     19  C   UNL     1       7.469   6.970  16.560  0.00  0.00    +0.000 C 
ENDBRANCH  12  14
ENDBRANCH   1  12
TORSDOF 4
ENDMDL
MODEL 3
REMARK VINA RESULT:      -6.6      2.616      4.152
REMARK  Name = 
REMARK  5 active torsions:
REMARK  status: ('A' for Active; 'I' for Inactive)
REMARK    1  A    between atoms: C_1  and  C_2
REMARK    2  A    between atoms: C_2  and  C_13
REMARK    3  A    between atoms: N_3  and  N_4
REMARK    4  A    between atoms: N_4  and  C_5
REMARK    5  A    between atoms: C_5  and  N_7
REMARK                            x       y       z     vdW  Elec       q    Type
REMARK                         _______ _______ _______ _____ _____    ______ ____
ROOT
ATOM      1  N   UNL     1       4.653   5.434  16.154  0.00  0.00    +0.000 N 
ATOM      2  H   UNL     1       4.187   6.006  15.467  0.00  0.00    +0.000 HD
ENDROOT
BRANCH   1   5
ATOM      3  C   UNL     1       3.141   6.886  18.115  0.00  0.00    +0.000 C 
ATOM      4  C   UNL     1       3.232   5.375  17.972  0.00  0.00    +0.000 C 
ATOM      5  N   UNL     1       3.921   4.748  17.064  0.00  0.00    +0.000 NA
BRANCH   4   6
ATOM      6  C   UNL     1       2.485   4.548  18.986  0.00  0.00    +0.000 A 
ATOM      7  C   UNL     1       1.503   3.620  18.611  0.00  0.00    +0.000 A 
ATOM      8  C   UNL     1       0.819   2.881  19.581  0.00  0.00    +0.000 A 
ATOM      9  C   UNL     1       1.110   3.063  20.933  0.00  0.00    +0.000 A 
ATOM     10  C   UNL     1       2.080   3.981  21.316  0.00  0.00    +0.000 A 
ATOM     11  C   UNL     1       2.766   4.722  20.349  0.00  0.00    +0.000 A 
ENDBRANCH   4   6
ENDBRANCH   1   5
BRANCH   1  12
ATOM     12  C   UNL     1       5.991   5.145  15.897  0.00  0.00    +0.000 C 
ATOM     13  S   UNL     1       6.501   4.215  14.594  0.00  0.00    +0.000 S 
BRANCH  12  14
ATOM     14  N   UNL     1       6.851   5.733  16.843  0.00  0.00    +0.000 N 
ATOM     15  C   UNL     1       7.557   4.919  17.851  0.00  0.00    +0.000 C 
ATOM     16  C   UNL     1       7.744   5.707  19.150  0.00  0.00    +0.000 C 
ATOM     17  O   UNL     1       8.413   6.953  18.910  0.00  0.00    +0.000 OA
ATOM     18  C   UNL     1       7.678   7.756  17.973  0.00  0.00    +0.000 C 
ATOM     19  C   UNL     1       7.508   7.033  16.631  0.00  0.00    +0.000 C 
ENDBRANCH  12  14
ENDBRANCH   1  12
TORSDOF 4
ENDMDL
MODEL 4
REMARK VINA RESULT:      -6.6      3.516      6.974
REMARK  Name = 
REMARK  5 active torsions:
REMARK  status: ('A' for Active; 'I' for Inactive)
REMARK    1  A    between atoms: C_1  and  C_2
REMARK    2  A    between atoms: C_2  and  C_13
REMARK    3  A    between atoms: N_3  and  N_4
REMARK    4  A    between atoms: N_4  and  C_5
REMARK    5  A    between atoms: C_5  and  N_7
REMARK                            x       y       z     vdW  Elec       q    Type
REMARK                         _______ _______ _______ _____ _____    ______ ____
ROOT
ATOM      1  N   UNL     1       4.580   3.954  17.738  0.00  0.00    +0.000 N 
ATOM      2  H   UNL     1       4.743   3.138  18.308  0.00  0.00    +0.000 HD
ENDROOT
BRANCH   1   5
ATOM      3  C   UNL     1       7.267   4.665  17.021  0.00  0.00    +0.000 C 
ATOM      4  C   UNL     1       6.147   4.269  16.072  0.00  0.00    +0.000 C 
ATOM      5  N   UNL     1       4.940   3.943  16.432  0.00  0.00    +0.000 NA
BRANCH   4   6
ATOM      6  C   UNL     1       6.461   4.288  14.599  0.00  0.00    +0.000 A 
ATOM      7  C   UNL     1       5.778   3.476  13.682  0.00  0.00    +0.000 A 
ATOM      8  C   UNL     1       6.108   3.510  12.324  0.00  0.00    +0.000 A 
ATOM      9  C   UNL     1       7.123   4.352  11.871  0.00  0.00    +0.000 A 
ATOM     10  C   UNL     1       7.808   5.159  12.771  0.00  0.00    +0.000 A 
ATOM     11  C   UNL     1       7.482   5.129  14.130  0.00  0.00    +0.000 A 
ENDBRANCH   4   6
ENDBRANCH   1   5
BRANCH   1  12
ATOM     12  C   UNL     1       3.703   4.898  18.266  0.00  0.00    +0.000 C 
ATOM     13  S   UNL     1       3.767   6.534  17.885  0.00  0.00    +0.000 S 
BRANCH  12  14
ATOM     14  N   UNL     1       2.759   4.317  19.133  0.00  0.00    +0.000 N 
ATOM     15  C   UNL     1       2.503   4.873  20.475  0.00  0.00    +0.000 C 
ATOM     16  C   UNL     1       2.128   3.761  21.459  0.00  0.00    +0.000 C 
ATOM     17  O   UNL     1       1.012   2.998  20.980  0.00  0.00    +0.000 OA
ATOM     18  C   UNL     1       1.305   2.415  19.700  0.00  0.00    +0.000 C 
ATOM     19  C   UNL     1       1.635   3.491  18.658  0.00  0.00    +0.000 C 
ENDBRANCH  12  14
ENDBRANCH   1  12
TORSDOF 4
ENDMDL
MODEL 5
REMARK VINA RESULT:      -6.6      3.593      6.985
REMARK  Name = 
REMARK  5 active torsions:
REMARK  status: ('A' for Active; 'I' for Inactive)
REMARK    1  A    between atoms: C_1  and  C_2
REMARK    2  A    between atoms: C_2  and  C_13
REMARK    3  A    between atoms: N_3  and  N_4
REMARK    4  A    between atoms: N_4  and  C_5
REMARK    5  A    between atoms: C_5  and  N_7
REMARK                            x       y       z     vdW  Elec       q    Type
REMARK                         _______ _______ _______ _____ _____    ______ ____
ROOT
ATOM      1  N   UNL     1       4.701   3.805  17.742  0.00  0.00    +0.000 N 
ATOM      2  H   UNL     1       4.879   2.984  18.299  0.00  0.00    +0.000 HD
ENDROOT
BRANCH   1   5
ATOM      3  C   UNL     1       7.339   4.692  17.040  0.00  0.00    +0.000 C 
ATOM      4  C   UNL     1       6.251   4.229  16.084  0.00  0.00    +0.000 C 
ATOM      5  N   UNL     1       5.066   3.823  16.438  0.00  0.00    +0.000 NA
BRANCH   4   6
ATOM      6  C   UNL     1       6.570   4.275  14.613  0.00  0.00    +0.000 A 
ATOM      7  C   UNL     1       7.567   5.113  14.094  0.00  0.00    +0.000 A 
ATOM      8  C   UNL     1       7.824   5.140  12.720  0.00  0.00    +0.000 A 
ATOM      9  C   UNL     1       7.088   4.333  11.854  0.00  0.00    +0.000 A 
ATOM     10  C   UNL     1       6.096   3.500  12.357  0.00  0.00    +0.000 A 
ATOM     11  C   UNL     1       5.835   3.469  13.730  0.00  0.00    +0.000 A 
ENDBRANCH   4   6
ENDBRANCH   1   5
BRANCH   1  12
ATOM     12  C   UNL     1       3.800   4.720  18.280  0.00  0.00    +0.000 C 
ATOM     13  S   UNL     1       3.843   6.366  17.944  0.00  0.00    +0.000 S 
BRANCH  12  14
ATOM     14  N   UNL     1       2.853   4.101  19.117  0.00  0.00    +0.000 N 
ATOM     15  C   UNL     1       2.523   4.653  20.445  0.00  0.00    +0.000 C 
ATOM     16  C   UNL     1       2.163   3.532  21.423  0.00  0.00    +0.000 C 
ATOM     17  O   UNL     1       1.103   2.714  20.910  0.00  0.00    +0.000 OA
ATOM     18  C   UNL     1       1.468   2.138  19.646  0.00  0.00    +0.000 C 
ATOM     19  C   UNL     1       1.787   3.221  18.609  0.00  0.00    +0.000 C 
ENDBRANCH  12  14
ENDBRANCH   1  12
TORSDOF 4
ENDMDL
MODEL 6
REMARK VINA RESULT:      -6.6      3.149      6.526
REMARK  Name = 
REMARK  5 active torsions:
REMARK  status: ('A' for Active; 'I' for Inactive)
REMARK    1  A    between atoms: C_1  and  C_2
REMARK    2  A    between atoms: C_2  and  C_13
REMARK    3  A    between atoms: N_3  and  N_4
REMARK    4  A    between atoms: N_4  and  C_5
REMARK    5  A    between atoms: C_5  and  N_7
REMARK                            x       y       z     vdW  Elec       q    Type
REMARK                         _______ _______ _______ _____ _____    ______ ____
ROOT
ATOM      1  N   UNL     1       4.846   6.619  17.304  0.00  0.00    +0.000 N 
ATOM      2  H   UNL     1       5.601   6.924  17.897  0.00  0.00    +0.000 HD
ENDROOT
BRANCH   1   5
ATOM      3  C   UNL     1       7.012   4.761  16.994  0.00  0.00    +0.000 C 
ATOM      4  C   UNL     1       6.098   5.283  15.897  0.00  0.00    +0.000 C 
ATOM      5  N   UNL     1       5.117   6.120  16.074  0.00  0.00    +0.000 NA
BRANCH   4   6
ATOM      6  C   UNL     1       6.377   4.812  14.495  0.00  0.00    +0.000 A 
ATOM      7  C   UNL     1       5.575   3.854  13.858  0.00  0.00    +0.000 A 
ATOM      8  C   UNL     1       5.875   3.429  12.560  0.00  0.00    +0.000 A 
ATOM      9  C   UNL     1       6.977   3.955  11.888  0.00  0.00    +0.000 A 
ATOM     10  C   UNL     1       7.781   4.903  12.510  0.00  0.00    +0.000 A 
ATOM     11  C   UNL     1       7.485   5.331  13.808  0.00  0.00    +0.000 A 
ENDBRANCH   4   6
ENDBRANCH   1   5
BRANCH   1  12
ATOM     12  C   UNL     1       3.617   6.434  17.932  0.00  0.00    +0.000 C 
ATOM     13  S   UNL     1       2.536   7.685  18.236  0.00  0.00    +0.000 S 
BRANCH  12  14
ATOM     14  N   UNL     1       3.389   5.085  18.264  0.00  0.00    +0.000 N 
ATOM     15  C   UNL     1       3.975   4.482  19.476  0.00  0.00    +0.000 C 
ATOM     16  C   UNL     1       4.284   3.000  19.248  0.00  0.00    +0.000 C 
ATOM     17  O   UNL     1       3.118   2.288  18.811  0.00  0.00    +0.000 OA
ATOM     18  C   UNL     1       2.599   2.853  17.597  0.00  0.00    +0.000 C 
ATOM     19  C   UNL     1       2.221   4.327  17.784  0.00  0.00    +0.000 C 
ENDBRANCH  12  14
ENDBRANCH   1  12
TORSDOF 4
ENDMDL
MODEL 7
REMARK VINA RESULT:      -6.5      2.647      6.711
REMARK  Name = 
REMARK  5 active torsions:
REMARK  status: ('A' for Active; 'I' for Inactive)
REMARK    1  A    between atoms: C_1  and  C_2
REMARK    2  A    between atoms: C_2  and  C_13
REMARK    3  A    between atoms: N_3  and  N_4
REMARK    4  A    between atoms: N_4  and  C_5
REMARK    5  A    between atoms: C_5  and  N_7
REMARK                            x       y       z     vdW  Elec       q    Type
REMARK                         _______ _______ _______ _____ _____    ______ ____
ROOT
ATOM      1  N   UNL     1       5.243   3.921  17.930  0.00  0.00    +0.000 N 
ATOM      2  H   UNL     1       5.859   4.202  18.678  0.00  0.00    +0.000 HD
ENDROOT
BRANCH   1   5
ATOM      3  C   UNL     1       5.273   6.201  16.187  0.00  0.00    +0.000 C 
ATOM      4  C   UNL     1       5.751   4.797  15.856  0.00  0.00    +0.000 C 
ATOM      5  N   UNL     1       5.732   3.785  16.674  0.00  0.00    +0.000 NA
BRANCH   4   6
ATOM      6  C   UNL     1       6.257   4.561  14.457  0.00  0.00    +0.000 A 
ATOM      7  C   UNL     1       7.366   5.247  13.941  0.00  0.00    +0.000 A 
ATOM      8  C   UNL     1       7.797   5.013  12.632  0.00  0.00    +0.000 A 
ATOM      9  C   UNL     1       7.125   4.094  11.827  0.00  0.00    +0.000 A 
ATOM     10  C   UNL     1       6.023   3.410  12.327  0.00  0.00    +0.000 A 
ATOM     11  C   UNL     1       5.588   3.641  13.635  0.00  0.00    +0.000 A 
ENDBRANCH   4   6
ENDBRANCH   1   5
BRANCH   1  12
ATOM     12  C   UNL     1       4.021   3.380  18.321  0.00  0.00    +0.000 C 
ATOM     13  S   UNL     1       3.481   1.866  17.829  0.00  0.00    +0.000 S 
BRANCH  12  14
ATOM     14  N   UNL     1       3.311   4.240  19.179  0.00  0.00    +0.000 N 
ATOM     15  C   UNL     1       2.494   3.716  20.289  0.00  0.00    +0.000 C 
ATOM     16  C   UNL     1       1.283   4.619  20.543  0.00  0.00    +0.000 C 
ATOM     17  O   UNL     1       1.687   5.976  20.776  0.00  0.00    +0.000 OA
ATOM     18  C   UNL     1       2.429   6.487  19.657  0.00  0.00    +0.000 C 
ATOM     19  C   UNL     1       3.686   5.649  19.391  0.00  0.00    +0.000 C 
ENDBRANCH  12  14
ENDBRANCH   1  12
TORSDOF 4
ENDMDL
MODEL 8
REMARK VINA RESULT:      -6.5      0.574      1.702
REMARK  Name = 
REMARK  5 active torsions:
REMARK  status: ('A' for Active; 'I' for Inactive)
REMARK    1  A    between atoms: C_1  and  C_2
REMARK    2  A    between atoms: C_2  and  C_13
REMARK    3  A    between atoms: N_3  and  N_4
REMARK    4  A    between atoms: N_4  and  C_5
REMARK    5  A    between atoms: C_5  and  N_7
REMARK                            x       y       z     vdW  Elec       q    Type
REMARK                         _______ _______ _______ _____ _____    ______ ____
ROOT
ATOM      1  N   UNL     1       4.038   4.497  19.588  0.00  0.00    +0.000 N 
ATOM      2  H   UNL     1       4.432   4.248  20.482  0.00  0.00    +0.000 HD
ENDROOT
BRANCH   1   5
ATOM      3  C   UNL     1       1.489   5.281  20.648  0.00  0.00    +0.000 C 
ATOM      4  C   UNL     1       2.440   6.144  19.836  0.00  0.00    +0.000 C 
ATOM      5  N   UNL     1       3.596   5.759  19.377  0.00  0.00    +0.000 NA
BRANCH   4   6
ATOM      6  C   UNL     1       1.988   7.545  19.516  0.00  0.00    +0.000 A 
ATOM      7  C   UNL     1       2.207   8.130  18.261  0.00  0.00    +0.000 A 
ATOM      8  C   UNL     1       1.785   9.439  18.006  0.00  0.00    +0.000 A 
ATOM      9  C   UNL     1       1.144  10.174  19.002  0.00  0.00    +0.000 A 
ATOM     10  C   UNL     1       0.925   9.605  20.251  0.00  0.00    +0.000 A 
ATOM     11  C   UNL     1       1.344   8.297  20.510  0.00  0.00    +0.000 A 
ENDBRANCH   4   6
ENDBRANCH   1   5
BRANCH   1  12
ATOM     12  C   UNL     1       4.287   3.606  18.547  0.00  0.00    +0.000 C 
ATOM     13  S   UNL     1       3.443   2.168  18.339  0.00  0.00    +0.000 S 
BRANCH  12  14
ATOM     14  N   UNL     1       5.309   4.063  17.693  0.00  0.00    +0.000 N 
ATOM     15  C   UNL     1       5.077   4.253  16.249  0.00  0.00    +0.000 C 
ATOM     16  C   UNL     1       6.354   3.968  15.453  0.00  0.00    +0.000 C 
ATOM     17  O   UNL     1       7.449   4.766  15.925  0.00  0.00    +0.000 OA
ATOM     18  C   UNL     1       7.697   4.520  17.318  0.00  0.00    +0.000 C 
ATOM     19  C   UNL     1       6.464   4.842  18.171  0.00  0.00    +0.000 C 
ENDBRANCH  12  14
ENDBRANCH   1  12
TORSDOF 4
ENDMDL
MODEL 9
REMARK VINA RESULT:      -6.5      3.518      7.066
REMARK  Name = 
REMARK  5 active torsions:
REMARK  status: ('A' for Active; 'I' for Inactive)
REMARK    1  A    between atoms: C_1  and  C_2
REMARK    2  A    between atoms: C_2  and  C_13
REMARK    3  A    between atoms: N_3  and  N_4
REMARK    4  A    between atoms: N_4  and  C_5
REMARK    5  A    between atoms: C_5  and  N_7
REMARK                            x       y       z     vdW  Elec       q    Type
REMARK                         _______ _______ _______ _____ _____    ______ ____
ROOT
ATOM      1  N   UNL     1       4.814   3.755  17.667  0.00  0.00    +0.000 N 
ATOM      2  H   UNL     1       4.981   2.922  18.210  0.00  0.00    +0.000 HD
ENDROOT
BRANCH   1   5
ATOM      3  C   UNL     1       7.415   4.733  16.946  0.00  0.00    +0.000 C 
ATOM      4  C   UNL     1       6.336   4.232  15.999  0.00  0.00    +0.000 C 
ATOM      5  N   UNL     1       5.169   3.786  16.360  0.00  0.00    +0.000 NA
BRANCH   4   6
ATOM      6  C   UNL     1       6.643   4.290  14.525  0.00  0.00    +0.000 A 
ATOM      7  C   UNL     1       7.583   5.185  13.995  0.00  0.00    +0.000 A 
ATOM      8  C   UNL     1       7.830   5.220  12.619  0.00  0.00    +0.000 A 
ATOM      9  C   UNL     1       7.139   4.364  11.762  0.00  0.00    +0.000 A 
ATOM     10  C   UNL     1       6.203   3.474  12.276  0.00  0.00    +0.000 A 
ATOM     11  C   UNL     1       5.954   3.436  13.651  0.00  0.00    +0.000 A 
ENDBRANCH   4   6
ENDBRANCH   1   5
BRANCH   1  12
ATOM     12  C   UNL     1       3.936   4.680  18.227  0.00  0.00    +0.000 C 
ATOM     13  S   UNL     1       3.948   6.316  17.842  0.00  0.00    +0.000 S 
BRANCH  12  14
ATOM     14  N   UNL     1       3.041   4.079  19.132  0.00  0.00    +0.000 N 
ATOM     15  C   UNL     1       3.042   2.622  19.361  0.00  0.00    +0.000 C 
ATOM     16  C   UNL     1       1.631   2.122  19.682  0.00  0.00    +0.000 C 
ATOM     17  O   UNL     1       1.068   2.834  20.793  0.00  0.00    +0.000 OA
ATOM     18  C   UNL     1       1.019   4.244  20.524  0.00  0.00    +0.000 C 
ATOM     19  C   UNL     1       2.418   4.809  20.249  0.00  0.00    +0.000 C 
ENDBRANCH  12  14
ENDBRANCH   1  12
TORSDOF 4
ENDMDL
