MODEL 1
REMARK VINA RESULT:      -5.0      0.000      0.000
REMARK  Name = 
REMARK  6 active torsions:
REMARK  status: ('A' for Active; 'I' for Inactive)
REMARK    1  A    between atoms: C_1  and  N_2
REMARK    2  A    between atoms: N_10  and  C_11
REMARK    3  A    between atoms: C_15  and  C_16
REMARK    4  A    between atoms: C_18  and  N_19
REMARK    5  A    between atoms: C_20  and  C_21
REMARK    6  A    between atoms: C_20  and  C_23
REMARK                            x       y       z     vdW  Elec       q    Type
REMARK                         _______ _______ _______ _____ _____    ______ ____
ROOT
ATOM      1  C   UNL     1       0.468  16.853  20.852  0.00  0.00    +0.000 C 
ATOM      2  N   UNL     1       1.119  15.713  20.221  0.00  0.00    +0.000 NA
ATOM      3  C   UNL     1       1.561  14.702  21.173  0.00  0.00    +0.000 C 
ATOM      4  C   UNL     1       0.460  13.708  21.612  0.00  0.00    +0.000 C 
ATOM      5  C   UNL     1      -0.365  12.995  20.470  0.00  0.00    +0.000 C 
ATOM      6  C   UNL     1      -0.742  14.174  19.468  0.00  0.00    +0.000 C 
ATOM      7  C   UNL     1       0.350  15.189  19.102  0.00  0.00    +0.000 C 
ATOM      8  C   UNL     1      -1.584  12.126  20.941  0.00  0.00    +0.000 C 
ATOM      9  C   UNL     1      -2.256  12.526  22.243  0.00  0.00    +0.000 C 
ATOM     10  N   UNL     1      -3.092  13.652  22.039  0.00  0.00    +0.000 NA
ATOM     11  C   UNL     1      -2.804  14.846  22.793  0.00  0.00    +0.000 C 
ATOM     12  C   UNL     1      -3.918  13.652  20.831  0.00  0.00    +0.000 C 
ATOM     13  C   UNL     1      -3.553  12.623  19.694  0.00  0.00    +0.000 C 
ATOM     14  C   UNL     1      -2.417  11.893  19.682  0.00  0.00    +0.000 C 
ATOM     15  C   UNL     1      -1.678  11.074  18.597  0.00  0.00    +0.000 C 
ATOM     16  C   UNL     1      -0.324  10.985  18.691  0.00  0.00    +0.000 C 
ATOM     17  C   UNL     1       0.392  11.815  19.782  0.00  0.00    +0.000 C 
ENDROOT
BRANCH  16  18
ATOM     18  N   UNL     1       0.461  10.158  17.882  0.00  0.00    +0.000 N 
ATOM     19  H   UNL     1       1.070  10.592  17.186  0.00  0.00    +0.000 HD
ATOM     20  H   UNL     1       0.878   9.318  18.285  0.00  0.00    +0.000 HD
ENDBRANCH  16  18
BRANCH  15  21
ATOM     21  C   UNL     1      -2.307  10.241  17.491  0.00  0.00    +0.000 C 
ATOM     22  N   UNL     1      -2.829   9.550  16.575  0.00  0.00    +0.000 NA
ENDBRANCH  15  21
BRANCH  17  23
ATOM     23  C   UNL     1       1.621  12.447  19.151  0.00  0.00    +0.000 C 
ATOM     24  N   UNL     1       2.642  12.972  18.627  0.00  0.00    +0.000 NA
ENDBRANCH  17  23
BRANCH  17  25
ATOM     25  C   UNL     1       0.811  10.874  20.899  0.00  0.00    +0.000 C 
ATOM     26  N   UNL     1       1.158  10.094  21.827  0.00  0.00    +0.000 NA
ENDBRANCH  17  25
TORSDOF 4
ENDMDL
MODEL 2
REMARK VINA RESULT:      -4.9      8.317     11.168
REMARK  Name = 
REMARK  6 active torsions:
REMARK  status: ('A' for Active; 'I' for Inactive)
REMARK    1  A    between atoms: C_1  and  N_2
REMARK    2  A    between atoms: N_10  and  C_11
REMARK    3  A    between atoms: C_15  and  C_16
REMARK    4  A    between atoms: C_18  and  N_19
REMARK    5  A    between atoms: C_20  and  C_21
REMARK    6  A    between atoms: C_20  and  C_23
REMARK                            x       y       z     vdW  Elec       q    Type
REMARK                         _______ _______ _______ _____ _____    ______ ____
ROOT
ATOM      1  C   UNL     1      11.615  18.440  18.798  0.00  0.00    +0.000 C 
ATOM      2  N   UNL     1      10.295  18.224  19.376  0.00  0.00    +0.000 NA
ATOM      3  C   UNL     1       9.291  17.835  18.393  0.00  0.00    +0.000 C 
ATOM      4  C   UNL     1       9.282  16.327  18.048  0.00  0.00    +0.000 C 
ATOM      5  C   UNL     1       9.222  15.311  19.256  0.00  0.00    +0.000 C 
ATOM      6  C   UNL     1      10.307  15.863  20.283  0.00  0.00    +0.000 C 
ATOM      7  C   UNL     1      10.342  17.373  20.556  0.00  0.00    +0.000 C 
ATOM      8  C   UNL     1       9.385  13.793  18.889  0.00  0.00    +0.000 C 
ATOM      9  C   UNL     1      10.194  13.467  17.646  0.00  0.00    +0.000 C 
ATOM     10  N   UNL     1      11.580  13.587  17.915  0.00  0.00    +0.000 NA
ATOM     11  C   UNL     1      12.333  14.538  17.137  0.00  0.00    +0.000 C 
ATOM     12  C   UNL     1      12.056  13.042  19.187  0.00  0.00    +0.000 C 
ATOM     13  C   UNL     1      10.981  12.715  20.293  0.00  0.00    +0.000 C 
ATOM     14  C   UNL     1       9.688  13.094  20.212  0.00  0.00    +0.000 C 
ATOM     15  C   UNL     1       8.529  13.184  21.236  0.00  0.00    +0.000 C 
ATOM     16  C   UNL     1       7.583  14.139  21.030  0.00  0.00    +0.000 C 
ATOM     17  C   UNL     1       7.800  15.152  19.883  0.00  0.00    +0.000 C 
ENDROOT
BRANCH  16  18
ATOM     18  N   UNL     1       6.404  14.240  21.775  0.00  0.00    +0.000 N 
ATOM     19  H   UNL     1       5.780  15.030  21.597  0.00  0.00    +0.000 HD
ATOM     20  H   UNL     1       5.889  13.390  22.008  0.00  0.00    +0.000 HD
ENDBRANCH  16  18
BRANCH  15  21
ATOM     21  C   UNL     1       8.253  12.235  22.391  0.00  0.00    +0.000 C 
ATOM     22  N   UNL     1       8.023  11.448  23.349  0.00  0.00    +0.000 NA
ENDBRANCH  15  21
BRANCH  17  23
ATOM     23  C   UNL     1       7.442  16.532  20.409  0.00  0.00    +0.000 C 
ATOM     24  N   UNL     1       7.146  17.677  20.846  0.00  0.00    +0.000 NA
ENDBRANCH  17  23
BRANCH  17  25
ATOM     25  C   UNL     1       6.874  14.780  18.737  0.00  0.00    +0.000 C 
ATOM     26  N   UNL     1       6.105  14.472  17.785  0.00  0.00    +0.000 NA
ENDBRANCH  17  25
TORSDOF 4
ENDMDL
MODEL 3
REMARK VINA RESULT:      -4.9      2.690      5.288
REMARK  Name = 
REMARK  6 active torsions:
REMARK  status: ('A' for Active; 'I' for Inactive)
REMARK    1  A    between atoms: C_1  and  N_2
REMARK    2  A    between atoms: N_10  and  C_11
REMARK    3  A    between atoms: C_15  and  C_16
REMARK    4  A    between atoms: C_18  and  N_19
REMARK    5  A    between atoms: C_20  and  C_21
REMARK    6  A    between atoms: C_20  and  C_23
REMARK                            x       y       z     vdW  Elec       q    Type
REMARK                         _______ _______ _______ _____ _____    ______ ____
ROOT
ATOM      1  C   UNL     1      -0.423  14.135  19.042  0.00  0.00    +0.000 C 
ATOM      2  N   UNL     1      -0.634  13.367  20.262  0.00  0.00    +0.000 NA
ATOM      3  C   UNL     1      -0.308  14.106  21.474  0.00  0.00    +0.000 C 
ATOM      4  C   UNL     1      -1.434  15.039  21.980  0.00  0.00    +0.000 C 
ATOM      5  C   UNL     1      -2.872  14.408  22.149  0.00  0.00    +0.000 C 
ATOM      6  C   UNL     1      -3.095  13.583  20.805  0.00  0.00    +0.000 C 
ATOM      7  C   UNL     1      -1.938  12.719  20.285  0.00  0.00    +0.000 C 
ATOM      8  C   UNL     1      -4.028  15.410  22.498  0.00  0.00    +0.000 C 
ATOM      9  C   UNL     1      -3.866  16.844  22.023  0.00  0.00    +0.000 C 
ATOM     10  N   UNL     1      -4.154  16.938  20.639  0.00  0.00    +0.000 NA
ATOM     11  C   UNL     1      -3.109  17.415  19.769  0.00  0.00    +0.000 C 
ATOM     12  C   UNL     1      -5.320  16.199  20.154  0.00  0.00    +0.000 C 
ATOM     13  C   UNL     1      -5.926  15.088  21.093  0.00  0.00    +0.000 C 
ATOM     14  C   UNL     1      -5.318  14.644  22.215  0.00  0.00    +0.000 C 
ATOM     15  C   UNL     1      -5.512  13.406  23.123  0.00  0.00    +0.000 C 
ATOM     16  C   UNL     1      -4.416  12.921  23.766  0.00  0.00    +0.000 C 
ATOM     17  C   UNL     1      -3.039  13.544  23.441  0.00  0.00    +0.000 C 
ENDROOT
BRANCH  16  18
ATOM     18  N   UNL     1      -4.462  11.913  24.734  0.00  0.00    +0.000 N 
ATOM     19  H   UNL     1      -3.601  11.411  24.957  0.00  0.00    +0.000 HD
ATOM     20  H   UNL     1      -5.057  12.039  25.554  0.00  0.00    +0.000 HD
ENDBRANCH  16  18
BRANCH  15  21
ATOM     21  C   UNL     1      -6.826  12.732  23.485  0.00  0.00    +0.000 C 
ATOM     22  N   UNL     1      -7.916  12.174  23.785  0.00  0.00    +0.000 NA
ENDBRANCH  15  21
BRANCH  17  23
ATOM     23  C   UNL     1      -2.040  12.409  23.290  0.00  0.00    +0.000 C 
ATOM     24  N   UNL     1      -1.211  11.467  23.166  0.00  0.00    +0.000 NA
ENDBRANCH  17  23
BRANCH  17  25
ATOM     25  C   UNL     1      -2.634  14.439  24.600  0.00  0.00    +0.000 C 
ATOM     26  N   UNL     1      -2.297  15.182  25.562  0.00  0.00    +0.000 NA
ENDBRANCH  17  25
TORSDOF 4
ENDMDL
MODEL 4
REMARK VINA RESULT:      -4.7      1.927      2.588
REMARK  Name = 
REMARK  6 active torsions:
REMARK  status: ('A' for Active; 'I' for Inactive)
REMARK    1  A    between atoms: C_1  and  N_2
REMARK    2  A    between atoms: N_10  and  C_11
REMARK    3  A    between atoms: C_15  and  C_16
REMARK    4  A    between atoms: C_18  and  N_19
REMARK    5  A    between atoms: C_20  and  C_21
REMARK    6  A    between atoms: C_20  and  C_23
REMARK                            x       y       z     vdW  Elec       q    Type
REMARK                         _______ _______ _______ _____ _____    ______ ____
ROOT
ATOM      1  C   UNL     1      -1.887  17.377  23.629  0.00  0.00    +0.000 C 
ATOM      2  N   UNL     1      -0.928  16.428  23.081  0.00  0.00    +0.000 NA
ATOM      3  C   UNL     1      -0.760  15.236  23.902  0.00  0.00    +0.000 C 
ATOM      4  C   UNL     1      -1.829  14.142  23.670  0.00  0.00    +0.000 C 
ATOM      5  C   UNL     1      -2.089  13.692  22.179  0.00  0.00    +0.000 C 
ATOM      6  C   UNL     1      -2.196  15.060  21.372  0.00  0.00    +0.000 C 
ATOM      7  C   UNL     1      -1.165  16.158  21.670  0.00  0.00    +0.000 C 
ATOM      8  C   UNL     1      -3.292  12.708  21.955  0.00  0.00    +0.000 C 
ATOM      9  C   UNL     1      -4.439  12.782  22.950  0.00  0.00    +0.000 C 
ATOM     10  N   UNL     1      -5.258  13.904  22.673  0.00  0.00    +0.000 NA
ATOM     11  C   UNL     1      -5.402  14.899  23.706  0.00  0.00    +0.000 C 
ATOM     12  C   UNL     1      -5.572  14.163  21.268  0.00  0.00    +0.000 C 
ATOM     13  C   UNL     1      -4.702  13.433  20.175  0.00  0.00    +0.000 C 
ATOM     14  C   UNL     1      -3.569  12.753  20.454  0.00  0.00    +0.000 C 
ATOM     15  C   UNL     1      -2.395  12.224  19.596  0.00  0.00    +0.000 C 
ATOM     16  C   UNL     1      -1.172  12.147  20.184  0.00  0.00    +0.000 C 
ATOM     17  C   UNL     1      -1.006  12.720  21.611  0.00  0.00    +0.000 C 
ENDROOT
BRANCH  16  18
ATOM     18  N   UNL     1      -0.057  11.548  19.590  0.00  0.00    +0.000 N 
ATOM     19  H   UNL     1       0.307  11.946  18.722  0.00  0.00    +0.000 HD
ATOM     20  H   UNL     1       0.688  11.181  20.185  0.00  0.00    +0.000 HD
ENDBRANCH  16  18
BRANCH  15  21
ATOM     21  C   UNL     1      -2.474  11.653  18.189  0.00  0.00    +0.000 C 
ATOM     22  N   UNL     1      -2.540  11.179  17.022  0.00  0.00    +0.000 NA
ENDBRANCH  15  21
BRANCH  17  23
ATOM     23  C   UNL     1       0.292  13.509  21.646  0.00  0.00    +0.000 C 
ATOM     24  N   UNL     1       1.369  14.165  21.674  0.00  0.00    +0.000 NA
ENDBRANCH  17  23
BRANCH  17  25
ATOM     25  C   UNL     1      -0.930  11.557  22.586  0.00  0.00    +0.000 C 
ATOM     26  N   UNL     1      -0.867  10.592  23.396  0.00  0.00    +0.000 NA
ENDBRANCH  17  25
TORSDOF 4
ENDMDL
MODEL 5
REMARK VINA RESULT:      -4.7      1.216      1.281
REMARK  Name = 
REMARK  6 active torsions:
REMARK  status: ('A' for Active; 'I' for Inactive)
REMARK    1  A    between atoms: C_1  and  N_2
REMARK    2  A    between atoms: N_10  and  C_11
REMARK    3  A    between atoms: C_15  and  C_16
REMARK    4  A    between atoms: C_18  and  N_19
REMARK    5  A    between atoms: C_20  and  C_21
REMARK    6  A    between atoms: C_20  and  C_23
REMARK                            x       y       z     vdW  Elec       q    Type
REMARK                         _______ _______ _______ _____ _____    ______ ____
ROOT
ATOM      1  C   UNL     1       2.400  16.283  20.521  0.00  0.00    +0.000 C 
ATOM      2  N   UNL     1       2.463  15.037  19.770  0.00  0.00    +0.000 NA
ATOM      3  C   UNL     1       2.782  13.880  20.596  0.00  0.00    +0.000 C 
ATOM      4  C   UNL     1       1.570  13.263  21.333  0.00  0.00    +0.000 C 
ATOM      5  C   UNL     1       0.295  12.923  20.464  0.00  0.00    +0.000 C 
ATOM      6  C   UNL     1       0.077  14.220  19.568  0.00  0.00    +0.000 C 
ATOM      7  C   UNL     1       1.307  14.856  18.904  0.00  0.00    +0.000 C 
ATOM      8  C   UNL     1      -0.976  12.458  21.259  0.00  0.00    +0.000 C 
ATOM      9  C   UNL     1      -1.126  12.970  22.682  0.00  0.00    +0.000 C 
ATOM     10  N   UNL     1      -1.576  14.313  22.676  0.00  0.00    +0.000 NA
ATOM     11  C   UNL     1      -0.735  15.303  23.299  0.00  0.00    +0.000 C 
ATOM     12  C   UNL     1      -2.637  14.651  21.727  0.00  0.00    +0.000 C 
ATOM     13  C   UNL     1      -2.928  13.634  20.559  0.00  0.00    +0.000 C 
ATOM     14  C   UNL     1      -2.132  12.583  20.268  0.00  0.00    +0.000 C 
ATOM     15  C   UNL     1      -2.000  11.641  19.047  0.00  0.00    +0.000 C 
ATOM     16  C   UNL     1      -0.771  11.120  18.786  0.00  0.00    +0.000 C 
ATOM     17  C   UNL     1       0.428  11.608  19.630  0.00  0.00    +0.000 C 
ENDROOT
BRANCH  16  18
ATOM     18  N   UNL     1      -0.530  10.138  17.819  0.00  0.00    +0.000 N 
ATOM     19  H   UNL     1       0.266  10.258  17.190  0.00  0.00    +0.000 HD
ATOM     20  H   UNL     1      -0.688   9.157  18.056  0.00  0.00    +0.000 HD
ENDBRANCH  16  18
BRANCH  15  21
ATOM     21  C   UNL     1      -3.125  11.122  18.166  0.00  0.00    +0.000 C 
ATOM     22  N   UNL     1      -4.058  10.691  17.434  0.00  0.00    +0.000 NA
ENDBRANCH  15  21
BRANCH  17  23
ATOM     23  C   UNL     1       1.591  11.855  18.684  0.00  0.00    +0.000 C 
ATOM     24  N   UNL     1       2.557  12.059  17.899  0.00  0.00    +0.000 NA
ENDBRANCH  17  23
BRANCH  17  25
ATOM     25  C   UNL     1       0.791  10.515  20.622  0.00  0.00    +0.000 C 
ATOM     26  N   UNL     1       1.091   9.608  21.445  0.00  0.00    +0.000 NA
ENDBRANCH  17  25
TORSDOF 4
ENDMDL
MODEL 6
REMARK VINA RESULT:      -4.7      1.619      1.899
REMARK  Name = 
REMARK  6 active torsions:
REMARK  status: ('A' for Active; 'I' for Inactive)
REMARK    1  A    between atoms: C_1  and  N_2
REMARK    2  A    between atoms: N_10  and  C_11
REMARK    3  A    between atoms: C_15  and  C_16
REMARK    4  A    between atoms: C_18  and  N_19
REMARK    5  A    between atoms: C_20  and  C_21
REMARK    6  A    between atoms: C_20  and  C_23
REMARK                            x       y       z     vdW  Elec       q    Type
REMARK                         _______ _______ _______ _____ _____    ______ ____
ROOT
ATOM      1  C   UNL     1      -1.208  17.398  22.854  0.00  0.00    +0.000 C 
ATOM      2  N   UNL     1      -0.538  16.683  21.777  0.00  0.00    +0.000 NA
ATOM      3  C   UNL     1       0.304  15.589  22.245  0.00  0.00    +0.000 C 
ATOM      4  C   UNL     1      -0.454  14.269  22.521  0.00  0.00    +0.000 C 
ATOM      5  C   UNL     1      -1.394  13.723  21.375  0.00  0.00    +0.000 C 
ATOM      6  C   UNL     1      -2.216  15.003  20.904  0.00  0.00    +0.000 C 
ATOM      7  C   UNL     1      -1.453  16.320  20.704  0.00  0.00    +0.000 C 
ATOM      8  C   UNL     1      -2.278  12.480  21.742  0.00  0.00    +0.000 C 
ATOM      9  C   UNL     1      -2.666  12.315  23.202  0.00  0.00    +0.000 C 
ATOM     10  N   UNL     1      -3.716  13.205  23.534  0.00  0.00    +0.000 NA
ATOM     11  C   UNL     1      -3.472  14.171  24.576  0.00  0.00    +0.000 C 
ATOM     12  C   UNL     1      -4.803  13.338  22.563  0.00  0.00    +0.000 C 
ATOM     13  C   UNL     1      -4.552  12.798  21.104  0.00  0.00    +0.000 C 
ATOM     14  C   UNL     1      -3.341  12.410  20.649  0.00  0.00    +0.000 C 
ATOM     15  C   UNL     1      -2.759  12.143  19.239  0.00  0.00    +0.000 C 
ATOM     16  C   UNL     1      -1.431  12.374  19.055  0.00  0.00    +0.000 C 
ATOM     17  C   UNL     1      -0.630  13.014  20.211  0.00  0.00    +0.000 C 
ENDROOT
BRANCH  16  18
ATOM     18  N   UNL     1      -0.736  12.033  17.891  0.00  0.00    +0.000 N 
ATOM     19  H   UNL     1       0.258  12.261  17.831  0.00  0.00    +0.000 HD
ATOM     20  H   UNL     1      -0.956  11.154  17.419  0.00  0.00    +0.000 HD
ENDBRANCH  16  18
BRANCH  15  21
ATOM     21  C   UNL     1      -3.481  11.525  18.053  0.00  0.00    +0.000 C 
ATOM     22  N   UNL     1      -4.080  11.012  17.068  0.00  0.00    +0.000 NA
ENDBRANCH  15  21
BRANCH  17  23
ATOM     23  C   UNL     1       0.268  14.086  19.615  0.00  0.00    +0.000 C 
ATOM     24  N   UNL     1       1.012  14.975  19.120  0.00  0.00    +0.000 NA
ENDBRANCH  17  23
BRANCH  17  25
ATOM     25  C   UNL     1       0.218  11.933  20.861  0.00  0.00    +0.000 C 
ATOM     26  N   UNL     1       0.922  11.036  21.400  0.00  0.00    +0.000 NA
ENDBRANCH  17  25
TORSDOF 4
ENDMDL
MODEL 7
REMARK VINA RESULT:      -4.6      0.962      1.036
REMARK  Name = 
REMARK  6 active torsions:
REMARK  status: ('A' for Active; 'I' for Inactive)
REMARK    1  A    between atoms: C_1  and  N_2
REMARK    2  A    between atoms: N_10  and  C_11
REMARK    3  A    between atoms: C_15  and  C_16
REMARK    4  A    between atoms: C_18  and  N_19
REMARK    5  A    between atoms: C_20  and  C_21
REMARK    6  A    between atoms: C_20  and  C_23
REMARK                            x       y       z     vdW  Elec       q    Type
REMARK                         _______ _______ _______ _____ _____    ______ ____
ROOT
ATOM      1  C   UNL     1       0.629  17.298  21.449  0.00  0.00    +0.000 C 
ATOM      2  N   UNL     1       1.049  16.196  20.595  0.00  0.00    +0.000 NA
ATOM      3  C   UNL     1       1.597  15.067  21.336  0.00  0.00    +0.000 C 
ATOM      4  C   UNL     1       0.535  14.096  21.904  0.00  0.00    +0.000 C 
ATOM      5  C   UNL     1      -0.558  13.555  20.899  0.00  0.00    +0.000 C 
ATOM      6  C   UNL     1      -1.039  14.852  20.111  0.00  0.00    +0.000 C 
ATOM      7  C   UNL     1       0.031  15.837  19.619  0.00  0.00    +0.000 C 
ATOM      8  C   UNL     1      -1.719  12.710  21.534  0.00  0.00    +0.000 C 
ATOM      9  C   UNL     1      -2.080  13.009  22.979  0.00  0.00    +0.000 C 
ATOM     10  N   UNL     1      -2.851  14.194  23.059  0.00  0.00    +0.000 NA
ATOM     11  C   UNL     1      -2.324  15.284  23.842  0.00  0.00    +0.000 C 
ATOM     12  C   UNL     1      -3.902  14.368  22.056  0.00  0.00    +0.000 C 
ATOM     13  C   UNL     1      -3.856  13.446  20.779  0.00  0.00    +0.000 C 
ATOM     14  C   UNL     1      -2.805  12.659  20.462  0.00  0.00    +0.000 C 
ATOM     15  C   UNL     1      -2.367  11.919  19.175  0.00  0.00    +0.000 C 
ATOM     16  C   UNL     1      -1.033  11.745  18.975  0.00  0.00    +0.000 C 
ATOM     17  C   UNL     1      -0.049  12.413  19.962  0.00  0.00    +0.000 C 
ENDROOT
BRANCH  16  18
ATOM     18  N   UNL     1      -0.495  10.965  17.947  0.00  0.00    +0.000 N 
ATOM     19  H   UNL     1       0.382  10.470  18.117  0.00  0.00    +0.000 HD
ATOM     20  H   UNL     1      -1.125  10.433  17.345  0.00  0.00    +0.000 HD
ENDBRANCH  16  18
BRANCH  15  21
ATOM     21  C   UNL     1      -3.270  11.244  18.155  0.00  0.00    +0.000 C 
ATOM     22  N   UNL     1      -4.018  10.684  17.309  0.00  0.00    +0.000 NA
ENDBRANCH  15  21
BRANCH  17  23
ATOM     23  C   UNL     1       1.071  13.038  19.148  0.00  0.00    +0.000 C 
ATOM     24  N   UNL     1       2.001  13.557  18.473  0.00  0.00    +0.000 NA
ENDBRANCH  17  23
BRANCH  17  25
ATOM     25  C   UNL     1       0.514  11.338  20.877  0.00  0.00    +0.000 C 
ATOM     26  N   UNL     1       0.982  10.445  21.635  0.00  0.00    +0.000 NA
ENDBRANCH  17  25
TORSDOF 4
ENDMDL
MODEL 8
REMARK VINA RESULT:      -4.5      8.045     11.115
REMARK  Name = 
REMARK  6 active torsions:
REMARK  status: ('A' for Active; 'I' for Inactive)
REMARK    1  A    between atoms: C_1  and  N_2
REMARK    2  A    between atoms: N_10  and  C_11
REMARK    3  A    between atoms: C_15  and  C_16
REMARK    4  A    between atoms: C_18  and  N_19
REMARK    5  A    between atoms: C_20  and  C_21
REMARK    6  A    between atoms: C_20  and  C_23
REMARK                            x       y       z     vdW  Elec       q    Type
REMARK                         _______ _______ _______ _____ _____    ______ ____
ROOT
ATOM      1  C   UNL     1      11.848  11.481  18.176  0.00  0.00    +0.000 C 
ATOM      2  N   UNL     1      10.911  11.499  19.291  0.00  0.00    +0.000 NA
ATOM      3  C   UNL     1      11.407  12.228  20.452  0.00  0.00    +0.000 C 
ATOM      4  C   UNL     1      11.205  13.760  20.382  0.00  0.00    +0.000 C 
ATOM      5  C   UNL     1       9.753  14.282  20.045  0.00  0.00    +0.000 C 
ATOM      6  C   UNL     1       9.293  13.384  18.813  0.00  0.00    +0.000 C 
ATOM      7  C   UNL     1       9.567  11.875  18.875  0.00  0.00    +0.000 C 
ATOM      8  C   UNL     1       9.612  15.827  19.814  0.00  0.00    +0.000 C 
ATOM      9  C   UNL     1      10.836  16.562  19.292  0.00  0.00    +0.000 C 
ATOM     10  N   UNL     1      10.992  16.332  17.903  0.00  0.00    +0.000 NA
ATOM     11  C   UNL     1      12.213  15.707  17.460  0.00  0.00    +0.000 C 
ATOM     12  C   UNL     1       9.780  16.382  17.084  0.00  0.00    +0.000 C 
ATOM     13  C   UNL     1       8.391  16.312  17.825  0.00  0.00    +0.000 C 
ATOM     14  C   UNL     1       8.257  16.007  19.134  0.00  0.00    +0.000 C 
ATOM     15  C   UNL     1       7.062  15.578  20.020  0.00  0.00    +0.000 C 
ATOM     16  C   UNL     1       7.327  14.773  21.084  0.00  0.00    +0.000 C 
ATOM     17  C   UNL     1       8.764  14.230  21.254  0.00  0.00    +0.000 C 
ENDROOT
BRANCH  16  18
ATOM     18  N   UNL     1       6.382  14.433  22.057  0.00  0.00    +0.000 N 
ATOM     19  H   UNL     1       5.523  13.965  21.762  0.00  0.00    +0.000 HD
ATOM     20  H   UNL     1       6.704  14.103  22.969  0.00  0.00    +0.000 HD
ENDBRANCH  16  18
BRANCH  15  21
ATOM     21  C   UNL     1       5.624  16.059  19.913  0.00  0.00    +0.000 C 
ATOM     22  N   UNL     1       4.431  16.459  19.824  0.00  0.00    +0.000 NA
ENDBRANCH  15  21
BRANCH  17  23
ATOM     23  C   UNL     1       8.663  12.759  21.621  0.00  0.00    +0.000 C 
ATOM     24  N   UNL     1       8.580  11.538  21.926  0.00  0.00    +0.000 NA
ENDBRANCH  17  23
BRANCH  17  25
ATOM     25  C   UNL     1       9.435  14.999  22.380  0.00  0.00    +0.000 C 
ATOM     26  N   UNL     1       9.992  15.637  23.314  0.00  0.00    +0.000 NA
ENDBRANCH  17  25
TORSDOF 4
ENDMDL
MODEL 9
REMARK VINA RESULT:      -4.5      7.673     10.467
REMARK  Name = 
REMARK  6 active torsions:
REMARK  status: ('A' for Active; 'I' for Inactive)
REMARK    1  A    between atoms: C_1  and  N_2
REMARK    2  A    between atoms: N_10  and  C_11
REMARK    3  A    between atoms: C_15  and  C_16
REMARK    4  A    between atoms: C_18  and  N_19
REMARK    5  A    between atoms: C_20  and  C_21
REMARK    6  A    between atoms: C_20  and  C_23
REMARK                            x       y       z     vdW  Elec       q    Type
REMARK                         _______ _______ _______ _____ _____    ______ ____
ROOT
ATOM      1  C   UNL     1      11.828  17.448  18.905  0.00  0.00    +0.000 C 
ATOM      2  N   UNL     1      10.427  17.735  19.180  0.00  0.00    +0.000 NA
ATOM      3  C   UNL     1       9.528  17.289  18.123  0.00  0.00    +0.000 C 
ATOM      4  C   UNL     1       9.137  15.795  18.201  0.00  0.00    +0.000 C 
ATOM      5  C   UNL     1       8.589  15.264  19.584  0.00  0.00    +0.000 C 
ATOM      6  C   UNL     1       9.604  15.855  20.658  0.00  0.00    +0.000 C 
ATOM      7  C   UNL     1      10.032  17.323  20.519  0.00  0.00    +0.000 C 
ATOM      8  C   UNL     1       8.361  13.714  19.686  0.00  0.00    +0.000 C 
ATOM      9  C   UNL     1       9.232  12.829  18.811  0.00  0.00    +0.000 C 
ATOM     10  N   UNL     1      10.529  12.711  19.367  0.00  0.00    +0.000 NA
ATOM     11  C   UNL     1      11.643  13.163  18.572  0.00  0.00    +0.000 C 
ATOM     12  C   UNL     1      10.612  12.512  20.815  0.00  0.00    +0.000 C 
ATOM     13  C   UNL     1       9.324  12.813  21.671  0.00  0.00    +0.000 C 
ATOM     14  C   UNL     1       8.227  13.429  21.180  0.00  0.00    +0.000 C 
ATOM     15  C   UNL     1       6.994  14.105  21.828  0.00  0.00    +0.000 C 
ATOM     16  C   UNL     1       6.414  15.131  21.151  0.00  0.00    +0.000 C 
ATOM     17  C   UNL     1       7.099  15.643  19.864  0.00  0.00    +0.000 C 
ENDROOT
BRANCH  16  18
ATOM     18  N   UNL     1       5.210  15.733  21.531  0.00  0.00    +0.000 N 
ATOM     19  H   UNL     1       4.374  15.548  20.973  0.00  0.00    +0.000 HD
ATOM     20  H   UNL     1       4.993  15.829  22.525  0.00  0.00    +0.000 HD
ENDBRANCH  16  18
BRANCH  15  21
ATOM     21  C   UNL     1       6.269  13.668  23.091  0.00  0.00    +0.000 C 
ATOM     22  N   UNL     1       5.668  13.305  24.138  0.00  0.00    +0.000 NA
ENDBRANCH  15  21
BRANCH  17  23
ATOM     23  C   UNL     1       7.077  17.162  19.900  0.00  0.00    +0.000 C 
ATOM     24  N   UNL     1       7.060  18.423  19.929  0.00  0.00    +0.000 NA
ENDBRANCH  17  23
BRANCH  17  25
ATOM     25  C   UNL     1       6.305  15.143  18.669  0.00  0.00    +0.000 C 
ATOM     26  N   UNL     1       5.646  14.728  17.677  0.00  0.00    +0.000 NA
ENDBRANCH  17  25
TORSDOF 4
ENDMDL
