MODEL 1
REMARK VINA RESULT:      -6.5      0.000      0.000
REMARK  Name = 
REMARK  7 active torsions:
REMARK  status: ('A' for Active; 'I' for Inactive)
REMARK    1  A    between atoms: C_1  and  O_2
REMARK    2  A    between atoms: O_2  and  C_3
REMARK    3  A    between atoms: C_6  and  C_7
REMARK    4  A    between atoms: C_7  and  C_8
REMARK    5  A    between atoms: C_11  and  S_12
REMARK    6  A    between atoms: S_12  and  C_13
REMARK    7  A    between atoms: C_15  and  O_16
REMARK                            x       y       z     vdW  Elec       q    Type
REMARK                         _______ _______ _______ _____ _____    ______ ____
ROOT
ATOM      1  C   UNL     1       6.270   5.415  17.250  0.00  0.00    +0.000 A 
ATOM      2  N   UNL     1       5.465   5.941  16.306  0.00  0.00    +0.000 NA
ATOM      3  N   UNL     1       5.763   5.723  14.997  0.00  0.00    +0.000 NA
ATOM      4  C   UNL     1       6.852   4.990  14.663  0.00  0.00    +0.000 A 
ATOM      5  N   UNL     1       7.678   4.425  15.561  0.00  0.00    +0.000 NA
ATOM      6  C   UNL     1       7.352   4.664  16.838  0.00  0.00    +0.000 A 
ENDROOT
BRANCH   4   7
ATOM      7  S   UNL     1       7.247   4.769  12.945  0.00  0.00    +0.000 S 
ATOM      8  C   UNL     1       6.100   3.428  12.530  0.00  0.00    +0.000 C 
ENDBRANCH   4   7
BRANCH   6   9
ATOM      9  O   UNL     1       8.199   4.082  17.730  0.00  0.00    +0.000 OA
ATOM     10  H   UNL     1       8.960   3.877  17.154  0.00  0.00    +0.000 HD
ENDBRANCH   6   9
BRANCH   1  11
ATOM     11  C   UNL     1       5.951   5.692  18.685  0.00  0.00    +0.000 C 
BRANCH  11  15
ATOM     12  C   UNL     1       2.412   3.628  20.083  0.00  0.00    +0.000 A 
ATOM     13  C   UNL     1       2.446   5.021  20.037  0.00  0.00    +0.000 A 
ATOM     14  C   UNL     1       3.587   5.691  19.591  0.00  0.00    +0.000 A 
ATOM     15  C   UNL     1       4.722   4.972  19.191  0.00  0.00    +0.000 A 
ATOM     16  C   UNL     1       4.698   3.574  19.280  0.00  0.00    +0.000 A 
ATOM     17  C   UNL     1       3.550   2.907  19.718  0.00  0.00    +0.000 A 
BRANCH  12  19
ATOM     18  C   UNL     1       1.302   2.504  21.840  0.00  0.00    +0.000 C 
ATOM     19  O   UNL     1       1.246   3.076  20.537  0.00  0.00    +0.000 OA
ENDBRANCH  12  19
ENDBRANCH  11  15
ENDBRANCH   1  11
TORSDOF 5
ENDMDL
MODEL 2
REMARK VINA RESULT:      -6.4      0.202      1.151
REMARK  Name = 
REMARK  7 active torsions:
REMARK  status: ('A' for Active; 'I' for Inactive)
REMARK    1  A    between atoms: C_1  and  O_2
REMARK    2  A    between atoms: O_2  and  C_3
REMARK    3  A    between atoms: C_6  and  C_7
REMARK    4  A    between atoms: C_7  and  C_8
REMARK    5  A    between atoms: C_11  and  S_12
REMARK    6  A    between atoms: S_12  and  C_13
REMARK    7  A    between atoms: C_15  and  O_16
REMARK                            x       y       z     vdW  Elec       q    Type
REMARK                         _______ _______ _______ _____ _____    ______ ____
ROOT
ATOM      1  C   UNL     1       6.282   5.464  17.230  0.00  0.00    +0.000 A 
ATOM      2  N   UNL     1       5.521   6.008  16.259  0.00  0.00    +0.000 NA
ATOM      3  N   UNL     1       5.870   5.800  14.962  0.00  0.00    +0.000 NA
ATOM      4  C   UNL     1       6.964   5.058  14.665  0.00  0.00    +0.000 A 
ATOM      5  N   UNL     1       7.747   4.476  15.589  0.00  0.00    +0.000 NA
ATOM      6  C   UNL     1       7.372   4.706  16.854  0.00  0.00    +0.000 A 
ENDROOT
BRANCH   4   7
ATOM      7  S   UNL     1       7.426   4.851  12.961  0.00  0.00    +0.000 S 
ATOM      8  C   UNL     1       6.257   3.554  12.476  0.00  0.00    +0.000 C 
ENDBRANCH   4   7
BRANCH   6   9
ATOM      9  O   UNL     1       8.177   4.106  17.773  0.00  0.00    +0.000 OA
ATOM     10  H   UNL     1       7.907   4.573  18.586  0.00  0.00    +0.000 HD
ENDBRANCH   6   9
BRANCH   1  11
ATOM     11  C   UNL     1       5.908   5.730  18.654  0.00  0.00    +0.000 C 
BRANCH  11  15
ATOM     12  C   UNL     1       2.551   3.411  20.100  0.00  0.00    +0.000 A 
ATOM     13  C   UNL     1       3.677   2.775  19.577  0.00  0.00    +0.000 A 
ATOM     14  C   UNL     1       4.760   3.519  19.106  0.00  0.00    +0.000 A 
ATOM     15  C   UNL     1       4.728   4.920  19.140  0.00  0.00    +0.000 A 
ATOM     16  C   UNL     1       3.577   5.555  19.626  0.00  0.00    +0.000 A 
ATOM     17  C   UNL     1       2.499   4.805  20.107  0.00  0.00    +0.000 A 
BRANCH  12  19
ATOM     18  C   UNL     1       1.320   2.579  21.937  0.00  0.00    +0.000 C 
ATOM     19  O   UNL     1       1.549   2.586  20.532  0.00  0.00    +0.000 OA
ENDBRANCH  12  19
ENDBRANCH  11  15
ENDBRANCH   1  11
TORSDOF 5
ENDMDL
MODEL 3
REMARK VINA RESULT:      -6.3      3.021      3.823
REMARK  Name = 
REMARK  7 active torsions:
REMARK  status: ('A' for Active; 'I' for Inactive)
REMARK    1  A    between atoms: C_1  and  O_2
REMARK    2  A    between atoms: O_2  and  C_3
REMARK    3  A    between atoms: C_6  and  C_7
REMARK    4  A    between atoms: C_7  and  C_8
REMARK    5  A    between atoms: C_11  and  S_12
REMARK    6  A    between atoms: S_12  and  C_13
REMARK    7  A    between atoms: C_15  and  O_16
REMARK                            x       y       z     vdW  Elec       q    Type
REMARK                         _______ _______ _______ _____ _____    ______ ____
ROOT
ATOM      1  C   UNL     1       7.198   5.810  17.826  0.00  0.00    +0.000 A 
ATOM      2  N   UNL     1       6.853   6.642  16.823  0.00  0.00    +0.000 NA
ATOM      3  N   UNL     1       7.285   7.930  16.864  0.00  0.00    +0.000 NA
ATOM      4  C   UNL     1       8.047   8.356  17.899  0.00  0.00    +0.000 A 
ATOM      5  N   UNL     1       8.439   7.568  18.915  0.00  0.00    +0.000 NA
ATOM      6  C   UNL     1       7.991   6.308  18.840  0.00  0.00    +0.000 A 
ENDROOT
BRANCH   4   7
ATOM      7  S   UNL     1       8.551  10.060  17.953  0.00  0.00    +0.000 S 
ATOM      8  C   UNL     1       9.292  10.114  19.606  0.00  0.00    +0.000 C 
ENDBRANCH   4   7
BRANCH   6   9
ATOM      9  O   UNL     1       8.401   5.526  19.876  0.00  0.00    +0.000 OA
ATOM     10  H   UNL     1       8.505   6.194  20.580  0.00  0.00    +0.000 HD
ENDBRANCH   6   9
BRANCH   1  11
ATOM     11  C   UNL     1       6.687   4.405  17.787  0.00  0.00    +0.000 C 
BRANCH  11  15
ATOM     12  C   UNL     1       2.462   4.095  18.678  0.00  0.00    +0.000 A 
ATOM     13  C   UNL     1       3.382   4.353  19.694  0.00  0.00    +0.000 A 
ATOM     14  C   UNL     1       4.746   4.449  19.412  0.00  0.00    +0.000 A 
ATOM     15  C   UNL     1       5.214   4.278  18.102  0.00  0.00    +0.000 A 
ATOM     16  C   UNL     1       4.291   3.976  17.092  0.00  0.00    +0.000 A 
ATOM     17  C   UNL     1       2.924   3.889  17.377  0.00  0.00    +0.000 A 
BRANCH  12  19
ATOM     18  C   UNL     1       0.929   3.541  20.388  0.00  0.00    +0.000 C 
ATOM     19  O   UNL     1       1.152   4.019  19.066  0.00  0.00    +0.000 OA
ENDBRANCH  12  19
ENDBRANCH  11  15
ENDBRANCH   1  11
TORSDOF 5
ENDMDL
MODEL 4
REMARK VINA RESULT:      -6.1      2.605      3.467
REMARK  Name = 
REMARK  7 active torsions:
REMARK  status: ('A' for Active; 'I' for Inactive)
REMARK    1  A    between atoms: C_1  and  O_2
REMARK    2  A    between atoms: O_2  and  C_3
REMARK    3  A    between atoms: C_6  and  C_7
REMARK    4  A    between atoms: C_7  and  C_8
REMARK    5  A    between atoms: C_11  and  S_12
REMARK    6  A    between atoms: S_12  and  C_13
REMARK    7  A    between atoms: C_15  and  O_16
REMARK                            x       y       z     vdW  Elec       q    Type
REMARK                         _______ _______ _______ _____ _____    ______ ____
ROOT
ATOM      1  C   UNL     1       5.970   5.456  16.849  0.00  0.00    +0.000 A 
ATOM      2  N   UNL     1       6.009   6.683  16.294  0.00  0.00    +0.000 NA
ATOM      3  N   UNL     1       6.843   7.615  16.827  0.00  0.00    +0.000 NA
ATOM      4  C   UNL     1       7.616   7.302  17.894  0.00  0.00    +0.000 A 
ATOM      5  N   UNL     1       7.634   6.090  18.475  0.00  0.00    +0.000 NA
ATOM      6  C   UNL     1       6.798   5.201  17.924  0.00  0.00    +0.000 A 
ENDROOT
BRANCH   4   7
ATOM      7  S   UNL     1       8.655   8.557  18.602  0.00  0.00    +0.000 S 
ATOM      8  C   UNL     1       8.038  10.011  17.713  0.00  0.00    +0.000 C 
ENDBRANCH   4   7
BRANCH   6   9
ATOM      9  O   UNL     1       6.833   3.981  18.526  0.00  0.00    +0.000 OA
ATOM     10  H   UNL     1       7.541   4.120  19.182  0.00  0.00    +0.000 HD
ENDBRANCH   6   9
BRANCH   1  11
ATOM     11  C   UNL     1       5.022   4.450  16.276  0.00  0.00    +0.000 C 
BRANCH  11  15
ATOM     12  C   UNL     1       1.841   3.346  18.995  0.00  0.00    +0.000 A 
ATOM     13  C   UNL     1       2.654   2.367  18.425  0.00  0.00    +0.000 A 
ATOM     14  C   UNL     1       3.679   2.719  17.543  0.00  0.00    +0.000 A 
ATOM     15  C   UNL     1       3.899   4.062  17.210  0.00  0.00    +0.000 A 
ATOM     16  C   UNL     1       3.052   5.038  17.752  0.00  0.00    +0.000 A 
ATOM     17  C   UNL     1       2.033   4.682  18.642  0.00  0.00    +0.000 A 
BRANCH  12  19
ATOM     18  C   UNL     1       1.223   2.847  21.221  0.00  0.00    +0.000 C 
ATOM     19  O   UNL     1       0.868   2.890  19.842  0.00  0.00    +0.000 OA
ENDBRANCH  12  19
ENDBRANCH  11  15
ENDBRANCH   1  11
TORSDOF 5
ENDMDL
MODEL 5
REMARK VINA RESULT:      -6.1      2.705      3.370
REMARK  Name = 
REMARK  7 active torsions:
REMARK  status: ('A' for Active; 'I' for Inactive)
REMARK    1  A    between atoms: C_1  and  O_2
REMARK    2  A    between atoms: O_2  and  C_3
REMARK    3  A    between atoms: C_6  and  C_7
REMARK    4  A    between atoms: C_7  and  C_8
REMARK    5  A    between atoms: C_11  and  S_12
REMARK    6  A    between atoms: S_12  and  C_13
REMARK    7  A    between atoms: C_15  and  O_16
REMARK                            x       y       z     vdW  Elec       q    Type
REMARK                         _______ _______ _______ _____ _____    ______ ____
ROOT
ATOM      1  C   UNL     1       6.161   5.627  16.832  0.00  0.00    +0.000 A 
ATOM      2  N   UNL     1       6.133   6.881  16.339  0.00  0.00    +0.000 NA
ATOM      3  N   UNL     1       6.933   7.824  16.904  0.00  0.00    +0.000 NA
ATOM      4  C   UNL     1       7.738   7.496  17.942  0.00  0.00    +0.000 A 
ATOM      5  N   UNL     1       7.822   6.259  18.462  0.00  0.00    +0.000 NA
ATOM      6  C   UNL     1       7.018   5.359  17.881  0.00  0.00    +0.000 A 
ENDROOT
BRANCH   4   7
ATOM      7  S   UNL     1       8.730   8.763  18.695  0.00  0.00    +0.000 S 
ATOM      8  C   UNL     1       8.167  10.203  17.752  0.00  0.00    +0.000 C 
ENDBRANCH   4   7
BRANCH   6   9
ATOM      9  O   UNL     1       7.121   4.114  18.420  0.00  0.00    +0.000 OA
ATOM     10  H   UNL     1       6.500   3.617  17.855  0.00  0.00    +0.000 HD
ENDBRANCH   6   9
BRANCH   1  11
ATOM     11  C   UNL     1       5.250   4.607  16.225  0.00  0.00    +0.000 C 
BRANCH  11  15
ATOM     12  C   UNL     1       1.920   3.446  18.733  0.00  0.00    +0.000 A 
ATOM     13  C   UNL     1       2.184   4.793  18.489  0.00  0.00    +0.000 A 
ATOM     14  C   UNL     1       3.261   5.172  17.684  0.00  0.00    +0.000 A 
ATOM     15  C   UNL     1       4.099   4.203  17.116  0.00  0.00    +0.000 A 
ATOM     16  C   UNL     1       3.854   2.853  17.400  0.00  0.00    +0.000 A 
ATOM     17  C   UNL     1       2.769   2.477  18.199  0.00  0.00    +0.000 A 
BRANCH  12  19
ATOM     18  C   UNL     1       1.124   3.079  20.928  0.00  0.00    +0.000 C 
ATOM     19  O   UNL     1       0.842   3.188  19.536  0.00  0.00    +0.000 OA
ENDBRANCH  12  19
ENDBRANCH  11  15
ENDBRANCH   1  11
TORSDOF 5
ENDMDL
MODEL 6
REMARK VINA RESULT:      -6.0      1.319      1.685
REMARK  Name = 
REMARK  7 active torsions:
REMARK  status: ('A' for Active; 'I' for Inactive)
REMARK    1  A    between atoms: C_1  and  O_2
REMARK    2  A    between atoms: O_2  and  C_3
REMARK    3  A    between atoms: C_6  and  C_7
REMARK    4  A    between atoms: C_7  and  C_8
REMARK    5  A    between atoms: C_11  and  S_12
REMARK    6  A    between atoms: S_12  and  C_13
REMARK    7  A    between atoms: C_15  and  O_16
REMARK                            x       y       z     vdW  Elec       q    Type
REMARK                         _______ _______ _______ _____ _____    ______ ____
ROOT
ATOM      1  C   UNL     1       5.554   5.492  16.189  0.00  0.00    +0.000 A 
ATOM      2  N   UNL     1       4.774   4.710  15.418  0.00  0.00    +0.000 NA
ATOM      3  N   UNL     1       5.282   4.222  14.255  0.00  0.00    +0.000 NA
ATOM      4  C   UNL     1       6.551   4.524  13.891  0.00  0.00    +0.000 A 
ATOM      5  N   UNL     1       7.381   5.281  14.629  0.00  0.00    +0.000 NA
ATOM      6  C   UNL     1       6.844   5.744  15.765  0.00  0.00    +0.000 A 
ENDROOT
BRANCH   4   7
ATOM      7  S   UNL     1       7.169   3.918  12.339  0.00  0.00    +0.000 S 
ATOM      8  C   UNL     1       5.787   2.854  11.847  0.00  0.00    +0.000 C 
ENDBRANCH   4   7
BRANCH   6   9
ATOM      9  O   UNL     1       7.701   6.506  16.498  0.00  0.00    +0.000 OA
ATOM     10  H   UNL     1       8.561   6.166  16.186  0.00  0.00    +0.000 HD
ENDBRANCH   6   9
BRANCH   1  11
ATOM     11  C   UNL     1       4.972   6.051  17.448  0.00  0.00    +0.000 C 
BRANCH  11  15
ATOM     12  C   UNL     1       2.737   3.206  19.824  0.00  0.00    +0.000 A 
ATOM     13  C   UNL     1       4.107   3.037  19.622  0.00  0.00    +0.000 A 
ATOM     14  C   UNL     1       4.831   3.950  18.853  0.00  0.00    +0.000 A 
ATOM     15  C   UNL     1       4.189   5.047  18.262  0.00  0.00    +0.000 A 
ATOM     16  C   UNL     1       2.805   5.188  18.433  0.00  0.00    +0.000 A 
ATOM     17  C   UNL     1       2.086   4.277  19.212  0.00  0.00    +0.000 A 
BRANCH  12  19
ATOM     18  C   UNL     1       1.320   2.744  21.658  0.00  0.00    +0.000 C 
ATOM     19  O   UNL     1       2.127   2.252  20.593  0.00  0.00    +0.000 OA
ENDBRANCH  12  19
ENDBRANCH  11  15
ENDBRANCH   1  11
TORSDOF 5
ENDMDL
MODEL 7
REMARK VINA RESULT:      -6.0      1.332      2.037
REMARK  Name = 
REMARK  7 active torsions:
REMARK  status: ('A' for Active; 'I' for Inactive)
REMARK    1  A    between atoms: C_1  and  O_2
REMARK    2  A    between atoms: O_2  and  C_3
REMARK    3  A    between atoms: C_6  and  C_7
REMARK    4  A    between atoms: C_7  and  C_8
REMARK    5  A    between atoms: C_11  and  S_12
REMARK    6  A    between atoms: S_12  and  C_13
REMARK    7  A    between atoms: C_15  and  O_16
REMARK                            x       y       z     vdW  Elec       q    Type
REMARK                         _______ _______ _______ _____ _____    ______ ____
ROOT
ATOM      1  C   UNL     1       6.398   5.418  17.407  0.00  0.00    +0.000 A 
ATOM      2  N   UNL     1       7.448   4.641  17.077  0.00  0.00    +0.000 NA
ATOM      3  N   UNL     1       7.757   4.484  15.762  0.00  0.00    +0.000 NA
ATOM      4  C   UNL     1       7.015   5.103  14.813  0.00  0.00    +0.000 A 
ATOM      5  N   UNL     1       5.970   5.904  15.085  0.00  0.00    +0.000 NA
ATOM      6  C   UNL     1       5.696   6.032  16.389  0.00  0.00    +0.000 A 
ENDROOT
BRANCH   4   7
ATOM      7  S   UNL     1       7.409   4.833  13.101  0.00  0.00    +0.000 S 
ATOM      8  C   UNL     1       6.202   3.542  12.703  0.00  0.00    +0.000 C 
ENDBRANCH   4   7
BRANCH   6   9
ATOM      9  O   UNL     1       4.637   6.849  16.642  0.00  0.00    +0.000 OA
ATOM     10  H   UNL     1       4.934   7.285  17.462  0.00  0.00    +0.000 HD
ENDBRANCH   6   9
BRANCH   1  11
ATOM     11  C   UNL     1       6.047   5.555  18.855  0.00  0.00    +0.000 C 
BRANCH  11  15
ATOM     12  C   UNL     1       2.398   3.544  20.027  0.00  0.00    +0.000 A 
ATOM     13  C   UNL     1       3.490   2.812  19.563  0.00  0.00    +0.000 A 
ATOM     14  C   UNL     1       4.668   3.457  19.180  0.00  0.00    +0.000 A 
ATOM     15  C   UNL     1       4.767   4.854  19.246  0.00  0.00    +0.000 A 
ATOM     16  C   UNL     1       3.651   5.587  19.672  0.00  0.00    +0.000 A 
ATOM     17  C   UNL     1       2.477   4.936  20.064  0.00  0.00    +0.000 A 
BRANCH  12  19
ATOM     18  C   UNL     1       0.558   2.258  19.289  0.00  0.00    +0.000 C 
ATOM     19  O   UNL     1       1.295   2.811  20.374  0.00  0.00    +0.000 OA
ENDBRANCH  12  19
ENDBRANCH  11  15
ENDBRANCH   1  11
TORSDOF 5
ENDMDL
MODEL 8
REMARK VINA RESULT:      -6.0      1.234      1.246
REMARK  Name = 
REMARK  7 active torsions:
REMARK  status: ('A' for Active; 'I' for Inactive)
REMARK    1  A    between atoms: C_1  and  O_2
REMARK    2  A    between atoms: O_2  and  C_3
REMARK    3  A    between atoms: C_6  and  C_7
REMARK    4  A    between atoms: C_7  and  C_8
REMARK    5  A    between atoms: C_11  and  S_12
REMARK    6  A    between atoms: S_12  and  C_13
REMARK    7  A    between atoms: C_15  and  O_16
REMARK                            x       y       z     vdW  Elec       q    Type
REMARK                         _______ _______ _______ _____ _____    ______ ____
ROOT
ATOM      1  C   UNL     1       6.347   4.954  16.791  0.00  0.00    +0.000 A 
ATOM      2  N   UNL     1       5.753   3.859  16.280  0.00  0.00    +0.000 NA
ATOM      3  N   UNL     1       5.931   3.573  14.962  0.00  0.00    +0.000 NA
ATOM      4  C   UNL     1       6.694   4.382  14.191  0.00  0.00    +0.000 A 
ATOM      5  N   UNL     1       7.327   5.476  14.650  0.00  0.00    +0.000 NA
ATOM      6  C   UNL     1       7.125   5.725  15.950  0.00  0.00    +0.000 A 
ENDROOT
BRANCH   4   7
ATOM      7  S   UNL     1       6.863   4.013  12.460  0.00  0.00    +0.000 S 
ATOM      8  C   UNL     1       5.271   3.203  12.157  0.00  0.00    +0.000 C 
ENDBRANCH   4   7
BRANCH   6   9
ATOM      9  O   UNL     1       7.776   6.834  16.395  0.00  0.00    +0.000 OA
ATOM     10  H   UNL     1       8.001   6.563  17.304  0.00  0.00    +0.000 HD
ENDBRANCH   6   9
BRANCH   1  11
ATOM     11  C   UNL     1       6.114   5.278  18.233  0.00  0.00    +0.000 C 
BRANCH  11  15
ATOM     12  C   UNL     1       2.452   3.582  19.796  0.00  0.00    +0.000 A 
ATOM     13  C   UNL     1       2.461   4.867  19.254  0.00  0.00    +0.000 A 
ATOM     14  C   UNL     1       3.641   5.420  18.753  0.00  0.00    +0.000 A 
ATOM     15  C   UNL     1       4.840   4.694  18.796  0.00  0.00    +0.000 A 
ATOM     16  C   UNL     1       4.834   3.420  19.380  0.00  0.00    +0.000 A 
ATOM     17  C   UNL     1       3.647   2.867  19.873  0.00  0.00    +0.000 A 
BRANCH  12  19
ATOM     18  C   UNL     1       1.225   2.704  21.614  0.00  0.00    +0.000 C 
ATOM     19  O   UNL     1       1.242   3.140  20.259  0.00  0.00    +0.000 OA
ENDBRANCH  12  19
ENDBRANCH  11  15
ENDBRANCH   1  11
TORSDOF 5
ENDMDL
MODEL 9
REMARK VINA RESULT:      -6.0      1.340      1.696
REMARK  Name = 
REMARK  7 active torsions:
REMARK  status: ('A' for Active; 'I' for Inactive)
REMARK    1  A    between atoms: C_1  and  O_2
REMARK    2  A    between atoms: O_2  and  C_3
REMARK    3  A    between atoms: C_6  and  C_7
REMARK    4  A    between atoms: C_7  and  C_8
REMARK    5  A    between atoms: C_11  and  S_12
REMARK    6  A    between atoms: S_12  and  C_13
REMARK    7  A    between atoms: C_15  and  O_16
REMARK                            x       y       z     vdW  Elec       q    Type
REMARK                         _______ _______ _______ _____ _____    ______ ____
ROOT
ATOM      1  C   UNL     1       6.382   5.482  17.379  0.00  0.00    +0.000 A 
ATOM      2  N   UNL     1       7.441   4.712  17.065  0.00  0.00    +0.000 NA
ATOM      3  N   UNL     1       7.746   4.523  15.753  0.00  0.00    +0.000 NA
ATOM      4  C   UNL     1       6.991   5.104  14.792  0.00  0.00    +0.000 A 
ATOM      5  N   UNL     1       5.936   5.897  15.046  0.00  0.00    +0.000 NA
ATOM      6  C   UNL     1       5.666   6.057  16.348  0.00  0.00    +0.000 A 
ENDROOT
BRANCH   4   7
ATOM      7  S   UNL     1       7.380   4.792  13.086  0.00  0.00    +0.000 S 
ATOM      8  C   UNL     1       6.141   3.525  12.709  0.00  0.00    +0.000 C 
ENDBRANCH   4   7
BRANCH   6   9
ATOM      9  O   UNL     1       4.596   6.865  16.583  0.00  0.00    +0.000 OA
ATOM     10  H   UNL     1       3.889   6.204  16.703  0.00  0.00    +0.000 HD
ENDBRANCH   6   9
BRANCH   1  11
ATOM     11  C   UNL     1       6.035   5.654  18.824  0.00  0.00    +0.000 C 
BRANCH  11  15
ATOM     12  C   UNL     1       2.526   3.422  20.022  0.00  0.00    +0.000 A 
ATOM     13  C   UNL     1       2.510   4.817  20.019  0.00  0.00    +0.000 A 
ATOM     14  C   UNL     1       3.641   5.541  19.637  0.00  0.00    +0.000 A 
ATOM     15  C   UNL     1       4.816   4.876  19.261  0.00  0.00    +0.000 A 
ATOM     16  C   UNL     1       4.841   3.476  19.307  0.00  0.00    +0.000 A 
ATOM     17  C   UNL     1       3.702   2.754  19.681  0.00  0.00    +0.000 A 
BRANCH  12  19
ATOM     18  C   UNL     1       0.492   2.417  19.361  0.00  0.00    +0.000 C 
ATOM     19  O   UNL     1       1.364   2.815  20.414  0.00  0.00    +0.000 OA
ENDBRANCH  12  19
ENDBRANCH  11  15
ENDBRANCH   1  11
TORSDOF 5
ENDMDL
