MODEL 1
REMARK VINA RESULT:      -8.2      0.000      0.000
REMARK  Name = 
REMARK  3 active torsions:
REMARK  status: ('A' for Active; 'I' for Inactive)
REMARK    1  A    between atoms: C_1  and  C_2
REMARK    2  A    between atoms: N_4  and  C_5
REMARK    3  A    between atoms: C_9  and  C_10
REMARK                            x       y       z     vdW  Elec       q    Type
REMARK                         _______ _______ _______ _____ _____    ______ ____
ROOT
ATOM      1  C   UNL     1       2.516   7.668  18.236  0.00  0.00    +0.000 A 
ATOM      2  C   UNL     1       3.608   7.921  17.450  0.00  0.00    +0.000 A 
ATOM      3  N   UNL     1       4.597   6.928  17.469  0.00  0.00    +0.000 N 
ATOM      4  C   UNL     1       4.545   6.020  18.516  0.00  0.00    +0.000 A 
ATOM      5  N   UNL     1       5.686   5.403  18.681  0.00  0.00    +0.000 NA
ATOM      6  C   UNL     1       6.133   5.353  17.397  0.00  0.00    +0.000 A 
ATOM      7  C   UNL     1       6.997   4.381  16.889  0.00  0.00    +0.000 A 
ATOM      8  C   UNL     1       6.806   4.015  15.560  0.00  0.00    +0.000 A 
ATOM      9  C   UNL     1       5.895   4.708  14.752  0.00  0.00    +0.000 A 
ATOM     10  C   UNL     1       5.208   5.858  15.200  0.00  0.00    +0.000 A 
ATOM     11  C   UNL     1       5.349   6.174  16.559  0.00  0.00    +0.000 A 
ATOM     12  C   UNL     1       3.211   5.494  18.657  0.00  0.00    +0.000 A 
ATOM     13  N   UNL     1       2.945   4.152  18.576  0.00  0.00    +0.000 N 
ATOM     14  N   UNL     1       2.220   6.331  18.540  0.00  0.00    +0.000 NA
ATOM     15  H   UNL     1       3.717   3.670  18.121  0.00  0.00    +0.000 HD
ATOM     16  H   UNL     1       2.092   4.029  18.034  0.00  0.00    +0.000 HD
ENDROOT
BRANCH   1  21
ATOM     17  C   UNL     1      -0.405  10.104  18.257  0.00  0.00    +0.000 A 
ATOM     18  C   UNL     1      -0.581  10.345  19.617  0.00  0.00    +0.000 A 
ATOM     19  C   UNL     1       0.262   9.734  20.554  0.00  0.00    +0.000 A 
ATOM     20  C   UNL     1       1.307   8.887  20.145  0.00  0.00    +0.000 A 
ATOM     21  C   UNL     1       1.522   8.640  18.787  0.00  0.00    +0.000 A 
ATOM     22  C   UNL     1       0.618   9.237  17.871  0.00  0.00    +0.000 A 
BRANCH  17  26
ATOM     23  C   UNL     1      -3.050  11.131  15.765  0.00  0.00    +0.000 C 
ATOM     24  C   UNL     1      -2.490  10.318  16.913  0.00  0.00    +0.000 C 
ATOM     25  O   UNL     1      -3.173   9.470  17.453  0.00  0.00    +0.000 OA
ATOM     26  N   UNL     1      -1.197  10.677  17.233  0.00  0.00    +0.000 N 
ATOM     27  H   UNL     1      -0.803  11.484  16.768  0.00  0.00    +0.000 HD
ENDBRANCH  17  26
ENDBRANCH   1  21
TORSDOF 2
ENDMDL
MODEL 2
REMARK VINA RESULT:      -8.1      3.256      7.867
REMARK  Name = 
REMARK  3 active torsions:
REMARK  status: ('A' for Active; 'I' for Inactive)
REMARK    1  A    between atoms: C_1  and  C_2
REMARK    2  A    between atoms: N_4  and  C_5
REMARK    3  A    between atoms: C_9  and  C_10
REMARK                            x       y       z     vdW  Elec       q    Type
REMARK                         _______ _______ _______ _____ _____    ______ ____
ROOT
ATOM      1  C   UNL     1       1.833   7.966  19.717  0.00  0.00    +0.000 A 
ATOM      2  C   UNL     1       1.848   8.819  18.646  0.00  0.00    +0.000 A 
ATOM      3  N   UNL     1       0.961   9.901  18.735  0.00  0.00    +0.000 N 
ATOM      4  C   UNL     1      -0.057   9.793  19.671  0.00  0.00    +0.000 A 
ATOM      5  N   UNL     1      -1.036  10.623  19.422  0.00  0.00    +0.000 NA
ATOM      6  C   UNL     1      -0.351  11.663  18.872  0.00  0.00    +0.000 A 
ATOM      7  C   UNL     1      -0.762  12.996  18.904  0.00  0.00    +0.000 A 
ATOM      8  C   UNL     1       0.244  13.954  18.987  0.00  0.00    +0.000 A 
ATOM      9  C   UNL     1       1.592  13.585  18.883  0.00  0.00    +0.000 A 
ATOM     10  C   UNL     1       1.994  12.262  18.593  0.00  0.00    +0.000 A 
ATOM     11  C   UNL     1       0.981  11.293  18.587  0.00  0.00    +0.000 A 
ATOM     12  C   UNL     1       0.477   9.393  20.947  0.00  0.00    +0.000 A 
ATOM     13  N   UNL     1       0.310  10.150  22.077  0.00  0.00    +0.000 N 
ATOM     14  N   UNL     1       1.395   8.468  20.951  0.00  0.00    +0.000 NA
ATOM     15  H   UNL     1       0.054  11.102  21.825  0.00  0.00    +0.000 HD
ATOM     16  H   UNL     1       1.188  10.152  22.592  0.00  0.00    +0.000 HD
ENDROOT
BRANCH   1  21
ATOM     17  C   UNL     1       4.060   4.941  19.121  0.00  0.00    +0.000 A 
ATOM     18  C   UNL     1       3.464   3.970  19.920  0.00  0.00    +0.000 A 
ATOM     19  C   UNL     1       2.310   4.276  20.655  0.00  0.00    +0.000 A 
ATOM     20  C   UNL     1       1.725   5.553  20.587  0.00  0.00    +0.000 A 
ATOM     21  C   UNL     1       2.289   6.543  19.779  0.00  0.00    +0.000 A 
ATOM     22  C   UNL     1       3.483   6.212  19.088  0.00  0.00    +0.000 A 
BRANCH  17  26
ATOM     23  C   UNL     1       7.526   4.635  17.651  0.00  0.00    +0.000 C 
ATOM     24  C   UNL     1       6.520   4.968  18.733  0.00  0.00    +0.000 C 
ATOM     25  O   UNL     1       6.895   5.380  19.812  0.00  0.00    +0.000 OA
ATOM     26  N   UNL     1       5.220   4.731  18.337  0.00  0.00    +0.000 N 
ATOM     27  H   UNL     1       5.074   4.275  17.445  0.00  0.00    +0.000 HD
ENDBRANCH  17  26
ENDBRANCH   1  21
TORSDOF 2
ENDMDL
MODEL 3
REMARK VINA RESULT:      -7.9      3.695      9.130
REMARK  Name = 
REMARK  3 active torsions:
REMARK  status: ('A' for Active; 'I' for Inactive)
REMARK    1  A    between atoms: C_1  and  C_2
REMARK    2  A    between atoms: N_4  and  C_5
REMARK    3  A    between atoms: C_9  and  C_10
REMARK                            x       y       z     vdW  Elec       q    Type
REMARK                         _______ _______ _______ _____ _____    ______ ____
ROOT
ATOM      1  C   UNL     1       0.411  10.211  20.406  0.00  0.00    +0.000 A 
ATOM      2  C   UNL     1       0.154  10.328  21.746  0.00  0.00    +0.000 A 
ATOM      3  N   UNL     1      -0.245  11.604  22.165  0.00  0.00    +0.000 N 
ATOM      4  C   UNL     1       0.015  12.653  21.295  0.00  0.00    +0.000 A 
ATOM      5  N   UNL     1      -0.016  13.809  21.905  0.00  0.00    +0.000 NA
ATOM      6  C   UNL     1      -0.961  13.569  22.853  0.00  0.00    +0.000 A 
ATOM      7  C   UNL     1      -1.780  14.541  23.430  0.00  0.00    +0.000 A 
ATOM      8  C   UNL     1      -3.069  14.143  23.772  0.00  0.00    +0.000 A 
ATOM      9  C   UNL     1      -3.450  12.798  23.679  0.00  0.00    +0.000 A 
ATOM     10  C   UNL     1      -2.538  11.775  23.338  0.00  0.00    +0.000 A 
ATOM     11  C   UNL     1      -1.265  12.192  22.923  0.00  0.00    +0.000 A 
ATOM     12  C   UNL     1      -0.438  12.326  19.968  0.00  0.00    +0.000 A 
ATOM     13  N   UNL     1      -1.356  13.095  19.302  0.00  0.00    +0.000 N 
ATOM     14  N   UNL     1      -0.210  11.118  19.536  0.00  0.00    +0.000 NA
ATOM     15  H   UNL     1      -1.856  13.689  19.959  0.00  0.00    +0.000 HD
ATOM     16  H   UNL     1      -2.010  12.473  18.830  0.00  0.00    +0.000 HD
ENDROOT
BRANCH   1  21
ATOM     17  C   UNL     1       2.210   6.907  19.844  0.00  0.00    +0.000 A 
ATOM     18  C   UNL     1       2.604   7.005  18.513  0.00  0.00    +0.000 A 
ATOM     19  C   UNL     1       2.310   8.161  17.777  0.00  0.00    +0.000 A 
ATOM     20  C   UNL     1       1.633   9.243  18.366  0.00  0.00    +0.000 A 
ATOM     21  C   UNL     1       1.240   9.182  19.705  0.00  0.00    +0.000 A 
ATOM     22  C   UNL     1       1.512   7.978  20.404  0.00  0.00    +0.000 A 
BRANCH  17  26
ATOM     23  C   UNL     1       2.283   3.617  21.698  0.00  0.00    +0.000 C 
ATOM     24  C   UNL     1       1.745   4.612  20.691  0.00  0.00    +0.000 C 
ATOM     25  O   UNL     1       0.789   4.325  19.999  0.00  0.00    +0.000 OA
ATOM     26  N   UNL     1       2.464   5.788  20.674  0.00  0.00    +0.000 N 
ATOM     27  H   UNL     1       3.310   5.833  21.229  0.00  0.00    +0.000 HD
ENDBRANCH  17  26
ENDBRANCH   1  21
TORSDOF 2
ENDMDL
MODEL 4
REMARK VINA RESULT:      -7.7      1.890      1.970
REMARK  Name = 
REMARK  3 active torsions:
REMARK  status: ('A' for Active; 'I' for Inactive)
REMARK    1  A    between atoms: C_1  and  C_2
REMARK    2  A    between atoms: N_4  and  C_5
REMARK    3  A    between atoms: C_9  and  C_10
REMARK                            x       y       z     vdW  Elec       q    Type
REMARK                         _______ _______ _______ _____ _____    ______ ____
ROOT
ATOM      1  C   UNL     1       2.761   7.182  18.882  0.00  0.00    +0.000 A 
ATOM      2  C   UNL     1       3.698   7.594  17.973  0.00  0.00    +0.000 A 
ATOM      3  N   UNL     1       4.742   6.687  17.743  0.00  0.00    +0.000 N 
ATOM      4  C   UNL     1       4.915   5.686  18.688  0.00  0.00    +0.000 A 
ATOM      5  N   UNL     1       6.106   5.151  18.617  0.00  0.00    +0.000 NA
ATOM      6  C   UNL     1       6.351   5.256  17.283  0.00  0.00    +0.000 A 
ATOM      7  C   UNL     1       7.188   4.409  16.555  0.00  0.00    +0.000 A 
ATOM      8  C   UNL     1       6.818   4.152  15.239  0.00  0.00    +0.000 A 
ATOM      9  C   UNL     1       5.748   4.840  14.650  0.00  0.00    +0.000 A 
ATOM     10  C   UNL     1       5.064   5.884  15.311  0.00  0.00    +0.000 A 
ATOM     11  C   UNL     1       5.393   6.084  16.660  0.00  0.00    +0.000 A 
ATOM     12  C   UNL     1       3.657   5.043  18.969  0.00  0.00    +0.000 A 
ATOM     13  N   UNL     1       3.471   3.697  18.791  0.00  0.00    +0.000 N 
ATOM     14  N   UNL     1       2.606   5.803  19.088  0.00  0.00    +0.000 NA
ATOM     15  H   UNL     1       4.194   3.323  18.180  0.00  0.00    +0.000 HD
ATOM     16  H   UNL     1       2.555   3.555  18.371  0.00  0.00    +0.000 HD
ENDROOT
BRANCH   1  21
ATOM     17  C   UNL     1       0.317   9.998  19.635  0.00  0.00    +0.000 A 
ATOM     18  C   UNL     1      -0.185   9.631  20.880  0.00  0.00    +0.000 A 
ATOM     19  C   UNL     1       0.279   8.468  21.510  0.00  0.00    +0.000 A 
ATOM     20  C   UNL     1       1.265   7.664  20.912  0.00  0.00    +0.000 A 
ATOM     21  C   UNL     1       1.802   8.015  19.672  0.00  0.00    +0.000 A 
ATOM     22  C   UNL     1       1.274   9.172  19.042  0.00  0.00    +0.000 A 
BRANCH  17  26
ATOM     23  C   UNL     1      -0.312  13.454  18.249  0.00  0.00    +0.000 C 
ATOM     24  C   UNL     1       0.286  12.451  19.214  0.00  0.00    +0.000 C 
ATOM     25  O   UNL     1       1.011  12.826  20.113  0.00  0.00    +0.000 OA
ATOM     26  N   UNL     1      -0.079  11.154  18.921  0.00  0.00    +0.000 N 
ATOM     27  H   UNL     1      -0.595  10.990  18.066  0.00  0.00    +0.000 HD
ENDBRANCH  17  26
ENDBRANCH   1  21
TORSDOF 2
ENDMDL
MODEL 5
REMARK VINA RESULT:      -7.7      4.855      7.758
REMARK  Name = 
REMARK  3 active torsions:
REMARK  status: ('A' for Active; 'I' for Inactive)
REMARK    1  A    between atoms: C_1  and  C_2
REMARK    2  A    between atoms: N_4  and  C_5
REMARK    3  A    between atoms: C_9  and  C_10
REMARK                            x       y       z     vdW  Elec       q    Type
REMARK                         _______ _______ _______ _____ _____    ______ ____
ROOT
ATOM      1  C   UNL     1       5.168   4.105  16.234  0.00  0.00    +0.000 A 
ATOM      2  C   UNL     1       3.945   3.590  16.568  0.00  0.00    +0.000 A 
ATOM      3  N   UNL     1       3.777   3.291  17.927  0.00  0.00    +0.000 N 
ATOM      4  C   UNL     1       4.932   3.195  18.689  0.00  0.00    +0.000 A 
ATOM      5  N   UNL     1       4.726   2.543  19.804  0.00  0.00    +0.000 NA
ATOM      6  C   UNL     1       3.437   2.891  20.065  0.00  0.00    +0.000 A 
ATOM      7  C   UNL     1       2.865   2.944  21.337  0.00  0.00    +0.000 A 
ATOM      8  C   UNL     1       1.901   3.926  21.544  0.00  0.00    +0.000 A 
ATOM      9  C   UNL     1       1.432   4.703  20.477  0.00  0.00    +0.000 A 
ATOM     10  C   UNL     1       1.828   4.472  19.141  0.00  0.00    +0.000 A 
ATOM     11  C   UNL     1       2.854   3.534  18.951  0.00  0.00    +0.000 A 
ATOM     12  C   UNL     1       5.777   4.339  18.461  0.00  0.00    +0.000 A 
ATOM     13  N   UNL     1       6.168   5.170  19.478  0.00  0.00    +0.000 N 
ATOM     14  N   UNL     1       5.902   4.759  17.235  0.00  0.00    +0.000 NA
ATOM     15  H   UNL     1       5.558   5.046  20.284  0.00  0.00    +0.000 HD
ATOM     16  H   UNL     1       6.111   6.130  19.145  0.00  0.00    +0.000 HD
ENDROOT
BRANCH   1  21
ATOM     17  C   UNL     1       5.607   3.544  12.497  0.00  0.00    +0.000 A 
ATOM     18  C   UNL     1       6.791   4.226  12.231  0.00  0.00    +0.000 A 
ATOM     19  C   UNL     1       7.482   4.866  13.269  0.00  0.00    +0.000 A 
ATOM     20  C   UNL     1       7.010   4.818  14.592  0.00  0.00    +0.000 A 
ATOM     21  C   UNL     1       5.834   4.126  14.895  0.00  0.00    +0.000 A 
ATOM     22  C   UNL     1       5.137   3.532  13.812  0.00  0.00    +0.000 A 
BRANCH  17  26
ATOM     23  C   UNL     1       3.218   2.404   9.804  0.00  0.00    +0.000 C 
ATOM     24  C   UNL     1       3.838   3.411  10.751  0.00  0.00    +0.000 C 
ATOM     25  O   UNL     1       3.451   4.562  10.759  0.00  0.00    +0.000 OA
ATOM     26  N   UNL     1       4.840   2.862  11.523  0.00  0.00    +0.000 N 
ATOM     27  H   UNL     1       5.129   1.914  11.318  0.00  0.00    +0.000 HD
ENDBRANCH  17  26
ENDBRANCH   1  21
TORSDOF 2
ENDMDL
MODEL 6
REMARK VINA RESULT:      -7.7      3.233      7.627
REMARK  Name = 
REMARK  3 active torsions:
REMARK  status: ('A' for Active; 'I' for Inactive)
REMARK    1  A    between atoms: C_1  and  C_2
REMARK    2  A    between atoms: N_4  and  C_5
REMARK    3  A    between atoms: C_9  and  C_10
REMARK                            x       y       z     vdW  Elec       q    Type
REMARK                         _______ _______ _______ _____ _____    ______ ____
ROOT
ATOM      1  C   UNL     1       2.092   7.853  19.124  0.00  0.00    +0.000 A 
ATOM      2  C   UNL     1       2.058   8.791  18.128  0.00  0.00    +0.000 A 
ATOM      3  N   UNL     1       1.220   9.889  18.373  0.00  0.00    +0.000 N 
ATOM      4  C   UNL     1       0.272   9.735  19.375  0.00  0.00    +0.000 A 
ATOM      5  N   UNL     1      -0.691  10.613  19.270  0.00  0.00    +0.000 NA
ATOM      6  C   UNL     1      -0.012  11.673  18.755  0.00  0.00    +0.000 A 
ATOM      7  C   UNL     1      -0.369  13.011  18.926  0.00  0.00    +0.000 A 
ATOM      8  C   UNL     1       0.675  13.927  19.007  0.00  0.00    +0.000 A 
ATOM      9  C   UNL     1       1.997  13.526  18.769  0.00  0.00    +0.000 A 
ATOM     10  C   UNL     1       2.327  12.221  18.342  0.00  0.00    +0.000 A 
ATOM     11  C   UNL     1       1.280  11.287  18.337  0.00  0.00    +0.000 A 
ATOM     12  C   UNL     1       0.887   9.213  20.568  0.00  0.00    +0.000 A 
ATOM     13  N   UNL     1       0.833   9.878  21.765  0.00  0.00    +0.000 N 
ATOM     14  N   UNL     1       1.767   8.263  20.426  0.00  0.00    +0.000 NA
ATOM     15  H   UNL     1       0.595  10.856  21.611  0.00  0.00    +0.000 HD
ATOM     16  H   UNL     1       1.747   9.811  22.208  0.00  0.00    +0.000 HD
ENDROOT
BRANCH   1  21
ATOM     17  C   UNL     1       3.785   4.740  17.743  0.00  0.00    +0.000 A 
ATOM     18  C   UNL     1       3.562   3.807  18.752  0.00  0.00    +0.000 A 
ATOM     19  C   UNL     1       2.837   4.169  19.895  0.00  0.00    +0.000 A 
ATOM     20  C   UNL     1       2.307   5.463  20.039  0.00  0.00    +0.000 A 
ATOM     21  C   UNL     1       2.498   6.417  19.035  0.00  0.00    +0.000 A 
ATOM     22  C   UNL     1       3.278   6.029  17.915  0.00  0.00    +0.000 A 
BRANCH  17  26
ATOM     23  C   UNL     1       6.304   4.080  15.007  0.00  0.00    +0.000 C 
ATOM     24  C   UNL     1       5.867   4.377  16.426  0.00  0.00    +0.000 C 
ATOM     25  O   UNL     1       6.693   4.490  17.310  0.00  0.00    +0.000 OA
ATOM     26  N   UNL     1       4.496   4.473  16.549  0.00  0.00    +0.000 N 
ATOM     27  H   UNL     1       3.933   4.237  15.741  0.00  0.00    +0.000 HD
ENDBRANCH  17  26
ENDBRANCH   1  21
TORSDOF 2
ENDMDL
MODEL 7
REMARK VINA RESULT:      -7.6      3.444      4.214
REMARK  Name = 
REMARK  3 active torsions:
REMARK  status: ('A' for Active; 'I' for Inactive)
REMARK    1  A    between atoms: C_1  and  C_2
REMARK    2  A    between atoms: N_4  and  C_5
REMARK    3  A    between atoms: C_9  and  C_10
REMARK                            x       y       z     vdW  Elec       q    Type
REMARK                         _______ _______ _______ _____ _____    ______ ____
ROOT
ATOM      1  C   UNL     1       1.666   7.031  20.324  0.00  0.00    +0.000 A 
ATOM      2  C   UNL     1       1.436   5.743  20.725  0.00  0.00    +0.000 A 
ATOM      3  N   UNL     1       1.670   4.765  19.748  0.00  0.00    +0.000 N 
ATOM      4  C   UNL     1       1.739   5.204  18.434  0.00  0.00    +0.000 A 
ATOM      5  N   UNL     1       1.560   4.226  17.585  0.00  0.00    +0.000 NA
ATOM      6  C   UNL     1       2.110   3.190  18.274  0.00  0.00    +0.000 A 
ATOM      7  C   UNL     1       2.680   2.056  17.693  0.00  0.00    +0.000 A 
ATOM      8  C   UNL     1       3.763   1.494  18.361  0.00  0.00    +0.000 A 
ATOM      9  C   UNL     1       4.145   1.963  19.625  0.00  0.00    +0.000 A 
ATOM     10  C   UNL     1       3.405   2.942  20.324  0.00  0.00    +0.000 A 
ATOM     11  C   UNL     1       2.362   3.555  19.614  0.00  0.00    +0.000 A 
ATOM     12  C   UNL     1       2.628   6.332  18.330  0.00  0.00    +0.000 A 
ATOM     13  N   UNL     1       3.727   6.321  17.511  0.00  0.00    +0.000 N 
ATOM     14  N   UNL     1       2.559   7.240  19.262  0.00  0.00    +0.000 NA
ATOM     15  H   UNL     1       3.967   5.364  17.263  0.00  0.00    +0.000 HD
ATOM     16  H   UNL     1       4.500   6.755  18.010  0.00  0.00    +0.000 HD
ENDROOT
BRANCH   1  21
ATOM     17  C   UNL     1       0.755  10.718  20.536  0.00  0.00    +0.000 A 
ATOM     18  C   UNL     1       0.015  10.774  21.714  0.00  0.00    +0.000 A 
ATOM     19  C   UNL     1      -0.184   9.614  22.475  0.00  0.00    +0.000 A 
ATOM     20  C   UNL     1       0.369   8.384  22.079  0.00  0.00    +0.000 A 
ATOM     21  C   UNL     1       1.131   8.298  20.912  0.00  0.00    +0.000 A 
ATOM     22  C   UNL     1       1.271   9.482  20.142  0.00  0.00    +0.000 A 
BRANCH  17  26
ATOM     23  C   UNL     1       1.875  13.935  18.906  0.00  0.00    +0.000 C 
ATOM     24  C   UNL     1       1.797  12.921  20.028  0.00  0.00    +0.000 C 
ATOM     25  O   UNL     1       2.397  13.111  21.067  0.00  0.00    +0.000 OA
ATOM     26  N   UNL     1       1.018  11.831  19.702  0.00  0.00    +0.000 N 
ATOM     27  H   UNL     1       0.679  11.761  18.751  0.00  0.00    +0.000 HD
ENDBRANCH  17  26
ENDBRANCH   1  21
TORSDOF 2
ENDMDL
MODEL 8
REMARK VINA RESULT:      -7.6      3.144      7.803
REMARK  Name = 
REMARK  3 active torsions:
REMARK  status: ('A' for Active; 'I' for Inactive)
REMARK    1  A    between atoms: C_1  and  C_2
REMARK    2  A    between atoms: N_4  and  C_5
REMARK    3  A    between atoms: C_9  and  C_10
REMARK                            x       y       z     vdW  Elec       q    Type
REMARK                         _______ _______ _______ _____ _____    ______ ____
ROOT
ATOM      1  C   UNL     1       2.037   7.895  18.602  0.00  0.00    +0.000 A 
ATOM      2  C   UNL     1       1.868   9.016  17.835  0.00  0.00    +0.000 A 
ATOM      3  N   UNL     1       1.108  10.034  18.429  0.00  0.00    +0.000 N 
ATOM      4  C   UNL     1       0.329   9.672  19.518  0.00  0.00    +0.000 A 
ATOM      5  N   UNL     1      -0.616  10.545  19.751  0.00  0.00    +0.000 NA
ATOM      6  C   UNL     1      -0.001  11.694  19.357  0.00  0.00    +0.000 A 
ATOM      7  C   UNL     1      -0.292  12.966  19.852  0.00  0.00    +0.000 A 
ATOM      8  C   UNL     1       0.775  13.854  19.946  0.00  0.00    +0.000 A 
ATOM      9  C   UNL     1       2.031  13.521  19.422  0.00  0.00    +0.000 A 
ATOM     10  C   UNL     1       2.255  12.332  18.692  0.00  0.00    +0.000 A 
ATOM     11  C   UNL     1       1.198  11.411  18.667  0.00  0.00    +0.000 A 
ATOM     12  C   UNL     1       1.112   8.923  20.466  0.00  0.00    +0.000 A 
ATOM     13  N   UNL     1       1.268   9.330  21.766  0.00  0.00    +0.000 N 
ATOM     14  N   UNL     1       1.934   8.029  19.994  0.00  0.00    +0.000 NA
ATOM     15  H   UNL     1       1.033  10.316  21.853  0.00  0.00    +0.000 HD
ATOM     16  H   UNL     1       2.239   9.180  22.032  0.00  0.00    +0.000 HD
ENDROOT
BRANCH   1  21
ATOM     17  C   UNL     1       4.234   4.938  17.656  0.00  0.00    +0.000 A 
ATOM     18  C   UNL     1       3.308   3.906  17.535  0.00  0.00    +0.000 A 
ATOM     19  C   UNL     1       1.945   4.157  17.740  0.00  0.00    +0.000 A 
ATOM     20  C   UNL     1       1.484   5.449  18.050  0.00  0.00    +0.000 A 
ATOM     21  C   UNL     1       2.386   6.510  18.160  0.00  0.00    +0.000 A 
ATOM     22  C   UNL     1       3.763   6.208  17.994  0.00  0.00    +0.000 A 
BRANCH  17  26
ATOM     23  C   UNL     1       7.990   4.634  17.904  0.00  0.00    +0.000 C 
ATOM     24  C   UNL     1       6.592   4.830  18.450  0.00  0.00    +0.000 C 
ATOM     25  O   UNL     1       6.417   4.985  19.642  0.00  0.00    +0.000 OA
ATOM     26  N   UNL     1       5.628   4.789  17.464  0.00  0.00    +0.000 N 
ATOM     27  H   UNL     1       5.921   4.534  16.529  0.00  0.00    +0.000 HD
ENDBRANCH  17  26
ENDBRANCH   1  21
TORSDOF 2
ENDMDL
MODEL 9
REMARK VINA RESULT:      -7.5      2.868      3.684
REMARK  Name = 
REMARK  3 active torsions:
REMARK  status: ('A' for Active; 'I' for Inactive)
REMARK    1  A    between atoms: C_1  and  C_2
REMARK    2  A    between atoms: N_4  and  C_5
REMARK    3  A    between atoms: C_9  and  C_10
REMARK                            x       y       z     vdW  Elec       q    Type
REMARK                         _______ _______ _______ _____ _____    ______ ____
ROOT
ATOM      1  C   UNL     1       1.697   7.049  20.356  0.00  0.00    +0.000 A 
ATOM      2  C   UNL     1       1.464   5.755  20.739  0.00  0.00    +0.000 A 
ATOM      3  N   UNL     1       1.678   4.792  19.742  0.00  0.00    +0.000 N 
ATOM      4  C   UNL     1       1.732   5.253  18.435  0.00  0.00    +0.000 A 
ATOM      5  N   UNL     1       1.536   4.291  17.572  0.00  0.00    +0.000 NA
ATOM      6  C   UNL     1       2.088   3.240  18.237  0.00  0.00    +0.000 A 
ATOM      7  C   UNL     1       2.642   2.112  17.629  0.00  0.00    +0.000 A 
ATOM      8  C   UNL     1       3.731   1.532  18.273  0.00  0.00    +0.000 A 
ATOM      9  C   UNL     1       4.132   1.977  19.540  0.00  0.00    +0.000 A 
ATOM     10  C   UNL     1       3.409   2.949  20.265  0.00  0.00    +0.000 A 
ATOM     11  C   UNL     1       2.360   3.581  19.579  0.00  0.00    +0.000 A 
ATOM     12  C   UNL     1       2.627   6.377  18.338  0.00  0.00    +0.000 A 
ATOM     13  N   UNL     1       3.715   6.372  17.504  0.00  0.00    +0.000 N 
ATOM     14  N   UNL     1       2.577   7.269  19.286  0.00  0.00    +0.000 NA
ATOM     15  H   UNL     1       3.946   5.418  17.237  0.00  0.00    +0.000 HD
ATOM     16  H   UNL     1       4.498   6.793  18.000  0.00  0.00    +0.000 HD
ENDROOT
BRANCH   1  21
ATOM     17  C   UNL     1       0.461  10.641  20.541  0.00  0.00    +0.000 A 
ATOM     18  C   UNL     1       0.017  10.735  21.857  0.00  0.00    +0.000 A 
ATOM     19  C   UNL     1       0.130   9.635  22.717  0.00  0.00    +0.000 A 
ATOM     20  C   UNL     1       0.706   8.429  22.281  0.00  0.00    +0.000 A 
ATOM     21  C   UNL     1       1.179   8.309  20.972  0.00  0.00    +0.000 A 
ATOM     22  C   UNL     1       1.003   9.427  20.116  0.00  0.00    +0.000 A 
BRANCH  17  26
ATOM     23  C   UNL     1      -0.465  13.331  18.057  0.00  0.00    +0.000 C 
ATOM     24  C   UNL     1      -0.750  12.205  19.029  0.00  0.00    +0.000 C 
ATOM     25  O   UNL     1      -1.894  11.858  19.244  0.00  0.00    +0.000 OA
ATOM     26  N   UNL     1       0.398  11.694  19.597  0.00  0.00    +0.000 N 
ATOM     27  H   UNL     1       1.271  12.168  19.406  0.00  0.00    +0.000 HD
ENDBRANCH  17  26
ENDBRANCH   1  21
TORSDOF 2
ENDMDL
