MODEL 1
REMARK VINA RESULT:      -8.1      0.000      0.000
REMARK  Name = 
REMARK  15 active torsions:
REMARK  status: ('A' for Active; 'I' for Inactive)
REMARK    1  A    between atoms: C_1  and  C_2
REMARK    2  A    between atoms: C_2  and  O_3
REMARK    3  A    between atoms: O_3  and  C_4
REMARK    4  A    between atoms: C_4  and  C_5
REMARK    5  A    between atoms: C_4  and  C_24
REMARK    6  A    between atoms: C_4  and  C_30
REMARK    7  A    between atoms: C_8  and  C_9
REMARK    8  A    between atoms: N_11  and  C_12
REMARK    9  A    between atoms: C_12  and  C_13
REMARK   10  A    between atoms: C_13  and  C_14
REMARK   11  A    between atoms: C_14  and  C_15
REMARK   12  A    between atoms: C_15  and  C_16
REMARK   13  A    between atoms: C_16  and  C_17
REMARK   14  A    between atoms: C_17  and  C_18
REMARK   15  A    between atoms: N_20  and  O_21
REMARK                            x       y       z     vdW  Elec       q    Type
REMARK                         _______ _______ _______ _____ _____    ______ ____
ROOT
ATOM      1  C   UNL     1       0.419   9.959  19.168  0.00  0.00    +0.000 A 
ATOM      2  C   UNL     1       0.685   9.080  20.238  0.00  0.00    +0.000 A 
ATOM      3  C   UNL     1       1.618   8.037  20.108  0.00  0.00    +0.000 A 
ATOM      4  C   UNL     1       2.314   7.840  18.907  0.00  0.00    +0.000 A 
ATOM      5  C   UNL     1       2.033   8.676  17.825  0.00  0.00    +0.000 A 
ATOM      6  C   UNL     1       1.097   9.708  17.954  0.00  0.00    +0.000 A 
ENDROOT
BRANCH   4   7
ATOM      7  C   UNL     1       3.295   6.714  18.808  0.00  0.00    +0.000 C 
ATOM      8  O   UNL     1       3.334   5.849  19.672  0.00  0.00    +0.000 OA
ATOM      9  N   UNL     1       4.149   6.734  17.715  0.00  0.00    +0.000 N 
ATOM     10  H   UNL     1       4.145   7.526  17.088  0.00  0.00    +0.000 HD
BRANCH   9  11
ATOM     11  C   UNL     1       5.146   5.701  17.487  0.00  0.00    +0.000 C 
BRANCH  11  12
ATOM     12  C   UNL     1       4.648   4.653  16.492  0.00  0.00    +0.000 C 
BRANCH  12  13
ATOM     13  C   UNL     1       4.157   3.394  17.211  0.00  0.00    +0.000 C 
BRANCH  13  14
ATOM     14  C   UNL     1       2.630   3.287  17.193  0.00  0.00    +0.000 C 
BRANCH  14  15
ATOM     15  C   UNL     1       2.150   2.204  18.160  0.00  0.00    +0.000 C 
BRANCH  15  16
ATOM     16  C   UNL     1       0.837   2.587  18.840  0.00  0.00    +0.000 C 
BRANCH  16  17
ATOM     17  C   UNL     1       1.072   3.256  20.179  0.00  0.00    +0.000 C 
ATOM     18  O   UNL     1       0.649   4.369  20.488  0.00  0.00    +0.000 OA
ATOM     19  N   UNL     1       1.815   2.495  21.049  0.00  0.00    +0.000 N 
ATOM     20  H   UNL     1       2.407   1.729  20.753  0.00  0.00    +0.000 HD
BRANCH  19  21
ATOM     21  O   UNL     1       2.151   3.122  22.272  0.00  0.00    +0.000 OA
ATOM     22  H   UNL     1       2.811   2.499  22.651  0.00  0.00    +0.000 HD
ENDBRANCH  19  21
ENDBRANCH  16  17
ENDBRANCH  15  16
ENDBRANCH  14  15
ENDBRANCH  13  14
ENDBRANCH  12  13
ENDBRANCH  11  12
ENDBRANCH   9  11
ENDBRANCH   4   7
BRANCH   1  23
ATOM     23  C   UNL     1      -0.630  11.127  19.279  0.00  0.00    +0.000 C 
BRANCH  23  24
ATOM     24  C   UNL     1      -1.753  10.893  18.196  0.00  0.00    +0.000 A 
ATOM     25  C   UNL     1      -1.641   9.979  17.141  0.00  0.00    +0.000 A 
ATOM     26  C   UNL     1      -2.694   9.774  16.250  0.00  0.00    +0.000 A 
ATOM     27  C   UNL     1      -3.848  10.522  16.385  0.00  0.00    +0.000 A 
ATOM     28  C   UNL     1      -3.890  11.451  17.405  0.00  0.00    +0.000 A 
ATOM     29  N   UNL     1      -2.888  11.651  18.297  0.00  0.00    +0.000 NA
ENDBRANCH  23  24
BRANCH  23  30
ATOM     30  C   UNL     1       0.149  12.494  19.217  0.00  0.00    +0.000 A 
ATOM     31  C   UNL     1       1.494  12.569  19.599  0.00  0.00    +0.000 A 
ATOM     32  C   UNL     1       2.128  13.810  19.653  0.00  0.00    +0.000 A 
ATOM     33  C   UNL     1       1.432  14.953  19.283  0.00  0.00    +0.000 A 
ATOM     34  C   UNL     1       0.143  14.800  18.823  0.00  0.00    +0.000 A 
ATOM     35  N   UNL     1      -0.484  13.610  18.756  0.00  0.00    +0.000 NA
ENDBRANCH  23  30
BRANCH  23  36
ATOM     36  O   UNL     1      -1.244  11.029  20.618  0.00  0.00    +0.000 OA
BRANCH  36  38
ATOM     37  C   UNL     1      -1.068  11.389  22.990  0.00  0.00    +0.000 C 
ATOM     38  C   UNL     1      -0.698  11.905  21.609  0.00  0.00    +0.000 C 
ENDBRANCH  36  38
ENDBRANCH  23  36
ENDBRANCH   1  23
TORSDOF 14
ENDMDL
MODEL 2
REMARK VINA RESULT:      -8.0      1.886      4.369
REMARK  Name = 
REMARK  15 active torsions:
REMARK  status: ('A' for Active; 'I' for Inactive)
REMARK    1  A    between atoms: C_1  and  C_2
REMARK    2  A    between atoms: C_2  and  O_3
REMARK    3  A    between atoms: O_3  and  C_4
REMARK    4  A    between atoms: C_4  and  C_5
REMARK    5  A    between atoms: C_4  and  C_24
REMARK    6  A    between atoms: C_4  and  C_30
REMARK    7  A    between atoms: C_8  and  C_9
REMARK    8  A    between atoms: N_11  and  C_12
REMARK    9  A    between atoms: C_12  and  C_13
REMARK   10  A    between atoms: C_13  and  C_14
REMARK   11  A    between atoms: C_14  and  C_15
REMARK   12  A    between atoms: C_15  and  C_16
REMARK   13  A    between atoms: C_16  and  C_17
REMARK   14  A    between atoms: C_17  and  C_18
REMARK   15  A    between atoms: N_20  and  O_21
REMARK                            x       y       z     vdW  Elec       q    Type
REMARK                         _______ _______ _______ _____ _____    ______ ____
ROOT
ATOM      1  C   UNL     1       0.743  10.082  19.824  0.00  0.00    +0.000 A 
ATOM      2  C   UNL     1       0.626   9.290  20.984  0.00  0.00    +0.000 A 
ATOM      3  C   UNL     1       1.234   8.025  21.067  0.00  0.00    +0.000 A 
ATOM      4  C   UNL     1       1.978   7.513  19.995  0.00  0.00    +0.000 A 
ATOM      5  C   UNL     1       2.069   8.266  18.823  0.00  0.00    +0.000 A 
ATOM      6  C   UNL     1       1.457   9.521  18.740  0.00  0.00    +0.000 A 
ENDROOT
BRANCH   4   7
ATOM      7  C   UNL     1       2.604   6.159  20.121  0.00  0.00    +0.000 C 
ATOM      8  O   UNL     1       3.555   5.849  19.417  0.00  0.00    +0.000 OA
ATOM      9  N   UNL     1       2.031   5.298  21.045  0.00  0.00    +0.000 N 
ATOM     10  H   UNL     1       1.184   5.566  21.524  0.00  0.00    +0.000 HD
BRANCH   9  11
ATOM     11  C   UNL     1       2.539   3.956  21.278  0.00  0.00    +0.000 C 
BRANCH  11  12
ATOM     12  C   UNL     1       1.436   2.908  21.136  0.00  0.00    +0.000 C 
BRANCH  12  13
ATOM     13  C   UNL     1       0.642   3.109  19.843  0.00  0.00    +0.000 C 
BRANCH  13  14
ATOM     14  C   UNL     1       1.101   2.154  18.739  0.00  0.00    +0.000 C 
BRANCH  14  15
ATOM     15  C   UNL     1       2.067   2.854  17.781  0.00  0.00    +0.000 C 
BRANCH  15  16
ATOM     16  C   UNL     1       3.471   2.258  17.851  0.00  0.00    +0.000 C 
BRANCH  16  17
ATOM     17  C   UNL     1       4.540   3.331  17.797  0.00  0.00    +0.000 C 
ATOM     18  O   UNL     1       4.766   4.043  16.821  0.00  0.00    +0.000 OA
ATOM     19  N   UNL     1       5.256   3.451  18.964  0.00  0.00    +0.000 N 
ATOM     20  H   UNL     1       5.301   2.723  19.667  0.00  0.00    +0.000 HD
BRANCH  19  21
ATOM     21  O   UNL     1       6.335   4.365  18.926  0.00  0.00    +0.000 OA
ATOM     22  H   UNL     1       6.865   4.095  19.709  0.00  0.00    +0.000 HD
ENDBRANCH  19  21
ENDBRANCH  16  17
ENDBRANCH  15  16
ENDBRANCH  14  15
ENDBRANCH  13  14
ENDBRANCH  12  13
ENDBRANCH  11  12
ENDBRANCH   9  11
ENDBRANCH   4   7
BRANCH   1  23
ATOM     23  C   UNL     1       0.063  11.495  19.695  0.00  0.00    +0.000 C 
BRANCH  23  24
ATOM     24  C   UNL     1       1.195  12.582  19.540  0.00  0.00    +0.000 A 
ATOM     25  C   UNL     1       1.964  13.066  20.607  0.00  0.00    +0.000 A 
ATOM     26  C   UNL     1       2.992  13.984  20.395  0.00  0.00    +0.000 A 
ATOM     27  C   UNL     1       3.223  14.457  19.118  0.00  0.00    +0.000 A 
ATOM     28  C   UNL     1       2.402  13.995  18.109  0.00  0.00    +0.000 A 
ATOM     29  N   UNL     1       1.412  13.085  18.286  0.00  0.00    +0.000 NA
ENDBRANCH  23  24
BRANCH  23  30
ATOM     30  C   UNL     1      -0.936  11.670  20.900  0.00  0.00    +0.000 A 
ATOM     31  C   UNL     1      -2.097  12.441  20.762  0.00  0.00    +0.000 A 
ATOM     32  C   UNL     1      -2.902  12.682  21.875  0.00  0.00    +0.000 A 
ATOM     33  C   UNL     1      -2.569  12.116  23.098  0.00  0.00    +0.000 A 
ATOM     34  C   UNL     1      -1.470  11.287  23.146  0.00  0.00    +0.000 A 
ATOM     35  N   UNL     1      -0.685  11.036  22.081  0.00  0.00    +0.000 NA
ENDBRANCH  23  30
BRANCH  23  36
ATOM     36  O   UNL     1      -0.740  11.476  18.457  0.00  0.00    +0.000 OA
BRANCH  36  38
ATOM     37  C   UNL     1      -1.853   9.916  17.002  0.00  0.00    +0.000 C 
ATOM     38  C   UNL     1      -1.771  10.485  18.409  0.00  0.00    +0.000 C 
ENDBRANCH  36  38
ENDBRANCH  23  36
ENDBRANCH   1  23
TORSDOF 14
ENDMDL
MODEL 3
REMARK VINA RESULT:      -7.9      1.143      1.711
REMARK  Name = 
REMARK  15 active torsions:
REMARK  status: ('A' for Active; 'I' for Inactive)
REMARK    1  A    between atoms: C_1  and  C_2
REMARK    2  A    between atoms: C_2  and  O_3
REMARK    3  A    between atoms: O_3  and  C_4
REMARK    4  A    between atoms: C_4  and  C_5
REMARK    5  A    between atoms: C_4  and  C_24
REMARK    6  A    between atoms: C_4  and  C_30
REMARK    7  A    between atoms: C_8  and  C_9
REMARK    8  A    between atoms: N_11  and  C_12
REMARK    9  A    between atoms: C_12  and  C_13
REMARK   10  A    between atoms: C_13  and  C_14
REMARK   11  A    between atoms: C_14  and  C_15
REMARK   12  A    between atoms: C_15  and  C_16
REMARK   13  A    between atoms: C_16  and  C_17
REMARK   14  A    between atoms: C_17  and  C_18
REMARK   15  A    between atoms: N_20  and  O_21
REMARK                            x       y       z     vdW  Elec       q    Type
REMARK                         _______ _______ _______ _____ _____    ______ ____
ROOT
ATOM      1  C   UNL     1       0.299  10.032  19.738  0.00  0.00    +0.000 A 
ATOM      2  C   UNL     1       1.054   9.710  18.592  0.00  0.00    +0.000 A 
ATOM      3  C   UNL     1       1.863   8.560  18.552  0.00  0.00    +0.000 A 
ATOM      4  C   UNL     1       1.943   7.698  19.655  0.00  0.00    +0.000 A 
ATOM      5  C   UNL     1       1.235   8.025  20.812  0.00  0.00    +0.000 A 
ATOM      6  C   UNL     1       0.436   9.173  20.852  0.00  0.00    +0.000 A 
ENDROOT
BRANCH   4   7
ATOM      7  C   UNL     1       2.822   6.489  19.574  0.00  0.00    +0.000 C 
ATOM      8  O   UNL     1       2.672   5.562  20.359  0.00  0.00    +0.000 OA
ATOM      9  N   UNL     1       3.805   6.504  18.597  0.00  0.00    +0.000 N 
ATOM     10  H   UNL     1       3.953   7.337  18.045  0.00  0.00    +0.000 HD
BRANCH   9  11
ATOM     11  C   UNL     1       4.724   5.396  18.399  0.00  0.00    +0.000 C 
BRANCH  11  12
ATOM     12  C   UNL     1       4.771   4.963  16.933  0.00  0.00    +0.000 C 
BRANCH  12  13
ATOM     13  C   UNL     1       4.122   3.590  16.739  0.00  0.00    +0.000 C 
BRANCH  13  14
ATOM     14  C   UNL     1       2.633   3.608  17.092  0.00  0.00    +0.000 C 
BRANCH  14  15
ATOM     15  C   UNL     1       2.268   2.410  17.969  0.00  0.00    +0.000 C 
BRANCH  15  16
ATOM     16  C   UNL     1       3.506   1.731  18.552  0.00  0.00    +0.000 C 
BRANCH  16  17
ATOM     17  C   UNL     1       3.735   2.127  19.997  0.00  0.00    +0.000 C 
ATOM     18  O   UNL     1       4.806   2.015  20.590  0.00  0.00    +0.000 OA
ATOM     19  N   UNL     1       2.617   2.641  20.609  0.00  0.00    +0.000 N 
ATOM     20  H   UNL     1       1.675   2.490  20.266  0.00  0.00    +0.000 HD
BRANCH  19  21
ATOM     21  O   UNL     1       2.753   2.924  21.988  0.00  0.00    +0.000 OA
ATOM     22  H   UNL     1       2.390   3.836  22.050  0.00  0.00    +0.000 HD
ENDBRANCH  19  21
ENDBRANCH  16  17
ENDBRANCH  15  16
ENDBRANCH  14  15
ENDBRANCH  13  14
ENDBRANCH  12  13
ENDBRANCH  11  12
ENDBRANCH   9  11
ENDBRANCH   4   7
BRANCH   1  23
ATOM     23  C   UNL     1      -0.605  11.317  19.818  0.00  0.00    +0.000 C 
BRANCH  23  24
ATOM     24  C   UNL     1      -1.779  11.167  18.775  0.00  0.00    +0.000 A 
ATOM     25  C   UNL     1      -1.684  10.416  17.597  0.00  0.00    +0.000 A 
ATOM     26  C   UNL     1      -2.779  10.273  16.744  0.00  0.00    +0.000 A 
ATOM     27  C   UNL     1      -3.960  10.923  17.046  0.00  0.00    +0.000 A 
ATOM     28  C   UNL     1      -3.986  11.699  18.188  0.00  0.00    +0.000 A 
ATOM     29  N   UNL     1      -2.943  11.834  19.044  0.00  0.00    +0.000 NA
ENDBRANCH  23  24
BRANCH  23  30
ATOM     30  C   UNL     1       0.324  12.580  19.672  0.00  0.00    +0.000 A 
ATOM     31  C   UNL     1      -0.040  13.644  18.837  0.00  0.00    +0.000 A 
ATOM     32  C   UNL     1       0.854  14.694  18.628  0.00  0.00    +0.000 A 
ATOM     33  C   UNL     1       2.076  14.696  19.288  0.00  0.00    +0.000 A 
ATOM     34  C   UNL     1       2.333  13.672  20.170  0.00  0.00    +0.000 A 
ATOM     35  N   UNL     1       1.480  12.653  20.391  0.00  0.00    +0.000 NA
ENDBRANCH  23  30
BRANCH  23  36
ATOM     36  O   UNL     1      -1.186  11.352  21.175  0.00  0.00    +0.000 OA
BRANCH  36  38
ATOM     37  C   UNL     1      -1.289  12.812  23.084  0.00  0.00    +0.000 C 
ATOM     38  C   UNL     1      -1.640  12.635  21.616  0.00  0.00    +0.000 C 
ENDBRANCH  36  38
ENDBRANCH  23  36
ENDBRANCH   1  23
TORSDOF 14
ENDMDL
MODEL 4
REMARK VINA RESULT:      -7.8      1.864      3.315
REMARK  Name = 
REMARK  15 active torsions:
REMARK  status: ('A' for Active; 'I' for Inactive)
REMARK    1  A    between atoms: C_1  and  C_2
REMARK    2  A    between atoms: C_2  and  O_3
REMARK    3  A    between atoms: O_3  and  C_4
REMARK    4  A    between atoms: C_4  and  C_5
REMARK    5  A    between atoms: C_4  and  C_24
REMARK    6  A    between atoms: C_4  and  C_30
REMARK    7  A    between atoms: C_8  and  C_9
REMARK    8  A    between atoms: N_11  and  C_12
REMARK    9  A    between atoms: C_12  and  C_13
REMARK   10  A    between atoms: C_13  and  C_14
REMARK   11  A    between atoms: C_14  and  C_15
REMARK   12  A    between atoms: C_15  and  C_16
REMARK   13  A    between atoms: C_16  and  C_17
REMARK   14  A    between atoms: C_17  and  C_18
REMARK   15  A    between atoms: N_20  and  O_21
REMARK                            x       y       z     vdW  Elec       q    Type
REMARK                         _______ _______ _______ _____ _____    ______ ____
ROOT
ATOM      1  C   UNL     1       0.820   9.722  19.074  0.00  0.00    +0.000 A 
ATOM      2  C   UNL     1       1.483   9.401  17.871  0.00  0.00    +0.000 A 
ATOM      3  C   UNL     1       2.320   8.275  17.779  0.00  0.00    +0.000 A 
ATOM      4  C   UNL     1       2.522   7.436  18.884  0.00  0.00    +0.000 A 
ATOM      5  C   UNL     1       1.907   7.763  20.094  0.00  0.00    +0.000 A 
ATOM      6  C   UNL     1       1.080   8.888  20.185  0.00  0.00    +0.000 A 
ENDROOT
BRANCH   4   7
ATOM      7  C   UNL     1       3.427   6.252  18.746  0.00  0.00    +0.000 C 
ATOM      8  O   UNL     1       4.271   6.015  19.600  0.00  0.00    +0.000 OA
ATOM      9  N   UNL     1       3.265   5.481  17.605  0.00  0.00    +0.000 N 
ATOM     10  H   UNL     1       2.626   5.780  16.883  0.00  0.00    +0.000 HD
BRANCH   9  11
ATOM     11  C   UNL     1       4.068   4.298  17.343  0.00  0.00    +0.000 C 
BRANCH  11  12
ATOM     12  C   UNL     1       4.353   4.135  15.850  0.00  0.00    +0.000 C 
BRANCH  12  13
ATOM     13  C   UNL     1       5.232   5.273  15.325  0.00  0.00    +0.000 C 
BRANCH  13  14
ATOM     14  C   UNL     1       6.708   4.875  15.270  0.00  0.00    +0.000 C 
BRANCH  14  15
ATOM     15  C   UNL     1       7.350   4.974  16.654  0.00  0.00    +0.000 C 
BRANCH  15  16
ATOM     16  C   UNL     1       7.229   6.379  17.241  0.00  0.00    +0.000 C 
BRANCH  16  17
ATOM     17  C   UNL     1       7.822   6.459  18.633  0.00  0.00    +0.000 C 
ATOM     18  O   UNL     1       8.583   7.343  19.019  0.00  0.00    +0.000 OA
ATOM     19  N   UNL     1       7.425   5.433  19.458  0.00  0.00    +0.000 N 
ATOM     20  H   UNL     1       7.047   4.557  19.115  0.00  0.00    +0.000 HD
BRANCH  19  21
ATOM     21  O   UNL     1       8.037   5.405  20.733  0.00  0.00    +0.000 OA
ATOM     22  H   UNL     1       8.577   4.584  20.687  0.00  0.00    +0.000 HD
ENDBRANCH  19  21
ENDBRANCH  16  17
ENDBRANCH  15  16
ENDBRANCH  14  15
ENDBRANCH  13  14
ENDBRANCH  12  13
ENDBRANCH  11  12
ENDBRANCH   9  11
ENDBRANCH   4   7
BRANCH   1  23
ATOM     23  C   UNL     1      -0.112  10.981  19.212  0.00  0.00    +0.000 C 
BRANCH  23  24
ATOM     24  C   UNL     1      -1.384  10.762  18.306  0.00  0.00    +0.000 A 
ATOM     25  C   UNL     1      -1.421   9.889  17.211  0.00  0.00    +0.000 A 
ATOM     26  C   UNL     1      -2.596   9.694  16.485  0.00  0.00    +0.000 A 
ATOM     27  C   UNL     1      -3.727  10.412  16.825  0.00  0.00    +0.000 A 
ATOM     28  C   UNL     1      -3.625  11.303  17.874  0.00  0.00    +0.000 A 
ATOM     29  N   UNL     1      -2.502  11.492  18.609  0.00  0.00    +0.000 NA
ENDBRANCH  23  24
BRANCH  23  30
ATOM     30  C   UNL     1       0.754  12.266  18.931  0.00  0.00    +0.000 A 
ATOM     31  C   UNL     1       2.130  12.163  18.688  0.00  0.00    +0.000 A 
ATOM     32  C   UNL     1       2.897  13.321  18.564  0.00  0.00    +0.000 A 
ATOM     33  C   UNL     1       2.281  14.563  18.634  0.00  0.00    +0.000 A 
ATOM     34  C   UNL     1       0.912  14.595  18.775  0.00  0.00    +0.000 A 
ATOM     35  N   UNL     1       0.153  13.489  18.890  0.00  0.00    +0.000 NA
ENDBRANCH  23  30
BRANCH  23  36
ATOM     36  O   UNL     1      -0.547  11.043  20.622  0.00  0.00    +0.000 OA
BRANCH  36  38
ATOM     37  C   UNL     1      -0.857  12.355  22.614  0.00  0.00    +0.000 C 
ATOM     38  C   UNL     1       0.010  12.114  21.390  0.00  0.00    +0.000 C 
ENDBRANCH  36  38
ENDBRANCH  23  36
ENDBRANCH   1  23
TORSDOF 14
ENDMDL
MODEL 5
REMARK VINA RESULT:      -7.8      2.728      9.240
REMARK  Name = 
REMARK  15 active torsions:
REMARK  status: ('A' for Active; 'I' for Inactive)
REMARK    1  A    between atoms: C_1  and  C_2
REMARK    2  A    between atoms: C_2  and  O_3
REMARK    3  A    between atoms: O_3  and  C_4
REMARK    4  A    between atoms: C_4  and  C_5
REMARK    5  A    between atoms: C_4  and  C_24
REMARK    6  A    between atoms: C_4  and  C_30
REMARK    7  A    between atoms: C_8  and  C_9
REMARK    8  A    between atoms: N_11  and  C_12
REMARK    9  A    between atoms: C_12  and  C_13
REMARK   10  A    between atoms: C_13  and  C_14
REMARK   11  A    between atoms: C_14  and  C_15
REMARK   12  A    between atoms: C_15  and  C_16
REMARK   13  A    between atoms: C_16  and  C_17
REMARK   14  A    between atoms: C_17  and  C_18
REMARK   15  A    between atoms: N_20  and  O_21
REMARK                            x       y       z     vdW  Elec       q    Type
REMARK                         _______ _______ _______ _____ _____    ______ ____
ROOT
ATOM      1  C   UNL     1       3.291   6.654  18.331  0.00  0.00    +0.000 A 
ATOM      2  C   UNL     1       2.744   6.705  19.631  0.00  0.00    +0.000 A 
ATOM      3  C   UNL     1       1.885   7.748  20.019  0.00  0.00    +0.000 A 
ATOM      4  C   UNL     1       1.545   8.771  19.122  0.00  0.00    +0.000 A 
ATOM      5  C   UNL     1       2.110   8.758  17.846  0.00  0.00    +0.000 A 
ATOM      6  C   UNL     1       2.971   7.724  17.465  0.00  0.00    +0.000 A 
ENDROOT
BRANCH   4   7
ATOM      7  C   UNL     1       0.632   9.867  19.577  0.00  0.00    +0.000 C 
ATOM      8  O   UNL     1       0.832  10.437  20.640  0.00  0.00    +0.000 OA
ATOM      9  N   UNL     1      -0.439  10.162  18.747  0.00  0.00    +0.000 N 
ATOM     10  H   UNL     1      -0.617   9.591  17.933  0.00  0.00    +0.000 HD
BRANCH   9  11
ATOM     11  C   UNL     1      -1.401  11.206  19.058  0.00  0.00    +0.000 C 
BRANCH  11  12
ATOM     12  C   UNL     1      -2.119  11.698  17.801  0.00  0.00    +0.000 C 
BRANCH  12  13
ATOM     13  C   UNL     1      -3.458  10.982  17.612  0.00  0.00    +0.000 C 
BRANCH  13  14
ATOM     14  C   UNL     1      -4.594  11.694  18.351  0.00  0.00    +0.000 C 
BRANCH  14  15
ATOM     15  C   UNL     1      -5.955  11.247  17.817  0.00  0.00    +0.000 C 
BRANCH  15  16
ATOM     16  C   UNL     1      -6.717  10.398  18.832  0.00  0.00    +0.000 C 
BRANCH  16  17
ATOM     17  C   UNL     1      -7.246  11.234  19.979  0.00  0.00    +0.000 C 
ATOM     18  O   UNL     1      -7.667  12.384  19.870  0.00  0.00    +0.000 OA
ATOM     19  N   UNL     1      -7.222  10.583  21.189  0.00  0.00    +0.000 N 
ATOM     20  H   UNL     1      -6.641   9.774  21.375  0.00  0.00    +0.000 HD
BRANCH  19  21
ATOM     21  O   UNL     1      -7.606  11.360  22.307  0.00  0.00    +0.000 OA
ATOM     22  H   UNL     1      -7.363  10.776  23.061  0.00  0.00    +0.000 HD
ENDBRANCH  19  21
ENDBRANCH  16  17
ENDBRANCH  15  16
ENDBRANCH  14  15
ENDBRANCH  13  14
ENDBRANCH  12  13
ENDBRANCH  11  12
ENDBRANCH   9  11
ENDBRANCH   4   7
BRANCH   1  23
ATOM     23  C   UNL     1       4.266   5.508  17.872  0.00  0.00    +0.000 C 
BRANCH  23  24
ATOM     24  C   UNL     1       3.674   4.127  18.353  0.00  0.00    +0.000 A 
ATOM     25  C   UNL     1       4.340   3.253  19.221  0.00  0.00    +0.000 A 
ATOM     26  C   UNL     1       3.737   2.073  19.657  0.00  0.00    +0.000 A 
ATOM     27  C   UNL     1       2.482   1.742  19.186  0.00  0.00    +0.000 A 
ATOM     28  C   UNL     1       1.890   2.606  18.287  0.00  0.00    +0.000 A 
ATOM     29  N   UNL     1       2.446   3.769  17.867  0.00  0.00    +0.000 NA
ENDBRANCH  23  24
BRANCH  23  30
ATOM     30  C   UNL     1       5.717   5.873  18.361  0.00  0.00    +0.000 A 
ATOM     31  C   UNL     1       6.479   6.836  17.686  0.00  0.00    +0.000 A 
ATOM     32  C   UNL     1       7.804   7.054  18.062  0.00  0.00    +0.000 A 
ATOM     33  C   UNL     1       8.339   6.348  19.131  0.00  0.00    +0.000 A 
ATOM     34  C   UNL     1       7.509   5.489  19.815  0.00  0.00    +0.000 A 
ATOM     35  N   UNL     1       6.225   5.270  19.473  0.00  0.00    +0.000 NA
ENDBRANCH  23  30
BRANCH  23  36
ATOM     36  O   UNL     1       4.281   5.522  16.396  0.00  0.00    +0.000 OA
BRANCH  36  38
ATOM     37  C   UNL     1       5.850   4.955  14.662  0.00  0.00    +0.000 C 
ATOM     38  C   UNL     1       4.965   4.426  15.778  0.00  0.00    +0.000 C 
ENDBRANCH  36  38
ENDBRANCH  23  36
ENDBRANCH   1  23
TORSDOF 14
ENDMDL
MODEL 6
REMARK VINA RESULT:      -7.8      2.701      9.206
REMARK  Name = 
REMARK  15 active torsions:
REMARK  status: ('A' for Active; 'I' for Inactive)
REMARK    1  A    between atoms: C_1  and  C_2
REMARK    2  A    between atoms: C_2  and  O_3
REMARK    3  A    between atoms: O_3  and  C_4
REMARK    4  A    between atoms: C_4  and  C_5
REMARK    5  A    between atoms: C_4  and  C_24
REMARK    6  A    between atoms: C_4  and  C_30
REMARK    7  A    between atoms: C_8  and  C_9
REMARK    8  A    between atoms: N_11  and  C_12
REMARK    9  A    between atoms: C_12  and  C_13
REMARK   10  A    between atoms: C_13  and  C_14
REMARK   11  A    between atoms: C_14  and  C_15
REMARK   12  A    between atoms: C_15  and  C_16
REMARK   13  A    between atoms: C_16  and  C_17
REMARK   14  A    between atoms: C_17  and  C_18
REMARK   15  A    between atoms: N_20  and  O_21
REMARK                            x       y       z     vdW  Elec       q    Type
REMARK                         _______ _______ _______ _____ _____    ______ ____
ROOT
ATOM      1  C   UNL     1       3.442   6.649  18.060  0.00  0.00    +0.000 A 
ATOM      2  C   UNL     1       2.848   6.651  19.339  0.00  0.00    +0.000 A 
ATOM      3  C   UNL     1       1.962   7.670  19.730  0.00  0.00    +0.000 A 
ATOM      4  C   UNL     1       1.641   8.718  18.855  0.00  0.00    +0.000 A 
ATOM      5  C   UNL     1       2.252   8.754  17.601  0.00  0.00    +0.000 A 
ATOM      6  C   UNL     1       3.139   7.743  17.217  0.00  0.00    +0.000 A 
ENDROOT
BRANCH   4   7
ATOM      7  C   UNL     1       0.698   9.788  19.312  0.00  0.00    +0.000 C 
ATOM      8  O   UNL     1       0.455   9.932  20.502  0.00  0.00    +0.000 OA
ATOM      9  N   UNL     1       0.117  10.562  18.319  0.00  0.00    +0.000 N 
ATOM     10  H   UNL     1       0.271  10.334  17.348  0.00  0.00    +0.000 HD
BRANCH   9  11
ATOM     11  C   UNL     1      -0.812  11.641  18.616  0.00  0.00    +0.000 C 
BRANCH  11  12
ATOM     12  C   UNL     1      -2.260  11.153  18.597  0.00  0.00    +0.000 C 
BRANCH  12  13
ATOM     13  C   UNL     1      -2.900  11.370  17.224  0.00  0.00    +0.000 C 
BRANCH  13  14
ATOM     14  C   UNL     1      -4.350  10.881  17.187  0.00  0.00    +0.000 C 
BRANCH  14  15
ATOM     15  C   UNL     1      -5.153  11.470  18.347  0.00  0.00    +0.000 C 
BRANCH  15  16
ATOM     16  C   UNL     1      -6.537  10.836  18.464  0.00  0.00    +0.000 C 
BRANCH  16  17
ATOM     17  C   UNL     1      -7.205  11.186  19.778  0.00  0.00    +0.000 C 
ATOM     18  O   UNL     1      -7.638  12.299  20.068  0.00  0.00    +0.000 OA
ATOM     19  N   UNL     1      -7.296  10.124  20.647  0.00  0.00    +0.000 N 
ATOM     20  H   UNL     1      -6.719   9.294  20.574  0.00  0.00    +0.000 HD
BRANCH  19  21
ATOM     21  O   UNL     1      -7.815  10.427  21.927  0.00  0.00    +0.000 OA
ATOM     22  H   UNL     1      -8.665   9.932  21.931  0.00  0.00    +0.000 HD
ENDBRANCH  19  21
ENDBRANCH  16  17
ENDBRANCH  15  16
ENDBRANCH  14  15
ENDBRANCH  13  14
ENDBRANCH  12  13
ENDBRANCH  11  12
ENDBRANCH   9  11
ENDBRANCH   4   7
BRANCH   1  23
ATOM     23  C   UNL     1       4.447   5.531  17.599  0.00  0.00    +0.000 C 
BRANCH  23  24
ATOM     24  C   UNL     1       3.908   4.137  18.103  0.00  0.00    +0.000 A 
ATOM     25  C   UNL     1       2.801   3.482  17.548  0.00  0.00    +0.000 A 
ATOM     26  C   UNL     1       2.409   2.221  17.999  0.00  0.00    +0.000 A 
ATOM     27  C   UNL     1       3.098   1.633  19.041  0.00  0.00    +0.000 A 
ATOM     28  C   UNL     1       4.146   2.342  19.594  0.00  0.00    +0.000 A 
ATOM     29  N   UNL     1       4.559   3.557  19.158  0.00  0.00    +0.000 NA
ENDBRANCH  23  24
BRANCH  23  30
ATOM     30  C   UNL     1       5.892   5.948  18.065  0.00  0.00    +0.000 A 
ATOM     31  C   UNL     1       6.523   5.285  19.125  0.00  0.00    +0.000 A 
ATOM     32  C   UNL     1       7.749   5.751  19.599  0.00  0.00    +0.000 A 
ATOM     33  C   UNL     1       8.354   6.839  18.984  0.00  0.00    +0.000 A 
ATOM     34  C   UNL     1       7.731   7.385  17.884  0.00  0.00    +0.000 A 
ATOM     35  N   UNL     1       6.550   6.945  17.407  0.00  0.00    +0.000 NA
ENDBRANCH  23  30
BRANCH  23  36
ATOM     36  O   UNL     1       4.443   5.529  16.123  0.00  0.00    +0.000 OA
BRANCH  36  38
ATOM     37  C   UNL     1       6.137   4.958  14.513  0.00  0.00    +0.000 C 
ATOM     38  C   UNL     1       5.118   4.427  15.508  0.00  0.00    +0.000 C 
ENDBRANCH  36  38
ENDBRANCH  23  36
ENDBRANCH   1  23
TORSDOF 14
ENDMDL
MODEL 7
REMARK VINA RESULT:      -7.7      2.502      9.216
REMARK  Name = 
REMARK  15 active torsions:
REMARK  status: ('A' for Active; 'I' for Inactive)
REMARK    1  A    between atoms: C_1  and  C_2
REMARK    2  A    between atoms: C_2  and  O_3
REMARK    3  A    between atoms: O_3  and  C_4
REMARK    4  A    between atoms: C_4  and  C_5
REMARK    5  A    between atoms: C_4  and  C_24
REMARK    6  A    between atoms: C_4  and  C_30
REMARK    7  A    between atoms: C_8  and  C_9
REMARK    8  A    between atoms: N_11  and  C_12
REMARK    9  A    between atoms: C_12  and  C_13
REMARK   10  A    between atoms: C_13  and  C_14
REMARK   11  A    between atoms: C_14  and  C_15
REMARK   12  A    between atoms: C_15  and  C_16
REMARK   13  A    between atoms: C_16  and  C_17
REMARK   14  A    between atoms: C_17  and  C_18
REMARK   15  A    between atoms: N_20  and  O_21
REMARK                            x       y       z     vdW  Elec       q    Type
REMARK                         _______ _______ _______ _____ _____    ______ ____
ROOT
ATOM      1  C   UNL     1       3.295   6.797  18.224  0.00  0.00    +0.000 A 
ATOM      2  C   UNL     1       3.008   7.863  17.345  0.00  0.00    +0.000 A 
ATOM      3  C   UNL     1       2.176   8.926  17.738  0.00  0.00    +0.000 A 
ATOM      4  C   UNL     1       1.605   8.957  19.019  0.00  0.00    +0.000 A 
ATOM      5  C   UNL     1       1.846   7.890  19.885  0.00  0.00    +0.000 A 
ATOM      6  C   UNL     1       2.668   6.829  19.490  0.00  0.00    +0.000 A 
ENDROOT
BRANCH   4   7
ATOM      7  C   UNL     1       0.719  10.104  19.395  0.00  0.00    +0.000 C 
ATOM      8  O   UNL     1       0.232  10.167  20.516  0.00  0.00    +0.000 OA
ATOM      9  N   UNL     1       0.475  11.045  18.407  0.00  0.00    +0.000 N 
ATOM     10  H   UNL     1       0.816  10.890  17.469  0.00  0.00    +0.000 HD
BRANCH   9  11
ATOM     11  C   UNL     1      -0.360  12.214  18.634  0.00  0.00    +0.000 C 
BRANCH  11  12
ATOM     12  C   UNL     1      -1.778  11.998  18.107  0.00  0.00    +0.000 C 
BRANCH  12  13
ATOM     13  C   UNL     1      -2.796  11.972  19.250  0.00  0.00    +0.000 C 
BRANCH  13  14
ATOM     14  C   UNL     1      -2.443  12.975  20.350  0.00  0.00    +0.000 C 
BRANCH  14  15
ATOM     15  C   UNL     1      -2.261  12.267  21.693  0.00  0.00    +0.000 C 
BRANCH  15  16
ATOM     16  C   UNL     1      -2.801  13.099  22.856  0.00  0.00    +0.000 C 
BRANCH  16  17
ATOM     17  C   UNL     1      -4.111  12.547  23.380  0.00  0.00    +0.000 C 
ATOM     18  O   UNL     1      -4.271  12.076  24.504  0.00  0.00    +0.000 OA
ATOM     19  N   UNL     1      -5.140  12.621  22.472  0.00  0.00    +0.000 N 
ATOM     20  H   UNL     1      -4.996  12.729  21.475  0.00  0.00    +0.000 HD
BRANCH  19  21
ATOM     21  O   UNL     1      -6.355  12.021  22.877  0.00  0.00    +0.000 OA
ATOM     22  H   UNL     1      -6.660  12.628  23.589  0.00  0.00    +0.000 HD
ENDBRANCH  19  21
ENDBRANCH  16  17
ENDBRANCH  15  16
ENDBRANCH  14  15
ENDBRANCH  13  14
ENDBRANCH  12  13
ENDBRANCH  11  12
ENDBRANCH   9  11
ENDBRANCH   4   7
BRANCH   1  23
ATOM     23  C   UNL     1       4.211   5.587  17.808  0.00  0.00    +0.000 C 
BRANCH  23  24
ATOM     24  C   UNL     1       3.517   4.251  18.279  0.00  0.00    +0.000 A 
ATOM     25  C   UNL     1       2.192   3.913  17.979  0.00  0.00    +0.000 A 
ATOM     26  C   UNL     1       1.654   2.688  18.374  0.00  0.00    +0.000 A 
ATOM     27  C   UNL     1       2.430   1.817  19.114  0.00  0.00    +0.000 A 
ATOM     28  C   UNL     1       3.711   2.220  19.435  0.00  0.00    +0.000 A 
ATOM     29  N   UNL     1       4.263   3.394  19.043  0.00  0.00    +0.000 NA
ENDBRANCH  23  24
BRANCH  23  30
ATOM     30  C   UNL     1       5.665   5.866  18.345  0.00  0.00    +0.000 A 
ATOM     31  C   UNL     1       6.505   6.781  17.698  0.00  0.00    +0.000 A 
ATOM     32  C   UNL     1       7.828   6.920  18.117  0.00  0.00    +0.000 A 
ATOM     33  C   UNL     1       8.284   6.185  19.202  0.00  0.00    +0.000 A 
ATOM     34  C   UNL     1       7.383   5.376  19.857  0.00  0.00    +0.000 A 
ATOM     35  N   UNL     1       6.100   5.234  19.472  0.00  0.00    +0.000 NA
ENDBRANCH  23  30
BRANCH  23  36
ATOM     36  O   UNL     1       4.279   5.585  16.333  0.00  0.00    +0.000 OA
BRANCH  36  38
ATOM     37  C   UNL     1       5.891   4.910  14.680  0.00  0.00    +0.000 C 
ATOM     38  C   UNL     1       4.917   4.444  15.750  0.00  0.00    +0.000 C 
ENDBRANCH  36  38
ENDBRANCH  23  36
ENDBRANCH   1  23
TORSDOF 14
ENDMDL
MODEL 8
REMARK VINA RESULT:      -7.7      2.590      9.030
REMARK  Name = 
REMARK  15 active torsions:
REMARK  status: ('A' for Active; 'I' for Inactive)
REMARK    1  A    between atoms: C_1  and  C_2
REMARK    2  A    between atoms: C_2  and  O_3
REMARK    3  A    between atoms: O_3  and  C_4
REMARK    4  A    between atoms: C_4  and  C_5
REMARK    5  A    between atoms: C_4  and  C_24
REMARK    6  A    between atoms: C_4  and  C_30
REMARK    7  A    between atoms: C_8  and  C_9
REMARK    8  A    between atoms: N_11  and  C_12
REMARK    9  A    between atoms: C_12  and  C_13
REMARK   10  A    between atoms: C_13  and  C_14
REMARK   11  A    between atoms: C_14  and  C_15
REMARK   12  A    between atoms: C_15  and  C_16
REMARK   13  A    between atoms: C_16  and  C_17
REMARK   14  A    between atoms: C_17  and  C_18
REMARK   15  A    between atoms: N_20  and  O_21
REMARK                            x       y       z     vdW  Elec       q    Type
REMARK                         _______ _______ _______ _____ _____    ______ ____
ROOT
ATOM      1  C   UNL     1       3.218   6.792  18.240  0.00  0.00    +0.000 A 
ATOM      2  C   UNL     1       2.631   6.941  19.514  0.00  0.00    +0.000 A 
ATOM      3  C   UNL     1       1.866   8.076  19.835  0.00  0.00    +0.000 A 
ATOM      4  C   UNL     1       1.663   9.096  18.895  0.00  0.00    +0.000 A 
ATOM      5  C   UNL     1       2.270   8.984  17.644  0.00  0.00    +0.000 A 
ATOM      6  C   UNL     1       3.038   7.858  17.329  0.00  0.00    +0.000 A 
ENDROOT
BRANCH   4   7
ATOM      7  C   UNL     1       0.847  10.291  19.279  0.00  0.00    +0.000 C 
ATOM      8  O   UNL     1       1.310  11.418  19.168  0.00  0.00    +0.000 OA
ATOM      9  N   UNL     1      -0.421  10.037  19.781  0.00  0.00    +0.000 N 
ATOM     10  H   UNL     1      -0.714   9.085  19.950  0.00  0.00    +0.000 HD
BRANCH   9  11
ATOM     11  C   UNL     1      -1.325  11.100  20.186  0.00  0.00    +0.000 C 
BRANCH  11  12
ATOM     12  C   UNL     1      -2.080  11.679  18.990  0.00  0.00    +0.000 C 
BRANCH  12  13
ATOM     13  C   UNL     1      -2.339  10.609  17.927  0.00  0.00    +0.000 C 
BRANCH  13  14
ATOM     14  C   UNL     1      -3.041  11.187  16.696  0.00  0.00    +0.000 C 
BRANCH  14  15
ATOM     15  C   UNL     1      -4.536  10.865  16.722  0.00  0.00    +0.000 C 
BRANCH  15  16
ATOM     16  C   UNL     1      -5.348  11.978  17.383  0.00  0.00    +0.000 C 
BRANCH  16  17
ATOM     17  C   UNL     1      -5.996  11.510  18.671  0.00  0.00    +0.000 C 
ATOM     18  O   UNL     1      -5.651  11.866  19.796  0.00  0.00    +0.000 OA
ATOM     19  N   UNL     1      -7.034  10.632  18.475  0.00  0.00    +0.000 N 
ATOM     20  H   UNL     1      -7.164  10.104  17.620  0.00  0.00    +0.000 HD
BRANCH  19  21
ATOM     21  O   UNL     1      -7.600  10.085  19.651  0.00  0.00    +0.000 OA
ATOM     22  H   UNL     1      -8.375   9.591  19.299  0.00  0.00    +0.000 HD
ENDBRANCH  19  21
ENDBRANCH  16  17
ENDBRANCH  15  16
ENDBRANCH  14  15
ENDBRANCH  13  14
ENDBRANCH  12  13
ENDBRANCH  11  12
ENDBRANCH   9  11
ENDBRANCH   4   7
BRANCH   1  23
ATOM     23  C   UNL     1       4.090   5.541  17.855  0.00  0.00    +0.000 C 
BRANCH  23  24
ATOM     24  C   UNL     1       3.360   4.244  18.376  0.00  0.00    +0.000 A 
ATOM     25  C   UNL     1       2.052   3.889  18.020  0.00  0.00    +0.000 A 
ATOM     26  C   UNL     1       1.482   2.696  18.467  0.00  0.00    +0.000 A 
ATOM     27  C   UNL     1       2.206   1.877  19.311  0.00  0.00    +0.000 A 
ATOM     28  C   UNL     1       3.468   2.298  19.680  0.00  0.00    +0.000 A 
ATOM     29  N   UNL     1       4.052   3.440  19.241  0.00  0.00    +0.000 NA
ENDBRANCH  23  24
BRANCH  23  30
ATOM     30  C   UNL     1       5.558   5.790  18.368  0.00  0.00    +0.000 A 
ATOM     31  C   UNL     1       6.403   6.693  17.711  0.00  0.00    +0.000 A 
ATOM     32  C   UNL     1       7.735   6.806  18.109  0.00  0.00    +0.000 A 
ATOM     33  C   UNL     1       8.197   6.056  19.182  0.00  0.00    +0.000 A 
ATOM     34  C   UNL     1       7.291   5.261  19.848  0.00  0.00    +0.000 A 
ATOM     35  N   UNL     1       6.000   5.144  19.485  0.00  0.00    +0.000 NA
ENDBRANCH  23  30
BRANCH  23  36
ATOM     36  O   UNL     1       4.142   5.489  16.380  0.00  0.00    +0.000 OA
BRANCH  36  38
ATOM     37  C   UNL     1       5.658   4.784  14.651  0.00  0.00    +0.000 C 
ATOM     38  C   UNL     1       4.804   4.346  15.829  0.00  0.00    +0.000 C 
ENDBRANCH  36  38
ENDBRANCH  23  36
ENDBRANCH   1  23
TORSDOF 14
ENDMDL
MODEL 9
REMARK VINA RESULT:      -7.7      1.928      3.463
REMARK  Name = 
REMARK  15 active torsions:
REMARK  status: ('A' for Active; 'I' for Inactive)
REMARK    1  A    between atoms: C_1  and  C_2
REMARK    2  A    between atoms: C_2  and  O_3
REMARK    3  A    between atoms: O_3  and  C_4
REMARK    4  A    between atoms: C_4  and  C_5
REMARK    5  A    between atoms: C_4  and  C_24
REMARK    6  A    between atoms: C_4  and  C_30
REMARK    7  A    between atoms: C_8  and  C_9
REMARK    8  A    between atoms: N_11  and  C_12
REMARK    9  A    between atoms: C_12  and  C_13
REMARK   10  A    between atoms: C_13  and  C_14
REMARK   11  A    between atoms: C_14  and  C_15
REMARK   12  A    between atoms: C_15  and  C_16
REMARK   13  A    between atoms: C_16  and  C_17
REMARK   14  A    between atoms: C_17  and  C_18
REMARK   15  A    between atoms: N_20  and  O_21
REMARK                            x       y       z     vdW  Elec       q    Type
REMARK                         _______ _______ _______ _____ _____    ______ ____
ROOT
ATOM      1  C   UNL     1       1.022   9.488  19.678  0.00  0.00    +0.000 A 
ATOM      2  C   UNL     1       1.136   8.538  20.714  0.00  0.00    +0.000 A 
ATOM      3  C   UNL     1       1.849   7.340  20.529  0.00  0.00    +0.000 A 
ATOM      4  C   UNL     1       2.470   7.055  19.304  0.00  0.00    +0.000 A 
ATOM      5  C   UNL     1       2.331   7.965  18.255  0.00  0.00    +0.000 A 
ATOM      6  C   UNL     1       1.615   9.152  18.439  0.00  0.00    +0.000 A 
ENDROOT
BRANCH   4   7
ATOM      7  C   UNL     1       3.214   5.765  19.145  0.00  0.00    +0.000 C 
ATOM      8  O   UNL     1       4.241   5.562  19.777  0.00  0.00    +0.000 OA
ATOM      9  N   UNL     1       2.688   4.857  18.239  0.00  0.00    +0.000 N 
ATOM     10  H   UNL     1       1.897   5.117  17.667  0.00  0.00    +0.000 HD
BRANCH   9  11
ATOM     11  C   UNL     1       3.300   3.563  17.989  0.00  0.00    +0.000 C 
BRANCH  11  12
ATOM     12  C   UNL     1       4.602   3.704  17.200  0.00  0.00    +0.000 C 
BRANCH  12  13
ATOM     13  C   UNL     1       4.426   4.643  16.004  0.00  0.00    +0.000 C 
BRANCH  13  14
ATOM     14  C   UNL     1       5.692   5.459  15.730  0.00  0.00    +0.000 C 
BRANCH  14  15
ATOM     15  C   UNL     1       5.883   6.540  16.794  0.00  0.00    +0.000 C 
BRANCH  15  16
ATOM     16  C   UNL     1       7.350   6.932  16.953  0.00  0.00    +0.000 C 
BRANCH  16  17
ATOM     17  C   UNL     1       7.815   6.797  18.389  0.00  0.00    +0.000 C 
ATOM     18  O   UNL     1       8.584   7.574  18.951  0.00  0.00    +0.000 OA
ATOM     19  N   UNL     1       7.290   5.703  19.035  0.00  0.00    +0.000 N 
ATOM     20  H   UNL     1       6.898   4.905  18.549  0.00  0.00    +0.000 HD
BRANCH  19  21
ATOM     21  O   UNL     1       7.778   5.475  20.342  0.00  0.00    +0.000 OA
ATOM     22  H   UNL     1       6.969   5.181  20.819  0.00  0.00    +0.000 HD
ENDBRANCH  19  21
ENDBRANCH  16  17
ENDBRANCH  15  16
ENDBRANCH  14  15
ENDBRANCH  13  14
ENDBRANCH  12  13
ENDBRANCH  11  12
ENDBRANCH   9  11
ENDBRANCH   4   7
BRANCH   1  23
ATOM     23  C   UNL     1       0.220  10.830  19.851  0.00  0.00    +0.000 C 
BRANCH  23  24
ATOM     24  C   UNL     1      -0.970  10.837  18.815  0.00  0.00    +0.000 A 
ATOM     25  C   UNL     1      -1.315  11.944  18.030  0.00  0.00    +0.000 A 
ATOM     26  C   UNL     1      -2.341  11.868  17.088  0.00  0.00    +0.000 A 
ATOM     27  C   UNL     1      -3.057  10.693  16.963  0.00  0.00    +0.000 A 
ATOM     28  C   UNL     1      -2.718   9.648  17.799  0.00  0.00    +0.000 A 
ATOM     29  N   UNL     1      -1.710   9.691  18.705  0.00  0.00    +0.000 NA
ENDBRANCH  23  24
BRANCH  23  30
ATOM     30  C   UNL     1       1.241  12.026  19.774  0.00  0.00    +0.000 A 
ATOM     31  C   UNL     1       1.695  12.502  18.537  0.00  0.00    +0.000 A 
ATOM     32  C   UNL     1       2.691  13.477  18.497  0.00  0.00    +0.000 A 
ATOM     33  C   UNL     1       3.188  14.000  19.683  0.00  0.00    +0.000 A 
ATOM     34  C   UNL     1       2.631  13.561  20.863  0.00  0.00    +0.000 A 
ATOM     35  N   UNL     1       1.664  12.626  20.923  0.00  0.00    +0.000 NA
ENDBRANCH  23  30
BRANCH  23  36
ATOM     36  O   UNL     1      -0.347  10.821  21.214  0.00  0.00    +0.000 OA
BRANCH  36  38
ATOM     37  C   UNL     1      -1.387  12.201  22.887  0.00  0.00    +0.000 C 
ATOM     38  C   UNL     1      -1.420  11.740  21.440  0.00  0.00    +0.000 C 
ENDBRANCH  36  38
ENDBRANCH  23  36
ENDBRANCH   1  23
TORSDOF 14
ENDMDL
