MODEL 1
REMARK VINA RESULT:      -7.8      0.000      0.000
REMARK  Name = 
REMARK  9 active torsions:
REMARK  status: ('A' for Active; 'I' for Inactive)
REMARK    1  A    between atoms: C_1  and  C_2
REMARK    2  A    between atoms: C_2  and  C_3
REMARK    3  A    between atoms: C_2  and  C_4
REMARK    4  A    between atoms: C_4  and  O_5
REMARK    5  A    between atoms: O_5  and  C_6
REMARK    6  A    between atoms: C_10  and  N_11
REMARK    7  A    between atoms: N_11  and  C_12
REMARK    8  A    between atoms: C_12  and  C_13
REMARK    9  A    between atoms: C_13  and  N_14
REMARK                            x       y       z     vdW  Elec       q    Type
REMARK                         _______ _______ _______ _____ _____    ______ ____
ROOT
ATOM      1  N   UNL     1       4.873   3.435  18.187  0.00  0.00    +0.000 N 
ATOM      2  H   UNL     1       4.456   4.216  18.692  0.00  0.00    +0.000 HD
ENDROOT
BRANCH   1   7
ATOM      3  C   UNL     1       5.822   4.319  14.855  0.00  0.00    +0.000 A 
ATOM      4  C   UNL     1       7.080   4.863  15.059  0.00  0.00    +0.000 A 
ATOM      5  N   UNL     1       7.617   5.000  16.294  0.00  0.00    +0.000 NA
ATOM      6  C   UNL     1       6.836   4.535  17.301  0.00  0.00    +0.000 A 
ATOM      7  C   UNL     1       5.594   3.924  17.100  0.00  0.00    +0.000 A 
ATOM      8  N   UNL     1       5.075   3.826  15.865  0.00  0.00    +0.000 NA
BRANCH   3   9
ATOM      9  O   UNL     1       5.320   4.262  13.574  0.00  0.00    +0.000 OA
BRANCH   9  10
ATOM     10  C   UNL     1       6.199   3.531  12.706  0.00  0.00    +0.000 C 
BRANCH  10  12
ATOM     11  C   UNL     1       4.302   3.095  11.119  0.00  0.00    +0.000 C 
ATOM     12  C   UNL     1       5.409   2.453  11.954  0.00  0.00    +0.000 C 
ATOM     13  C   UNL     1       6.319   1.602  11.069  0.00  0.00    +0.000 C 
ENDBRANCH  10  12
ENDBRANCH   9  10
ENDBRANCH   3   9
ENDBRANCH   1   7
BRANCH   1  14
ATOM     14  C   UNL     1       3.883   2.400  17.875  0.00  0.00    +0.000 C 
BRANCH  14  15
ATOM     15  C   UNL     1       2.476   3.017  17.886  0.00  0.00    +0.000 C 
BRANCH  15  16
ATOM     16  N   UNL     1       2.232   3.899  19.010  0.00  0.00    +0.000 N 
ATOM     17  C   UNL     1       1.901   3.453  20.288  0.00  0.00    +0.000 C 
ATOM     18  O   UNL     1       1.761   2.290  20.647  0.00  0.00    +0.000 OA
ATOM     19  C   UNL     1       1.740   4.686  21.180  0.00  0.00    +0.000 C 
ATOM     20  C   UNL     1       1.953   5.811  20.215  0.00  0.00    +0.000 A 
ATOM     21  C   UNL     1       1.886   7.176  20.435  0.00  0.00    +0.000 A 
ATOM     22  C   UNL     1       2.096   8.026  19.347  0.00  0.00    +0.000 A 
ATOM     23  C   UNL     1       2.370   7.509  18.071  0.00  0.00    +0.000 A 
ATOM     24  C   UNL     1       2.455   6.129  17.867  0.00  0.00    +0.000 A 
ATOM     25  C   UNL     1       2.240   5.297  18.951  0.00  0.00    +0.000 A 
ENDBRANCH  15  16
ENDBRANCH  14  15
ENDBRANCH   1  14
TORSDOF 7
ENDMDL
MODEL 2
REMARK VINA RESULT:      -7.7      1.105      1.426
REMARK  Name = 
REMARK  9 active torsions:
REMARK  status: ('A' for Active; 'I' for Inactive)
REMARK    1  A    between atoms: C_1  and  C_2
REMARK    2  A    between atoms: C_2  and  C_3
REMARK    3  A    between atoms: C_2  and  C_4
REMARK    4  A    between atoms: C_4  and  O_5
REMARK    5  A    between atoms: O_5  and  C_6
REMARK    6  A    between atoms: C_10  and  N_11
REMARK    7  A    between atoms: N_11  and  C_12
REMARK    8  A    between atoms: C_12  and  C_13
REMARK    9  A    between atoms: C_13  and  N_14
REMARK                            x       y       z     vdW  Elec       q    Type
REMARK                         _______ _______ _______ _____ _____    ______ ____
ROOT
ATOM      1  N   UNL     1       5.221   3.310  18.779  0.00  0.00    +0.000 N 
ATOM      2  H   UNL     1       4.770   3.706  19.603  0.00  0.00    +0.000 HD
ENDROOT
BRANCH   1   7
ATOM      3  C   UNL     1       6.608   5.284  16.139  0.00  0.00    +0.000 A 
ATOM      4  C   UNL     1       7.213   6.309  16.847  0.00  0.00    +0.000 A 
ATOM      5  N   UNL     1       7.133   6.403  18.195  0.00  0.00    +0.000 NA
ATOM      6  C   UNL     1       6.441   5.399  18.788  0.00  0.00    +0.000 A 
ATOM      7  C   UNL     1       5.882   4.324  18.089  0.00  0.00    +0.000 A 
ATOM      8  N   UNL     1       5.955   4.272  16.748  0.00  0.00    +0.000 NA
BRANCH   3   9
ATOM      9  O   UNL     1       6.687   5.285  14.765  0.00  0.00    +0.000 OA
BRANCH   9  10
ATOM     10  C   UNL     1       5.788   4.323  14.193  0.00  0.00    +0.000 C 
BRANCH  10  12
ATOM     11  C   UNL     1       5.313   3.329  11.937  0.00  0.00    +0.000 C 
ATOM     12  C   UNL     1       6.409   3.716  12.929  0.00  0.00    +0.000 C 
ATOM     13  C   UNL     1       7.406   4.672  12.276  0.00  0.00    +0.000 C 
ENDBRANCH  10  12
ENDBRANCH   9  10
ENDBRANCH   3   9
ENDBRANCH   1   7
BRANCH   1  14
ATOM     14  C   UNL     1       4.290   2.507  17.983  0.00  0.00    +0.000 C 
BRANCH  14  15
ATOM     15  C   UNL     1       3.035   3.337  17.669  0.00  0.00    +0.000 C 
BRANCH  15  16
ATOM     16  N   UNL     1       2.448   3.974  18.831  0.00  0.00    +0.000 N 
ATOM     17  C   UNL     1       1.843   3.276  19.874  0.00  0.00    +0.000 C 
ATOM     18  O   UNL     1       1.710   2.061  19.966  0.00  0.00    +0.000 OA
ATOM     19  C   UNL     1       1.366   4.304  20.902  0.00  0.00    +0.000 C 
ATOM     20  C   UNL     1       1.725   5.603  20.248  0.00  0.00    +0.000 A 
ATOM     21  C   UNL     1       1.497   6.895  20.688  0.00  0.00    +0.000 A 
ATOM     22  C   UNL     1       1.905   7.949  19.866  0.00  0.00    +0.000 A 
ATOM     23  C   UNL     1       2.530   7.700  18.634  0.00  0.00    +0.000 A 
ATOM     24  C   UNL     1       2.773   6.390  18.212  0.00  0.00    +0.000 A 
ATOM     25  C   UNL     1       2.360   5.356  19.031  0.00  0.00    +0.000 A 
ENDBRANCH  15  16
ENDBRANCH  14  15
ENDBRANCH   1  14
TORSDOF 7
ENDMDL
MODEL 3
REMARK VINA RESULT:      -7.5      3.283      7.930
REMARK  Name = 
REMARK  9 active torsions:
REMARK  status: ('A' for Active; 'I' for Inactive)
REMARK    1  A    between atoms: C_1  and  C_2
REMARK    2  A    between atoms: C_2  and  C_3
REMARK    3  A    between atoms: C_2  and  C_4
REMARK    4  A    between atoms: C_4  and  O_5
REMARK    5  A    between atoms: O_5  and  C_6
REMARK    6  A    between atoms: C_10  and  N_11
REMARK    7  A    between atoms: N_11  and  C_12
REMARK    8  A    between atoms: C_12  and  C_13
REMARK    9  A    between atoms: C_13  and  N_14
REMARK                            x       y       z     vdW  Elec       q    Type
REMARK                         _______ _______ _______ _____ _____    ______ ____
ROOT
ATOM      1  N   UNL     1       2.615   6.399  20.311  0.00  0.00    +0.000 N 
ATOM      2  H   UNL     1       2.522   6.611  21.304  0.00  0.00    +0.000 HD
ENDROOT
BRANCH   1   7
ATOM      3  C   UNL     1       1.066   9.477  19.356  0.00  0.00    +0.000 A 
ATOM      4  C   UNL     1       1.472   9.595  18.036  0.00  0.00    +0.000 A 
ATOM      5  N   UNL     1       2.303   8.699  17.453  0.00  0.00    +0.000 NA
ATOM      6  C   UNL     1       2.674   7.671  18.255  0.00  0.00    +0.000 A 
ATOM      7  C   UNL     1       2.217   7.507  19.567  0.00  0.00    +0.000 A 
ATOM      8  N   UNL     1       1.414   8.427  20.128  0.00  0.00    +0.000 NA
BRANCH   3   9
ATOM      9  O   UNL     1       0.264  10.456  19.896  0.00  0.00    +0.000 OA
BRANCH   9  10
ATOM     10  C   UNL     1       0.648  10.753  21.247  0.00  0.00    +0.000 C 
BRANCH  10  12
ATOM     11  C   UNL     1      -0.135   9.539  23.300  0.00  0.00    +0.000 C 
ATOM     12  C   UNL     1      -0.536  10.511  22.190  0.00  0.00    +0.000 C 
ATOM     13  C   UNL     1      -1.059  11.816  22.787  0.00  0.00    +0.000 C 
ENDBRANCH  10  12
ENDBRANCH   9  10
ENDBRANCH   3   9
ENDBRANCH   1   7
BRANCH   1  14
ATOM     14  C   UNL     1       1.958   5.135  19.963  0.00  0.00    +0.000 C 
BRANCH  14  15
ATOM     15  C   UNL     1       3.021   4.043  19.764  0.00  0.00    +0.000 C 
BRANCH  15  16
ATOM     16  N   UNL     1       3.774   4.177  18.533  0.00  0.00    +0.000 N 
ATOM     17  C   UNL     1       3.323   3.725  17.294  0.00  0.00    +0.000 C 
ATOM     18  O   UNL     1       2.263   3.157  17.061  0.00  0.00    +0.000 OA
ATOM     19  C   UNL     1       4.398   4.065  16.259  0.00  0.00    +0.000 C 
ATOM     20  C   UNL     1       5.475   4.674  17.102  0.00  0.00    +0.000 A 
ATOM     21  C   UNL     1       6.722   5.139  16.724  0.00  0.00    +0.000 A 
ATOM     22  C   UNL     1       7.566   5.637  17.721  0.00  0.00    +0.000 A 
ATOM     23  C   UNL     1       7.155   5.668  19.063  0.00  0.00    +0.000 A 
ATOM     24  C   UNL     1       5.884   5.214  19.427  0.00  0.00    +0.000 A 
ATOM     25  C   UNL     1       5.061   4.718  18.433  0.00  0.00    +0.000 A 
ENDBRANCH  15  16
ENDBRANCH  14  15
ENDBRANCH   1  14
TORSDOF 7
ENDMDL
MODEL 4
REMARK VINA RESULT:      -7.5      1.669      3.030
REMARK  Name = 
REMARK  9 active torsions:
REMARK  status: ('A' for Active; 'I' for Inactive)
REMARK    1  A    between atoms: C_1  and  C_2
REMARK    2  A    between atoms: C_2  and  C_3
REMARK    3  A    between atoms: C_2  and  C_4
REMARK    4  A    between atoms: C_4  and  O_5
REMARK    5  A    between atoms: O_5  and  C_6
REMARK    6  A    between atoms: C_10  and  N_11
REMARK    7  A    between atoms: N_11  and  C_12
REMARK    8  A    between atoms: C_12  and  C_13
REMARK    9  A    between atoms: C_13  and  N_14
REMARK                            x       y       z     vdW  Elec       q    Type
REMARK                         _______ _______ _______ _____ _____    ______ ____
ROOT
ATOM      1  N   UNL     1       4.456   7.196  16.610  0.00  0.00    +0.000 N 
ATOM      2  H   UNL     1       3.658   7.046  15.995  0.00  0.00    +0.000 HD
ENDROOT
BRANCH   1   7
ATOM      3  C   UNL     1       6.516   4.888  14.818  0.00  0.00    +0.000 A 
ATOM      4  C   UNL     1       7.395   4.474  15.807  0.00  0.00    +0.000 A 
ATOM      5  N   UNL     1       7.364   4.982  17.061  0.00  0.00    +0.000 NA
ATOM      6  C   UNL     1       6.388   5.900  17.271  0.00  0.00    +0.000 A 
ATOM      7  C   UNL     1       5.455   6.276  16.300  0.00  0.00    +0.000 A 
ATOM      8  N   UNL     1       5.527   5.774  15.056  0.00  0.00    +0.000 NA
BRANCH   3   9
ATOM      9  O   UNL     1       6.644   4.365  13.551  0.00  0.00    +0.000 OA
BRANCH   9  10
ATOM     10  C   UNL     1       5.637   3.375  13.295  0.00  0.00    +0.000 C 
BRANCH  10  12
ATOM     11  C   UNL     1       5.996   1.753  11.413  0.00  0.00    +0.000 C 
ATOM     12  C   UNL     1       5.500   3.150  11.785  0.00  0.00    +0.000 C 
ATOM     13  C   UNL     1       4.060   3.348  11.314  0.00  0.00    +0.000 C 
ENDBRANCH  10  12
ENDBRANCH   9  10
ENDBRANCH   3   9
ENDBRANCH   1   7
BRANCH   1  14
ATOM     14  C   UNL     1       4.054   7.241  18.019  0.00  0.00    +0.000 C 
BRANCH  14  15
ATOM     15  C   UNL     1       2.546   6.965  18.130  0.00  0.00    +0.000 C 
BRANCH  15  16
ATOM     16  N   UNL     1       2.216   5.865  19.014  0.00  0.00    +0.000 N 
ATOM     17  C   UNL     1       1.778   6.029  20.326  0.00  0.00    +0.000 C 
ATOM     18  O   UNL     1       1.618   7.088  20.921  0.00  0.00    +0.000 OA
ATOM     19  C   UNL     1       1.528   4.635  20.907  0.00  0.00    +0.000 C 
ATOM     20  C   UNL     1       1.949   3.738  19.783  0.00  0.00    +0.000 A 
ATOM     21  C   UNL     1       1.988   2.356  19.737  0.00  0.00    +0.000 A 
ATOM     22  C   UNL     1       2.457   1.753  18.567  0.00  0.00    +0.000 A 
ATOM     23  C   UNL     1       2.871   2.529  17.473  0.00  0.00    +0.000 A 
ATOM     24  C   UNL     1       2.805   3.924  17.526  0.00  0.00    +0.000 A 
ATOM     25  C   UNL     1       2.344   4.509  18.691  0.00  0.00    +0.000 A 
ENDBRANCH  15  16
ENDBRANCH  14  15
ENDBRANCH   1  14
TORSDOF 7
ENDMDL
MODEL 5
REMARK VINA RESULT:      -7.3      1.745      3.114
REMARK  Name = 
REMARK  9 active torsions:
REMARK  status: ('A' for Active; 'I' for Inactive)
REMARK    1  A    between atoms: C_1  and  C_2
REMARK    2  A    between atoms: C_2  and  C_3
REMARK    3  A    between atoms: C_2  and  C_4
REMARK    4  A    between atoms: C_4  and  O_5
REMARK    5  A    between atoms: O_5  and  C_6
REMARK    6  A    between atoms: C_10  and  N_11
REMARK    7  A    between atoms: N_11  and  C_12
REMARK    8  A    between atoms: C_12  and  C_13
REMARK    9  A    between atoms: C_13  and  N_14
REMARK                            x       y       z     vdW  Elec       q    Type
REMARK                         _______ _______ _______ _____ _____    ______ ____
ROOT
ATOM      1  N   UNL     1       4.381   7.452  16.796  0.00  0.00    +0.000 N 
ATOM      2  H   UNL     1       3.780   7.343  15.979  0.00  0.00    +0.000 HD
ENDROOT
BRANCH   1   7
ATOM      3  C   UNL     1       6.382   4.659  15.805  0.00  0.00    +0.000 A 
ATOM      4  C   UNL     1       7.181   4.480  16.923  0.00  0.00    +0.000 A 
ATOM      5  N   UNL     1       7.118   5.301  17.997  0.00  0.00    +0.000 NA
ATOM      6  C   UNL     1       6.191   6.286  17.897  0.00  0.00    +0.000 A 
ATOM      7  C   UNL     1       5.334   6.436  16.801  0.00  0.00    +0.000 A 
ATOM      8  N   UNL     1       5.439   5.621  15.738  0.00  0.00    +0.000 NA
BRANCH   3   9
ATOM      9  O   UNL     1       6.542   3.816  14.729  0.00  0.00    +0.000 OA
BRANCH   9  10
ATOM     10  C   UNL     1       5.545   4.062  13.726  0.00  0.00    +0.000 C 
BRANCH  10  12
ATOM     11  C   UNL     1       4.649   3.174  11.555  0.00  0.00    +0.000 C 
ATOM     12  C   UNL     1       5.882   3.275  12.453  0.00  0.00    +0.000 C 
ATOM     13  C   UNL     1       7.046   3.906  11.692  0.00  0.00    +0.000 C 
ENDBRANCH  10  12
ENDBRANCH   9  10
ENDBRANCH   3   9
ENDBRANCH   1   7
BRANCH   1  14
ATOM     14  C   UNL     1       3.600   7.592  18.028  0.00  0.00    +0.000 C 
BRANCH  14  15
ATOM     15  C   UNL     1       2.350   6.701  17.948  0.00  0.00    +0.000 C 
BRANCH  15  16
ATOM     16  N   UNL     1       2.318   5.648  18.944  0.00  0.00    +0.000 N 
ATOM     17  C   UNL     1       1.967   5.853  20.277  0.00  0.00    +0.000 C 
ATOM     18  O   UNL     1       1.651   6.916  20.799  0.00  0.00    +0.000 OA
ATOM     19  C   UNL     1       2.045   4.500  20.988  0.00  0.00    +0.000 C 
ATOM     20  C   UNL     1       2.539   3.594  19.902  0.00  0.00    +0.000 A 
ATOM     21  C   UNL     1       2.846   2.246  19.960  0.00  0.00    +0.000 A 
ATOM     22  C   UNL     1       3.325   1.632  18.801  0.00  0.00    +0.000 A 
ATOM     23  C   UNL     1       3.486   2.363  17.613  0.00  0.00    +0.000 A 
ATOM     24  C   UNL     1       3.152   3.719  17.562  0.00  0.00    +0.000 A 
ATOM     25  C   UNL     1       2.683   4.317  18.718  0.00  0.00    +0.000 A 
ENDBRANCH  15  16
ENDBRANCH  14  15
ENDBRANCH   1  14
TORSDOF 7
ENDMDL
MODEL 6
REMARK VINA RESULT:      -7.2      1.909      2.694
REMARK  Name = 
REMARK  9 active torsions:
REMARK  status: ('A' for Active; 'I' for Inactive)
REMARK    1  A    between atoms: C_1  and  C_2
REMARK    2  A    between atoms: C_2  and  C_3
REMARK    3  A    between atoms: C_2  and  C_4
REMARK    4  A    between atoms: C_4  and  O_5
REMARK    5  A    between atoms: O_5  and  C_6
REMARK    6  A    between atoms: C_10  and  N_11
REMARK    7  A    between atoms: N_11  and  C_12
REMARK    8  A    between atoms: C_12  and  C_13
REMARK    9  A    between atoms: C_13  and  N_14
REMARK                            x       y       z     vdW  Elec       q    Type
REMARK                         _______ _______ _______ _____ _____    ______ ____
ROOT
ATOM      1  N   UNL     1       5.371   4.019  18.461  0.00  0.00    +0.000 N 
ATOM      2  H   UNL     1       6.086   3.496  18.965  0.00  0.00    +0.000 HD
ENDROOT
BRANCH   1   7
ATOM      3  C   UNL     1       5.808   4.450  14.938  0.00  0.00    +0.000 A 
ATOM      4  C   UNL     1       6.963   5.214  14.892  0.00  0.00    +0.000 A 
ATOM      5  N   UNL     1       7.587   5.648  16.012  0.00  0.00    +0.000 NA
ATOM      6  C   UNL     1       7.007   5.247  17.171  0.00  0.00    +0.000 A 
ATOM      7  C   UNL     1       5.880   4.420  17.228  0.00  0.00    +0.000 A 
ATOM      8  N   UNL     1       5.266   4.027  16.099  0.00  0.00    +0.000 NA
BRANCH   3   9
ATOM      9  O   UNL     1       5.199   4.091  13.757  0.00  0.00    +0.000 OA
BRANCH   9  10
ATOM     10  C   UNL     1       6.151   3.559  12.824  0.00  0.00    +0.000 C 
BRANCH  10  12
ATOM     11  C   UNL     1       4.320   2.998  11.199  0.00  0.00    +0.000 C 
ATOM     12  C   UNL     1       5.501   2.444  11.996  0.00  0.00    +0.000 C 
ATOM     13  C   UNL     1       6.508   1.775  11.062  0.00  0.00    +0.000 C 
ENDBRANCH  10  12
ENDBRANCH   9  10
ENDBRANCH   3   9
ENDBRANCH   1   7
BRANCH   1  14
ATOM     14  C   UNL     1       4.798   5.087  19.285  0.00  0.00    +0.000 C 
BRANCH  14  15
ATOM     15  C   UNL     1       3.299   5.225  18.977  0.00  0.00    +0.000 C 
BRANCH  15  16
ATOM     16  N   UNL     1       2.873   6.590  18.739  0.00  0.00    +0.000 N 
ATOM     17  C   UNL     1       3.280   7.349  17.644  0.00  0.00    +0.000 C 
ATOM     18  O   UNL     1       4.040   6.999  16.748  0.00  0.00    +0.000 OA
ATOM     19  C   UNL     1       2.604   8.718  17.755  0.00  0.00    +0.000 C 
ATOM     20  C   UNL     1       1.865   8.607  19.053  0.00  0.00    +0.000 A 
ATOM     21  C   UNL     1       1.100   9.558  19.706  0.00  0.00    +0.000 A 
ATOM     22  C   UNL     1       0.537   9.212  20.937  0.00  0.00    +0.000 A 
ATOM     23  C   UNL     1       0.739   7.937  21.489  0.00  0.00    +0.000 A 
ATOM     24  C   UNL     1       1.497   6.981  20.809  0.00  0.00    +0.000 A 
ATOM     25  C   UNL     1       2.054   7.336  19.594  0.00  0.00    +0.000 A 
ENDBRANCH  15  16
ENDBRANCH  14  15
ENDBRANCH   1  14
TORSDOF 7
ENDMDL
MODEL 7
REMARK VINA RESULT:      -7.2      1.847      3.047
REMARK  Name = 
REMARK  9 active torsions:
REMARK  status: ('A' for Active; 'I' for Inactive)
REMARK    1  A    between atoms: C_1  and  C_2
REMARK    2  A    between atoms: C_2  and  C_3
REMARK    3  A    between atoms: C_2  and  C_4
REMARK    4  A    between atoms: C_4  and  O_5
REMARK    5  A    between atoms: O_5  and  C_6
REMARK    6  A    between atoms: C_10  and  N_11
REMARK    7  A    between atoms: N_11  and  C_12
REMARK    8  A    between atoms: C_12  and  C_13
REMARK    9  A    between atoms: C_13  and  N_14
REMARK                            x       y       z     vdW  Elec       q    Type
REMARK                         _______ _______ _______ _____ _____    ______ ____
ROOT
ATOM      1  N   UNL     1       3.702   3.571  18.662  0.00  0.00    +0.000 N 
ATOM      2  H   UNL     1       4.102   3.223  19.532  0.00  0.00    +0.000 HD
ENDROOT
BRANCH   1   7
ATOM      3  C   UNL     1       5.560   4.392  15.719  0.00  0.00    +0.000 A 
ATOM      4  C   UNL     1       6.793   4.728  16.253  0.00  0.00    +0.000 A 
ATOM      5  N   UNL     1       7.023   4.744  17.587  0.00  0.00    +0.000 NA
ATOM      6  C   UNL     1       5.960   4.378  18.345  0.00  0.00    +0.000 A 
ATOM      7  C   UNL     1       4.731   3.973  17.813  0.00  0.00    +0.000 A 
ATOM      8  N   UNL     1       4.524   3.992  16.486  0.00  0.00    +0.000 NA
BRANCH   3   9
ATOM      9  O   UNL     1       5.386   4.450  14.354  0.00  0.00    +0.000 OA
BRANCH   9  10
ATOM     10  C   UNL     1       6.416   3.721  13.670  0.00  0.00    +0.000 C 
BRANCH  10  12
ATOM     11  C   UNL     1       7.002   2.613  11.494  0.00  0.00    +0.000 C 
ATOM     12  C   UNL     1       6.080   3.622  12.177  0.00  0.00    +0.000 C 
ATOM     13  C   UNL     1       4.617   3.246  11.952  0.00  0.00    +0.000 C 
ENDBRANCH  10  12
ENDBRANCH   9  10
ENDBRANCH   3   9
ENDBRANCH   1   7
BRANCH   1  14
ATOM     14  C   UNL     1       2.657   4.569  18.906  0.00  0.00    +0.000 C 
BRANCH  14  15
ATOM     15  C   UNL     1       3.279   5.812  19.561  0.00  0.00    +0.000 C 
BRANCH  15  16
ATOM     16  N   UNL     1       2.726   7.064  19.083  0.00  0.00    +0.000 N 
ATOM     17  C   UNL     1       3.078   7.655  17.871  0.00  0.00    +0.000 C 
ATOM     18  O   UNL     1       3.886   7.230  17.054  0.00  0.00    +0.000 OA
ATOM     19  C   UNL     1       2.270   8.947  17.735  0.00  0.00    +0.000 C 
ATOM     20  C   UNL     1       1.519   8.995  19.031  0.00  0.00    +0.000 A 
ATOM     21  C   UNL     1       0.652   9.964  19.502  0.00  0.00    +0.000 A 
ATOM     22  C   UNL     1       0.100   9.787  20.774  0.00  0.00    +0.000 A 
ATOM     23  C   UNL     1       0.416   8.657  21.544  0.00  0.00    +0.000 A 
ATOM     24  C   UNL     1       1.277   7.676  21.047  0.00  0.00    +0.000 A 
ATOM     25  C   UNL     1       1.821   7.865  19.789  0.00  0.00    +0.000 A 
ENDBRANCH  15  16
ENDBRANCH  14  15
ENDBRANCH   1  14
TORSDOF 7
ENDMDL
MODEL 8
REMARK VINA RESULT:      -7.0      3.910      6.063
REMARK  Name = 
REMARK  9 active torsions:
REMARK  status: ('A' for Active; 'I' for Inactive)
REMARK    1  A    between atoms: C_1  and  C_2
REMARK    2  A    between atoms: C_2  and  C_3
REMARK    3  A    between atoms: C_2  and  C_4
REMARK    4  A    between atoms: C_4  and  O_5
REMARK    5  A    between atoms: O_5  and  C_6
REMARK    6  A    between atoms: C_10  and  N_11
REMARK    7  A    between atoms: N_11  and  C_12
REMARK    8  A    between atoms: C_12  and  C_13
REMARK    9  A    between atoms: C_13  and  N_14
REMARK                            x       y       z     vdW  Elec       q    Type
REMARK                         _______ _______ _______ _____ _____    ______ ____
ROOT
ATOM      1  N   UNL     1       5.644   5.779  16.231  0.00  0.00    +0.000 N 
ATOM      2  H   UNL     1       6.044   5.805  15.294  0.00  0.00    +0.000 HD
ENDROOT
BRANCH   1   7
ATOM      3  C   UNL     1       7.874   8.004  17.923  0.00  0.00    +0.000 A 
ATOM      4  C   UNL     1       8.387   7.183  18.914  0.00  0.00    +0.000 A 
ATOM      5  N   UNL     1       7.973   5.905  19.080  0.00  0.00    +0.000 NA
ATOM      6  C   UNL     1       7.044   5.493  18.182  0.00  0.00    +0.000 A 
ATOM      7  C   UNL     1       6.569   6.293  17.137  0.00  0.00    +0.000 A 
ATOM      8  N   UNL     1       6.978   7.566  17.013  0.00  0.00    +0.000 NA
BRANCH   3   9
ATOM      9  O   UNL     1       8.304   9.309  17.850  0.00  0.00    +0.000 OA
BRANCH   9  10
ATOM     10  C   UNL     1       9.151   9.639  18.961  0.00  0.00    +0.000 C 
BRANCH  10  12
ATOM     11  C   UNL     1      10.270  11.554  20.137  0.00  0.00    +0.000 C 
ATOM     12  C   UNL     1       9.131  11.153  19.200  0.00  0.00    +0.000 C 
ATOM     13  C   UNL     1       9.219  11.932  17.890  0.00  0.00    +0.000 C 
ENDBRANCH  10  12
ENDBRANCH   9  10
ENDBRANCH   3   9
ENDBRANCH   1   7
BRANCH   1  14
ATOM     14  C   UNL     1       5.110   4.453  16.556  0.00  0.00    +0.000 C 
BRANCH  14  15
ATOM     15  C   UNL     1       3.580   4.533  16.682  0.00  0.00    +0.000 C 
BRANCH  15  16
ATOM     16  N   UNL     1       3.124   5.011  17.972  0.00  0.00    +0.000 N 
ATOM     17  C   UNL     1       3.067   6.358  18.324  0.00  0.00    +0.000 C 
ATOM     18  O   UNL     1       3.391   7.314  17.629  0.00  0.00    +0.000 OA
ATOM     19  C   UNL     1       2.523   6.439  19.752  0.00  0.00    +0.000 C 
ATOM     20  C   UNL     1       2.372   4.996  20.122  0.00  0.00    +0.000 A 
ATOM     21  C   UNL     1       1.958   4.439  21.318  0.00  0.00    +0.000 A 
ATOM     22  C   UNL     1       1.935   3.045  21.420  0.00  0.00    +0.000 A 
ATOM     23  C   UNL     1       2.317   2.238  20.337  0.00  0.00    +0.000 A 
ATOM     24  C   UNL     1       2.714   2.814  19.127  0.00  0.00    +0.000 A 
ATOM     25  C   UNL     1       2.737   4.194  19.041  0.00  0.00    +0.000 A 
ENDBRANCH  15  16
ENDBRANCH  14  15
ENDBRANCH   1  14
TORSDOF 7
ENDMDL
MODEL 9
REMARK VINA RESULT:      -7.0      3.753      7.772
REMARK  Name = 
REMARK  9 active torsions:
REMARK  status: ('A' for Active; 'I' for Inactive)
REMARK    1  A    between atoms: C_1  and  C_2
REMARK    2  A    between atoms: C_2  and  C_3
REMARK    3  A    between atoms: C_2  and  C_4
REMARK    4  A    between atoms: C_4  and  O_5
REMARK    5  A    between atoms: O_5  and  C_6
REMARK    6  A    between atoms: C_10  and  N_11
REMARK    7  A    between atoms: N_11  and  C_12
REMARK    8  A    between atoms: C_12  and  C_13
REMARK    9  A    between atoms: C_13  and  N_14
REMARK                            x       y       z     vdW  Elec       q    Type
REMARK                         _______ _______ _______ _____ _____    ______ ____
ROOT
ATOM      1  N   UNL     1       2.136   7.172  20.259  0.00  0.00    +0.000 N 
ATOM      2  H   UNL     1       3.116   7.196  20.541  0.00  0.00    +0.000 HD
ENDROOT
BRANCH   1   7
ATOM      3  C   UNL     1       0.437  10.314  20.086  0.00  0.00    +0.000 A 
ATOM      4  C   UNL     1       0.401  10.684  21.421  0.00  0.00    +0.000 A 
ATOM      5  N   UNL     1       0.882   9.889  22.405  0.00  0.00    +0.000 NA
ATOM      6  C   UNL     1       1.425   8.724  21.972  0.00  0.00    +0.000 A 
ATOM      7  C   UNL     1       1.526   8.371  20.623  0.00  0.00    +0.000 A 
ATOM      8  N   UNL     1       1.016   9.168  19.670  0.00  0.00    +0.000 NA
BRANCH   3   9
ATOM      9  O   UNL     1      -0.120  11.151  19.147  0.00  0.00    +0.000 OA
BRANCH   9  10
ATOM     10  C   UNL     1      -0.627  10.410  18.028  0.00  0.00    +0.000 C 
BRANCH  10  12
ATOM     11  C   UNL     1      -2.756  11.618  18.587  0.00  0.00    +0.000 C 
ATOM     12  C   UNL     1      -2.152  10.290  18.129  0.00  0.00    +0.000 C 
ATOM     13  C   UNL     1      -2.773   9.850  16.804  0.00  0.00    +0.000 C 
ENDBRANCH  10  12
ENDBRANCH   9  10
ENDBRANCH   3   9
ENDBRANCH   1   7
BRANCH   1  14
ATOM     14  C   UNL     1       1.467   5.955  20.726  0.00  0.00    +0.000 C 
BRANCH  14  15
ATOM     15  C   UNL     1       2.458   4.781  20.698  0.00  0.00    +0.000 C 
BRANCH  15  16
ATOM     16  N   UNL     1       2.773   4.314  19.362  0.00  0.00    +0.000 N 
ATOM     17  C   UNL     1       1.916   3.529  18.593  0.00  0.00    +0.000 C 
ATOM     18  O   UNL     1       0.807   3.119  18.916  0.00  0.00    +0.000 OA
ATOM     19  C   UNL     1       2.610   3.263  17.255  0.00  0.00    +0.000 C 
ATOM     20  C   UNL     1       3.937   3.931  17.442  0.00  0.00    +0.000 A 
ATOM     21  C   UNL     1       5.016   3.988  16.578  0.00  0.00    +0.000 A 
ATOM     22  C   UNL     1       6.166   4.655  17.008  0.00  0.00    +0.000 A 
ATOM     23  C   UNL     1       6.220   5.250  18.279  0.00  0.00    +0.000 A 
ATOM     24  C   UNL     1       5.115   5.203  19.133  0.00  0.00    +0.000 A 
ATOM     25  C   UNL     1       3.985   4.536  18.698  0.00  0.00    +0.000 A 
ENDBRANCH  15  16
ENDBRANCH  14  15
ENDBRANCH   1  14
TORSDOF 7
ENDMDL
