MODEL 1
REMARK VINA RESULT:      -9.3      0.000      0.000
REMARK  Name = 
REMARK  5 active torsions:
REMARK  status: ('A' for Active; 'I' for Inactive)
REMARK    1  A    between atoms: C_1  and  C_2
REMARK    2  A    between atoms: C_5  and  C_6
REMARK    3  A    between atoms: C_10  and  C_11
REMARK    4  A    between atoms: N_14  and  C_15
REMARK    5  A    between atoms: C_15  and  C_16
REMARK                            x       y       z     vdW  Elec       q    Type
REMARK                         _______ _______ _______ _____ _____    ______ ____
ROOT
ATOM      1  C   UNL     1       1.565   8.142  20.088  0.00  0.00    +0.000 A 
ATOM      2  C   UNL     1       1.186   8.664  21.356  0.00  0.00    +0.000 A 
ATOM      3  C   UNL     1       0.707   9.931  21.124  0.00  0.00    +0.000 A 
ATOM      4  N   UNL     1       0.789  10.129  19.775  0.00  0.00    +0.000 N 
ATOM      5  N   UNL     1       1.310   9.055  19.125  0.00  0.00    +0.000 NA
ENDROOT
BRANCH   1  10
ATOM      6  C   UNL     1       3.582   5.334  18.396  0.00  0.00    +0.000 A 
ATOM      7  C   UNL     1       3.266   4.280  19.270  0.00  0.00    +0.000 A 
ATOM      8  C   UNL     1       2.426   4.456  20.365  0.00  0.00    +0.000 A 
ATOM      9  C   UNL     1       1.874   5.716  20.626  0.00  0.00    +0.000 A 
ATOM     10  C   UNL     1       2.157   6.814  19.801  0.00  0.00    +0.000 A 
ATOM     11  C   UNL     1       3.022   6.600  18.700  0.00  0.00    +0.000 A 
BRANCH   6  16
ATOM     12  C   UNL     1       7.027   4.911  13.825  0.00  0.00    +0.000 C 
ATOM     13  C   UNL     1       6.121   4.942  15.016  0.00  0.00    +0.000 A 
ATOM     14  C   UNL     1       5.752   3.785  15.680  0.00  0.00    +0.000 A 
ATOM     15  C   UNL     1       4.912   3.885  16.793  0.00  0.00    +0.000 A 
ATOM     16  C   UNL     1       4.462   5.132  17.219  0.00  0.00    +0.000 A 
ATOM     17  N   UNL     1       4.837   6.237  16.535  0.00  0.00    +0.000 NA
ATOM     18  N   UNL     1       5.672   6.143  15.432  0.00  0.00    +0.000 NA
ENDBRANCH   6  16
ENDBRANCH   1  10
BRANCH   4  19
ATOM     19  C   UNL     1       0.296  11.301  19.036  0.00  0.00    +0.000 C 
BRANCH  19  20
ATOM     20  C   UNL     1      -1.163  11.240  18.619  0.00  0.00    +0.000 A 
ATOM     21  C   UNL     1      -1.592  10.376  17.622  0.00  0.00    +0.000 A 
ATOM     22  C   UNL     1      -2.929  10.366  17.258  0.00  0.00    +0.000 A 
ATOM     23  C   UNL     1      -3.852  11.110  17.984  0.00  0.00    +0.000 A 
ATOM     24  C   UNL     1      -5.223  10.981  17.697  0.00  0.00    +0.000 A 
ATOM     25  C   UNL     1      -6.172  11.579  18.515  0.00  0.00    +0.000 A 
ATOM     26  C   UNL     1      -5.748  12.357  19.582  0.00  0.00    +0.000 A 
ATOM     27  C   UNL     1      -4.373  12.545  19.812  0.00  0.00    +0.000 A 
ATOM     28  C   UNL     1      -3.388  11.916  19.041  0.00  0.00    +0.000 A 
ATOM     29  N   UNL     1      -2.057  12.018  19.316  0.00  0.00    +0.000 NA
ENDBRANCH  19  20
ENDBRANCH   4  19
TORSDOF 4
ENDMDL
MODEL 2
REMARK VINA RESULT:      -9.2      1.327      2.181
REMARK  Name = 
REMARK  5 active torsions:
REMARK  status: ('A' for Active; 'I' for Inactive)
REMARK    1  A    between atoms: C_1  and  C_2
REMARK    2  A    between atoms: C_5  and  C_6
REMARK    3  A    between atoms: C_10  and  C_11
REMARK    4  A    between atoms: N_14  and  C_15
REMARK    5  A    between atoms: C_15  and  C_16
REMARK                            x       y       z     vdW  Elec       q    Type
REMARK                         _______ _______ _______ _____ _____    ______ ____
ROOT
ATOM      1  C   UNL     1       2.214   6.974  19.347  0.00  0.00    +0.000 A 
ATOM      2  C   UNL     1       1.638   7.107  20.641  0.00  0.00    +0.000 A 
ATOM      3  C   UNL     1       1.269   8.425  20.765  0.00  0.00    +0.000 A 
ATOM      4  N   UNL     1       1.602   9.027  19.585  0.00  0.00    +0.000 N 
ATOM      5  N   UNL     1       2.181   8.164  18.708  0.00  0.00    +0.000 NA
ENDROOT
BRANCH   1  10
ATOM      6  C   UNL     1       4.283   4.649  17.081  0.00  0.00    +0.000 A 
ATOM      7  C   UNL     1       3.851   3.411  17.586  0.00  0.00    +0.000 A 
ATOM      8  C   UNL     1       2.919   3.318  18.615  0.00  0.00    +0.000 A 
ATOM      9  C   UNL     1       2.389   4.482  19.184  0.00  0.00    +0.000 A 
ATOM     10  C   UNL     1       2.785   5.750  18.736  0.00  0.00    +0.000 A 
ATOM     11  C   UNL     1       3.741   5.807  17.693  0.00  0.00    +0.000 A 
BRANCH   6  16
ATOM     12  C   UNL     1       8.284   5.184  13.002  0.00  0.00    +0.000 C 
ATOM     13  C   UNL     1       7.196   5.005  14.014  0.00  0.00    +0.000 A 
ATOM     14  C   UNL     1       6.115   4.173  13.780  0.00  0.00    +0.000 A 
ATOM     15  C   UNL     1       5.138   4.041  14.771  0.00  0.00    +0.000 A 
ATOM     16  C   UNL     1       5.262   4.739  15.970  0.00  0.00    +0.000 A 
ATOM     17  N   UNL     1       6.327   5.551  16.153  0.00  0.00    +0.000 NA
ATOM     18  N   UNL     1       7.299   5.684  15.174  0.00  0.00    +0.000 NA
ENDBRANCH   6  16
ENDBRANCH   1  10
BRANCH   4  19
ATOM     19  C   UNL     1       1.306  10.417  19.203  0.00  0.00    +0.000 C 
BRANCH  19  20
ATOM     20  C   UNL     1      -0.150  10.708  18.889  0.00  0.00    +0.000 A 
ATOM     21  C   UNL     1      -0.890  11.595  19.658  0.00  0.00    +0.000 A 
ATOM     22  C   UNL     1      -2.222  11.819  19.349  0.00  0.00    +0.000 A 
ATOM     23  C   UNL     1      -2.769  11.270  18.195  0.00  0.00    +0.000 A 
ATOM     24  C   UNL     1      -4.077  11.620  17.816  0.00  0.00    +0.000 A 
ATOM     25  C   UNL     1      -4.583  11.223  16.585  0.00  0.00    +0.000 A 
ATOM     26  C   UNL     1      -3.803  10.424  15.762  0.00  0.00    +0.000 A 
ATOM     27  C   UNL     1      -2.525  10.013  16.186  0.00  0.00    +0.000 A 
ATOM     28  C   UNL     1      -1.962  10.437  17.396  0.00  0.00    +0.000 A 
ATOM     29  N   UNL     1      -0.690  10.120  17.770  0.00  0.00    +0.000 NA
ENDBRANCH  19  20
ENDBRANCH   4  19
TORSDOF 4
ENDMDL
MODEL 3
REMARK VINA RESULT:      -9.1      0.890      1.606
REMARK  Name = 
REMARK  5 active torsions:
REMARK  status: ('A' for Active; 'I' for Inactive)
REMARK    1  A    between atoms: C_1  and  C_2
REMARK    2  A    between atoms: C_5  and  C_6
REMARK    3  A    between atoms: C_10  and  C_11
REMARK    4  A    between atoms: N_14  and  C_15
REMARK    5  A    between atoms: C_15  and  C_16
REMARK                            x       y       z     vdW  Elec       q    Type
REMARK                         _______ _______ _______ _____ _____    ______ ____
ROOT
ATOM      1  C   UNL     1       1.746   7.720  20.333  0.00  0.00    +0.000 A 
ATOM      2  C   UNL     1       1.266   8.068  21.626  0.00  0.00    +0.000 A 
ATOM      3  C   UNL     1       0.899   9.391  21.558  0.00  0.00    +0.000 A 
ATOM      4  N   UNL     1       1.140   9.788  20.274  0.00  0.00    +0.000 N 
ATOM      5  N   UNL     1       1.658   8.789  19.511  0.00  0.00    +0.000 NA
ENDROOT
BRANCH   1  10
ATOM      6  C   UNL     1       3.654   5.040  18.333  0.00  0.00    +0.000 A 
ATOM      7  C   UNL     1       3.272   3.905  19.069  0.00  0.00    +0.000 A 
ATOM      8  C   UNL     1       2.423   3.990  20.168  0.00  0.00    +0.000 A 
ATOM      9  C   UNL     1       1.928   5.234  20.575  0.00  0.00    +0.000 A 
ATOM     10  C   UNL     1       2.278   6.408  19.893  0.00  0.00    +0.000 A 
ATOM     11  C   UNL     1       3.150   6.287  18.783  0.00  0.00    +0.000 A 
BRANCH   6  16
ATOM     12  C   UNL     1       7.141   5.004  13.776  0.00  0.00    +0.000 C 
ATOM     13  C   UNL     1       6.223   4.935  14.956  0.00  0.00    +0.000 A 
ATOM     14  C   UNL     1       5.826   3.726  15.499  0.00  0.00    +0.000 A 
ATOM     15  C   UNL     1       4.975   3.731  16.608  0.00  0.00    +0.000 A 
ATOM     16  C   UNL     1       4.543   4.939  17.151  0.00  0.00    +0.000 A 
ATOM     17  N   UNL     1       4.945   6.098  16.582  0.00  0.00    +0.000 NA
ATOM     18  N   UNL     1       5.790   6.098  15.483  0.00  0.00    +0.000 NA
ENDBRANCH   6  16
ENDBRANCH   1  10
BRANCH   4  19
ATOM     19  C   UNL     1       0.808  11.097  19.690  0.00  0.00    +0.000 C 
BRANCH  19  20
ATOM     20  C   UNL     1      -0.645  11.280  19.289  0.00  0.00    +0.000 A 
ATOM     21  C   UNL     1      -1.505  12.072  20.036  0.00  0.00    +0.000 A 
ATOM     22  C   UNL     1      -2.828  12.197  19.645  0.00  0.00    +0.000 A 
ATOM     23  C   UNL     1      -3.251  11.651  18.439  0.00  0.00    +0.000 A 
ATOM     24  C   UNL     1      -4.557  11.906  17.984  0.00  0.00    +0.000 A 
ATOM     25  C   UNL     1      -4.948  11.518  16.710  0.00  0.00    +0.000 A 
ATOM     26  C   UNL     1      -4.051  10.819  15.915  0.00  0.00    +0.000 A 
ATOM     27  C   UNL     1      -2.773  10.499  16.410  0.00  0.00    +0.000 A 
ATOM     28  C   UNL     1      -2.327  10.919  17.669  0.00  0.00    +0.000 A 
ATOM     29  N   UNL     1      -1.059  10.694  18.116  0.00  0.00    +0.000 NA
ENDBRANCH  19  20
ENDBRANCH   4  19
TORSDOF 4
ENDMDL
MODEL 4
REMARK VINA RESULT:      -9.1      2.808     10.092
REMARK  Name = 
REMARK  5 active torsions:
REMARK  status: ('A' for Active; 'I' for Inactive)
REMARK    1  A    between atoms: C_1  and  C_2
REMARK    2  A    between atoms: C_5  and  C_6
REMARK    3  A    between atoms: C_10  and  C_11
REMARK    4  A    between atoms: N_14  and  C_15
REMARK    5  A    between atoms: C_15  and  C_16
REMARK                            x       y       z     vdW  Elec       q    Type
REMARK                         _______ _______ _______ _____ _____    ______ ____
ROOT
ATOM      1  C   UNL     1       2.445   6.429  19.680  0.00  0.00    +0.000 A 
ATOM      2  C   UNL     1       1.965   5.532  20.674  0.00  0.00    +0.000 A 
ATOM      3  C   UNL     1       2.713   4.386  20.555  0.00  0.00    +0.000 A 
ATOM      4  N   UNL     1       3.603   4.615  19.544  0.00  0.00    +0.000 N 
ATOM      5  N   UNL     1       3.457   5.851  18.996  0.00  0.00    +0.000 NA
ENDROOT
BRANCH   1  10
ATOM      6  C   UNL     1       0.632   9.808  20.022  0.00  0.00    +0.000 A 
ATOM      7  C   UNL     1       1.023  10.390  18.804  0.00  0.00    +0.000 A 
ATOM      8  C   UNL     1       1.836   9.721  17.894  0.00  0.00    +0.000 A 
ATOM      9  C   UNL     1       2.296   8.431  18.184  0.00  0.00    +0.000 A 
ATOM     10  C   UNL     1       1.953   7.796  19.386  0.00  0.00    +0.000 A 
ATOM     11  C   UNL     1       1.130   8.509  20.293  0.00  0.00    +0.000 A 
BRANCH   6  16
ATOM     12  C   UNL     1      -2.933  12.732  23.438  0.00  0.00    +0.000 C 
ATOM     13  C   UNL     1      -1.972  11.935  22.612  0.00  0.00    +0.000 A 
ATOM     14  C   UNL     1      -1.204  10.924  23.162  0.00  0.00    +0.000 A 
ATOM     15  C   UNL     1      -0.334  10.210  22.333  0.00  0.00    +0.000 A 
ATOM     16  C   UNL     1      -0.251  10.519  20.977  0.00  0.00    +0.000 A 
ATOM     17  N   UNL     1      -1.010  11.523  20.483  0.00  0.00    +0.000 NA
ATOM     18  N   UNL     1      -1.875  12.232  21.301  0.00  0.00    +0.000 NA
ENDBRANCH   6  16
ENDBRANCH   1  10
BRANCH   4  19
ATOM     19  C   UNL     1       4.685   3.716  19.117  0.00  0.00    +0.000 C 
BRANCH  19  20
ATOM     20  C   UNL     1       5.461   4.167  17.892  0.00  0.00    +0.000 A 
ATOM     21  C   UNL     1       6.659   4.857  18.011  0.00  0.00    +0.000 A 
ATOM     22  C   UNL     1       7.326   5.267  16.869  0.00  0.00    +0.000 A 
ATOM     23  C   UNL     1       6.871   4.867  15.617  0.00  0.00    +0.000 A 
ATOM     24  C   UNL     1       7.635   5.168  14.475  0.00  0.00    +0.000 A 
ATOM     25  C   UNL     1       7.293   4.635  13.240  0.00  0.00    +0.000 A 
ATOM     26  C   UNL     1       6.153   3.852  13.136  0.00  0.00    +0.000 A 
ATOM     27  C   UNL     1       5.352   3.623  14.270  0.00  0.00    +0.000 A 
ATOM     28  C   UNL     1       5.693   4.100  15.541  0.00  0.00    +0.000 A 
ATOM     29  N   UNL     1       4.972   3.803  16.660  0.00  0.00    +0.000 NA
ENDBRANCH  19  20
ENDBRANCH   4  19
TORSDOF 4
ENDMDL
MODEL 5
REMARK VINA RESULT:      -9.0      1.024      1.544
REMARK  Name = 
REMARK  5 active torsions:
REMARK  status: ('A' for Active; 'I' for Inactive)
REMARK    1  A    between atoms: C_1  and  C_2
REMARK    2  A    between atoms: C_5  and  C_6
REMARK    3  A    between atoms: C_10  and  C_11
REMARK    4  A    between atoms: N_14  and  C_15
REMARK    5  A    between atoms: C_15  and  C_16
REMARK                            x       y       z     vdW  Elec       q    Type
REMARK                         _______ _______ _______ _____ _____    ______ ____
ROOT
ATOM      1  C   UNL     1       2.288   6.851  19.469  0.00  0.00    +0.000 A 
ATOM      2  C   UNL     1       1.641   6.979  20.729  0.00  0.00    +0.000 A 
ATOM      3  C   UNL     1       1.224   8.285  20.818  0.00  0.00    +0.000 A 
ATOM      4  N   UNL     1       1.599   8.886  19.650  0.00  0.00    +0.000 N 
ATOM      5  N   UNL     1       2.250   8.034  18.816  0.00  0.00    +0.000 NA
ENDROOT
BRANCH   1  10
ATOM      6  C   UNL     1       4.417   4.557  17.228  0.00  0.00    +0.000 A 
ATOM      7  C   UNL     1       4.131   3.325  17.842  0.00  0.00    +0.000 A 
ATOM      8  C   UNL     1       3.277   3.227  18.936  0.00  0.00    +0.000 A 
ATOM      9  C   UNL     1       2.679   4.378  19.461  0.00  0.00    +0.000 A 
ATOM     10  C   UNL     1       2.929   5.640  18.904  0.00  0.00    +0.000 A 
ATOM     11  C   UNL     1       3.810   5.705  17.797  0.00  0.00    +0.000 A 
BRANCH   6  16
ATOM     12  C   UNL     1       8.106   5.122  12.868  0.00  0.00    +0.000 C 
ATOM     13  C   UNL     1       7.097   4.931  13.958  0.00  0.00    +0.000 A 
ATOM     14  C   UNL     1       6.040   4.048  13.824  0.00  0.00    +0.000 A 
ATOM     15  C   UNL     1       5.139   3.909  14.884  0.00  0.00    +0.000 A 
ATOM     16  C   UNL     1       5.313   4.650  16.050  0.00  0.00    +0.000 A 
ATOM     17  N   UNL     1       6.352   5.511  16.135  0.00  0.00    +0.000 NA
ATOM     18  N   UNL     1       7.249   5.651  15.087  0.00  0.00    +0.000 NA
ENDBRANCH   6  16
ENDBRANCH   1  10
BRANCH   4  19
ATOM     19  C   UNL     1       1.279  10.261  19.237  0.00  0.00    +0.000 C 
BRANCH  19  20
ATOM     20  C   UNL     1      -0.135  10.475  18.727  0.00  0.00    +0.000 A 
ATOM     21  C   UNL     1      -0.655   9.703  17.698  0.00  0.00    +0.000 A 
ATOM     22  C   UNL     1      -1.943   9.943  17.250  0.00  0.00    +0.000 A 
ATOM     23  C   UNL     1      -2.754  10.851  17.920  0.00  0.00    +0.000 A 
ATOM     24  C   UNL     1      -4.103  10.982  17.546  0.00  0.00    +0.000 A 
ATOM     25  C   UNL     1      -4.973  11.752  18.306  0.00  0.00    +0.000 A 
ATOM     26  C   UNL     1      -4.479  12.441  19.404  0.00  0.00    +0.000 A 
ATOM     27  C   UNL     1      -3.111  12.367  19.723  0.00  0.00    +0.000 A 
ATOM     28  C   UNL     1      -2.215  11.560  19.011  0.00  0.00    +0.000 A 
ATOM     29  N   UNL     1      -0.909  11.411  19.372  0.00  0.00    +0.000 NA
ENDBRANCH  19  20
ENDBRANCH   4  19
TORSDOF 4
ENDMDL
MODEL 6
REMARK VINA RESULT:      -8.9      1.062      1.696
REMARK  Name = 
REMARK  5 active torsions:
REMARK  status: ('A' for Active; 'I' for Inactive)
REMARK    1  A    between atoms: C_1  and  C_2
REMARK    2  A    between atoms: C_5  and  C_6
REMARK    3  A    between atoms: C_10  and  C_11
REMARK    4  A    between atoms: N_14  and  C_15
REMARK    5  A    between atoms: C_15  and  C_16
REMARK                            x       y       z     vdW  Elec       q    Type
REMARK                         _______ _______ _______ _____ _____    ______ ____
ROOT
ATOM      1  C   UNL     1       1.475   8.213  20.486  0.00  0.00    +0.000 A 
ATOM      2  C   UNL     1       1.135   8.672  21.789  0.00  0.00    +0.000 A 
ATOM      3  C   UNL     1       0.740   9.980  21.648  0.00  0.00    +0.000 A 
ATOM      4  N   UNL     1       0.831  10.264  20.315  0.00  0.00    +0.000 N 
ATOM      5  N   UNL     1       1.279   9.205  19.589  0.00  0.00    +0.000 NA
ENDROOT
BRANCH   1  10
ATOM      6  C   UNL     1       3.305   5.402  18.598  0.00  0.00    +0.000 A 
ATOM      7  C   UNL     1       2.916   4.313  19.396  0.00  0.00    +0.000 A 
ATOM      8  C   UNL     1       2.086   4.468  20.501  0.00  0.00    +0.000 A 
ATOM      9  C   UNL     1       1.619   5.741  20.852  0.00  0.00    +0.000 A 
ATOM     10  C   UNL     1       1.978   6.872  20.106  0.00  0.00    +0.000 A 
ATOM     11  C   UNL     1       2.830   6.679  18.991  0.00  0.00    +0.000 A 
BRANCH   6  16
ATOM     12  C   UNL     1       6.609   4.363  14.022  0.00  0.00    +0.000 C 
ATOM     13  C   UNL     1       5.765   4.711  15.207  0.00  0.00    +0.000 A 
ATOM     14  C   UNL     1       5.458   6.024  15.522  0.00  0.00    +0.000 A 
ATOM     15  C   UNL     1       4.654   6.281  16.637  0.00  0.00    +0.000 A 
ATOM     16  C   UNL     1       4.174   5.225  17.409  0.00  0.00    +0.000 A 
ATOM     17  N   UNL     1       4.507   3.959  17.073  0.00  0.00    +0.000 NA
ATOM     18  N   UNL     1       5.302   3.699  15.968  0.00  0.00    +0.000 NA
ENDBRANCH   6  16
ENDBRANCH   1  10
BRANCH   4  19
ATOM     19  C   UNL     1       0.415  11.513  19.660  0.00  0.00    +0.000 C 
BRANCH  19  20
ATOM     20  C   UNL     1      -1.084  11.748  19.601  0.00  0.00    +0.000 A 
ATOM     21  C   UNL     1      -1.738  12.484  20.579  0.00  0.00    +0.000 A 
ATOM     22  C   UNL     1      -3.110  12.658  20.498  0.00  0.00    +0.000 A 
ATOM     23  C   UNL     1      -3.800  12.223  19.373  0.00  0.00    +0.000 A 
ATOM     24  C   UNL     1      -5.165  12.533  19.236  0.00  0.00    +0.000 A 
ATOM     25  C   UNL     1      -5.833  12.260  18.050  0.00  0.00    +0.000 A 
ATOM     26  C   UNL     1      -5.151  11.621  17.025  0.00  0.00    +0.000 A 
ATOM     27  C   UNL     1      -3.808  11.244  17.202  0.00  0.00    +0.000 A 
ATOM     28  C   UNL     1      -3.087  11.549  18.363  0.00  0.00    +0.000 A 
ATOM     29  N   UNL     1      -1.760  11.270  18.503  0.00  0.00    +0.000 NA
ENDBRANCH  19  20
ENDBRANCH   4  19
TORSDOF 4
ENDMDL
MODEL 7
REMARK VINA RESULT:      -8.8      1.048      1.229
REMARK  Name = 
REMARK  5 active torsions:
REMARK  status: ('A' for Active; 'I' for Inactive)
REMARK    1  A    between atoms: C_1  and  C_2
REMARK    2  A    between atoms: C_5  and  C_6
REMARK    3  A    between atoms: C_10  and  C_11
REMARK    4  A    between atoms: N_14  and  C_15
REMARK    5  A    between atoms: C_15  and  C_16
REMARK                            x       y       z     vdW  Elec       q    Type
REMARK                         _______ _______ _______ _____ _____    ______ ____
ROOT
ATOM      1  C   UNL     1       1.137   8.977  20.023  0.00  0.00    +0.000 A 
ATOM      2  C   UNL     1       0.890   9.702  21.222  0.00  0.00    +0.000 A 
ATOM      3  C   UNL     1       0.343  10.904  20.841  0.00  0.00    +0.000 A 
ATOM      4  N   UNL     1       0.260  10.870  19.478  0.00  0.00    +0.000 N 
ATOM      5  N   UNL     1       0.740   9.708  18.959  0.00  0.00    +0.000 NA
ENDROOT
BRANCH   1  10
ATOM      6  C   UNL     1       3.147   5.994  18.654  0.00  0.00    +0.000 A 
ATOM      7  C   UNL     1       2.865   5.057  19.663  0.00  0.00    +0.000 A 
ATOM      8  C   UNL     1       2.049   5.366  20.748  0.00  0.00    +0.000 A 
ATOM      9  C   UNL     1       1.489   6.643  20.859  0.00  0.00    +0.000 A 
ATOM     10  C   UNL     1       1.738   7.629  19.894  0.00  0.00    +0.000 A 
ATOM     11  C   UNL     1       2.579   7.283  18.807  0.00  0.00    +0.000 A 
BRANCH   6  16
ATOM     12  C   UNL     1       6.339   4.327  14.185  0.00  0.00    +0.000 C 
ATOM     13  C   UNL     1       5.536   4.835  15.341  0.00  0.00    +0.000 A 
ATOM     14  C   UNL     1       5.440   6.187  15.623  0.00  0.00    +0.000 A 
ATOM     15  C   UNL     1       4.664   6.596  16.711  0.00  0.00    +0.000 A 
ATOM     16  C   UNL     1       4.002   5.651  17.491  0.00  0.00    +0.000 A 
ATOM     17  N   UNL     1       4.132   4.339  17.188  0.00  0.00    +0.000 NA
ATOM     18  N   UNL     1       4.898   3.929  16.109  0.00  0.00    +0.000 NA
ENDBRANCH   6  16
ENDBRANCH   1  10
BRANCH   4  19
ATOM     19  C   UNL     1      -0.357  11.890  18.617  0.00  0.00    +0.000 C 
BRANCH  19  20
ATOM     20  C   UNL     1      -1.851  11.735  18.393  0.00  0.00    +0.000 A 
ATOM     21  C   UNL     1      -2.347  11.006  17.321  0.00  0.00    +0.000 A 
ATOM     22  C   UNL     1      -3.716  10.905  17.141  0.00  0.00    +0.000 A 
ATOM     23  C   UNL     1      -4.583  11.409  18.105  0.00  0.00    +0.000 A 
ATOM     24  C   UNL     1      -5.964  11.174  17.983  0.00  0.00    +0.000 A 
ATOM     25  C   UNL     1      -6.830  11.517  19.014  0.00  0.00    +0.000 A 
ATOM     26  C   UNL     1      -6.320  12.149  20.138  0.00  0.00    +0.000 A 
ATOM     27  C   UNL     1      -4.948  12.451  20.215  0.00  0.00    +0.000 A 
ATOM     28  C   UNL     1      -4.038  12.075  19.219  0.00  0.00    +0.000 A 
ATOM     29  N   UNL     1      -2.695  12.280  19.331  0.00  0.00    +0.000 NA
ENDBRANCH  19  20
ENDBRANCH   4  19
TORSDOF 4
ENDMDL
MODEL 8
REMARK VINA RESULT:      -8.8      2.941      4.195
REMARK  Name = 
REMARK  5 active torsions:
REMARK  status: ('A' for Active; 'I' for Inactive)
REMARK    1  A    between atoms: C_1  and  C_2
REMARK    2  A    between atoms: C_5  and  C_6
REMARK    3  A    between atoms: C_10  and  C_11
REMARK    4  A    between atoms: N_14  and  C_15
REMARK    5  A    between atoms: C_15  and  C_16
REMARK                            x       y       z     vdW  Elec       q    Type
REMARK                         _______ _______ _______ _____ _____    ______ ____
ROOT
ATOM      1  C   UNL     1       0.351   9.783  21.284  0.00  0.00    +0.000 A 
ATOM      2  C   UNL     1      -0.094   9.163  22.484  0.00  0.00    +0.000 A 
ATOM      3  C   UNL     1      -0.697  10.148  23.228  0.00  0.00    +0.000 A 
ATOM      4  N   UNL     1      -0.621  11.290  22.482  0.00  0.00    +0.000 N 
ATOM      5  N   UNL     1       0.015  11.092  21.296  0.00  0.00    +0.000 NA
ENDROOT
BRANCH   1  10
ATOM      6  C   UNL     1       2.382   7.251  19.215  0.00  0.00    +0.000 A 
ATOM      7  C   UNL     1       2.464   7.969  18.009  0.00  0.00    +0.000 A 
ATOM      8  C   UNL     1       1.894   9.230  17.862  0.00  0.00    +0.000 A 
ATOM      9  C   UNL     1       1.208   9.816  18.932  0.00  0.00    +0.000 A 
ATOM     10  C   UNL     1       1.079   9.150  20.158  0.00  0.00    +0.000 A 
ATOM     11  C   UNL     1       1.664   7.865  20.271  0.00  0.00    +0.000 A 
BRANCH   6  16
ATOM     12  C   UNL     1       4.484   1.956  19.905  0.00  0.00    +0.000 C 
ATOM     13  C   UNL     1       4.010   3.362  19.708  0.00  0.00    +0.000 A 
ATOM     14  C   UNL     1       4.829   4.337  19.167  0.00  0.00    +0.000 A 
ATOM     15  C   UNL     1       4.320   5.628  18.998  0.00  0.00    +0.000 A 
ATOM     16  C   UNL     1       3.009   5.916  19.370  0.00  0.00    +0.000 A 
ATOM     17  N   UNL     1       2.246   4.937  19.906  0.00  0.00    +0.000 NA
ATOM     18  N   UNL     1       2.746   3.655  20.073  0.00  0.00    +0.000 NA
ENDBRANCH   6  16
ENDBRANCH   1  10
BRANCH   4  19
ATOM     19  C   UNL     1      -1.223  12.589  22.815  0.00  0.00    +0.000 C 
BRANCH  19  20
ATOM     20  C   UNL     1      -2.689  12.740  22.449  0.00  0.00    +0.000 A 
ATOM     21  C   UNL     1      -3.106  12.729  21.126  0.00  0.00    +0.000 A 
ATOM     22  C   UNL     1      -4.450  12.889  20.834  0.00  0.00    +0.000 A 
ATOM     23  C   UNL     1      -5.386  12.917  21.862  0.00  0.00    +0.000 A 
ATOM     24  C   UNL     1      -6.757  12.935  21.548  0.00  0.00    +0.000 A 
ATOM     25  C   UNL     1      -7.710  12.792  22.548  0.00  0.00    +0.000 A 
ATOM     26  C   UNL     1      -7.291  12.692  23.867  0.00  0.00    +0.000 A 
ATOM     27  C   UNL     1      -5.920  12.756  24.177  0.00  0.00    +0.000 A 
ATOM     28  C   UNL     1      -4.930  12.847  23.192  0.00  0.00    +0.000 A 
ATOM     29  N   UNL     1      -3.597  12.814  23.478  0.00  0.00    +0.000 NA
ENDBRANCH  19  20
ENDBRANCH   4  19
TORSDOF 4
ENDMDL
MODEL 9
REMARK VINA RESULT:      -8.7      2.799      4.358
REMARK  Name = 
REMARK  5 active torsions:
REMARK  status: ('A' for Active; 'I' for Inactive)
REMARK    1  A    between atoms: C_1  and  C_2
REMARK    2  A    between atoms: C_5  and  C_6
REMARK    3  A    between atoms: C_10  and  C_11
REMARK    4  A    between atoms: N_14  and  C_15
REMARK    5  A    between atoms: C_15  and  C_16
REMARK                            x       y       z     vdW  Elec       q    Type
REMARK                         _______ _______ _______ _____ _____    ______ ____
ROOT
ATOM      1  C   UNL     1       0.198   9.981  21.291  0.00  0.00    +0.000 A 
ATOM      2  C   UNL     1      -0.255   9.303  22.456  0.00  0.00    +0.000 A 
ATOM      3  C   UNL     1      -0.871  10.249  23.239  0.00  0.00    +0.000 A 
ATOM      4  N   UNL     1      -0.793  11.425  22.548  0.00  0.00    +0.000 N 
ATOM      5  N   UNL     1      -0.145  11.286  21.361  0.00  0.00    +0.000 NA
ENDROOT
BRANCH   1  10
ATOM      6  C   UNL     1       2.233   7.545  19.114  0.00  0.00    +0.000 A 
ATOM      7  C   UNL     1       2.353   8.333  17.956  0.00  0.00    +0.000 A 
ATOM      8  C   UNL     1       1.806   9.610  17.874  0.00  0.00    +0.000 A 
ATOM      9  C   UNL     1       1.106  10.142  18.963  0.00  0.00    +0.000 A 
ATOM     10  C   UNL     1       0.940   9.405  20.144  0.00  0.00    +0.000 A 
ATOM     11  C   UNL     1       1.502   8.106  20.191  0.00  0.00    +0.000 A 
BRANCH   6  16
ATOM     12  C   UNL     1       4.330   2.237  19.712  0.00  0.00    +0.000 C 
ATOM     13  C   UNL     1       3.838   3.634  19.500  0.00  0.00    +0.000 A 
ATOM     14  C   UNL     1       4.282   4.409  18.443  0.00  0.00    +0.000 A 
ATOM     15  C   UNL     1       3.774   5.703  18.294  0.00  0.00    +0.000 A 
ATOM     16  C   UNL     1       2.836   6.193  19.201  0.00  0.00    +0.000 A 
ATOM     17  N   UNL     1       2.439   5.407  20.227  0.00  0.00    +0.000 NA
ATOM     18  N   UNL     1       2.939   4.122  20.376  0.00  0.00    +0.000 NA
ENDBRANCH   6  16
ENDBRANCH   1  10
BRANCH   4  19
ATOM     19  C   UNL     1      -1.406  12.705  22.937  0.00  0.00    +0.000 C 
BRANCH  19  20
ATOM     20  C   UNL     1      -2.923  12.727  22.935  0.00  0.00    +0.000 A 
ATOM     21  C   UNL     1      -3.644  12.917  24.106  0.00  0.00    +0.000 A 
ATOM     22  C   UNL     1      -5.028  12.911  24.063  0.00  0.00    +0.000 A 
ATOM     23  C   UNL     1      -5.685  12.859  22.839  0.00  0.00    +0.000 A 
ATOM     24  C   UNL     1      -7.084  12.998  22.799  0.00  0.00    +0.000 A 
ATOM     25  C   UNL     1      -7.745  13.121  21.584  0.00  0.00    +0.000 A 
ATOM     26  C   UNL     1      -7.012  13.042  20.409  0.00  0.00    +0.000 A 
ATOM     27  C   UNL     1      -5.624  12.822  20.459  0.00  0.00    +0.000 A 
ATOM     28  C   UNL     1      -4.917  12.745  21.665  0.00  0.00    +0.000 A 
ATOM     29  N   UNL     1      -3.560  12.627  21.720  0.00  0.00    +0.000 NA
ENDBRANCH  19  20
ENDBRANCH   4  19
TORSDOF 4
ENDMDL
