MODEL 1
REMARK VINA RESULT:      -9.1      0.000      0.000
REMARK  Name = 
REMARK  8 active torsions:
REMARK  status: ('A' for Active; 'I' for Inactive)
REMARK    1  A    between atoms: C_1  and  C_2
REMARK    2  A    between atoms: N_4  and  C_5
REMARK    3  A    between atoms: C_9  and  C_10
REMARK    4  A    between atoms: N_13  and  C_14
REMARK    5  A    between atoms: C_14  and  C_15
REMARK    6  A    between atoms: C_15  and  C_16
REMARK    7  A    between atoms: C_16  and  N_17
REMARK    8  A    between atoms: C_18  and  C_19
REMARK                            x       y       z     vdW  Elec       q    Type
REMARK                         _______ _______ _______ _____ _____    ______ ____
ROOT
ATOM      1  C   UNL     1       1.459   8.938  21.852  0.00  0.00    +0.000 C 
ENDROOT
BRANCH   1   5
ATOM      2  C   UNL     1      -0.830  12.259  20.175  0.00  0.00    +0.000 C 
ATOM      3  C   UNL     1       0.702  12.249  19.994  0.00  0.00    +0.000 C 
ATOM      4  C   UNL     1       1.419  10.942  20.399  0.00  0.00    +0.000 C 
ATOM      5  N   UNL     1       0.980  10.338  21.666  0.00  0.00    +0.000 NA
ATOM      6  C   UNL     1      -0.493  10.332  21.774  0.00  0.00    +0.000 C 
ATOM      7  C   UNL     1      -1.118  11.714  21.580  0.00  0.00    +0.000 C 
BRANCH   2  12
ATOM      8  C   UNL     1      -3.956  11.614  18.010  0.00  0.00    +0.000 A 
ATOM      9  C   UNL     1      -3.590  10.481  17.312  0.00  0.00    +0.000 A 
ATOM     10  C   UNL     1      -2.318   9.922  17.493  0.00  0.00    +0.000 A 
ATOM     11  C   UNL     1      -1.403  10.471  18.400  0.00  0.00    +0.000 A 
ATOM     12  C   UNL     1      -1.740  11.605  19.134  0.00  0.00    +0.000 A 
ATOM     13  C   UNL     1      -3.020  12.181  18.895  0.00  0.00    +0.000 A 
BRANCH   8  17
ATOM     14  C   UNL     1      -7.564  12.743  18.089  0.00  0.00    +0.000 C 
ATOM     15  C   UNL     1      -6.449  11.736  18.293  0.00  0.00    +0.000 C 
ATOM     16  O   UNL     1      -6.694  10.616  18.753  0.00  0.00    +0.000 OA
ATOM     17  N   UNL     1      -5.221  12.241  17.900  0.00  0.00    +0.000 N 
ATOM     18  H   UNL     1      -5.211  13.197  17.571  0.00  0.00    +0.000 HD
ENDBRANCH   8  17
ENDBRANCH   2  12
ENDBRANCH   1   5
BRANCH   1  19
ATOM     19  C   UNL     1       1.096   7.924  20.763  0.00  0.00    +0.000 C 
BRANCH  19  20
ATOM     20  C   UNL     1       2.247   7.281  19.954  0.00  0.00    +0.000 C 
BRANCH  20  21
ATOM     21  N   UNL     1       2.324   5.921  19.468  0.00  0.00    +0.000 N 
ATOM     22  C   UNL     1       2.383   5.661  18.096  0.00  0.00    +0.000 A 
ATOM     23  N   UNL     1       1.327   4.876  17.873  0.00  0.00    +0.000 NA
ATOM     24  C   UNL     1       1.360   4.061  18.994  0.00  0.00    +0.000 A 
ATOM     25  C   UNL     1       0.962   2.717  19.079  0.00  0.00    +0.000 A 
ATOM     26  C   UNL     1       1.826   1.876  19.784  0.00  0.00    +0.000 A 
ATOM     27  C   UNL     1       2.932   2.400  20.462  0.00  0.00    +0.000 A 
ATOM     28  C   UNL     1       3.114   3.787  20.635  0.00  0.00    +0.000 A 
ATOM     29  C   UNL     1       2.232   4.630  19.948  0.00  0.00    +0.000 A 
BRANCH  22  30
ATOM     30  C   UNL     1       3.744   5.525  17.508  0.00  0.00    +0.000 A 
ATOM     31  C   UNL     1       4.505   6.641  17.150  0.00  0.00    +0.000 A 
ATOM     32  C   UNL     1       5.629   6.488  16.325  0.00  0.00    +0.000 A 
ATOM     33  C   UNL     1       5.984   5.228  15.837  0.00  0.00    +0.000 A 
ATOM     34 CL   UNL     1       7.317   5.043  14.769  0.00  0.00    +0.000 Cl
ATOM     35  C   UNL     1       5.242   4.114  16.183  0.00  0.00    +0.000 A 
ATOM     36  C   UNL     1       4.149   4.266  17.022  0.00  0.00    +0.000 A 
ENDBRANCH  22  30
ENDBRANCH  20  21
ENDBRANCH  19  20
ENDBRANCH   1  19
TORSDOF 7
ENDMDL
MODEL 2
REMARK VINA RESULT:      -9.0      4.069      9.835
REMARK  Name = 
REMARK  8 active torsions:
REMARK  status: ('A' for Active; 'I' for Inactive)
REMARK    1  A    between atoms: C_1  and  C_2
REMARK    2  A    between atoms: N_4  and  C_5
REMARK    3  A    between atoms: C_9  and  C_10
REMARK    4  A    between atoms: N_13  and  C_14
REMARK    5  A    between atoms: C_14  and  C_15
REMARK    6  A    between atoms: C_15  and  C_16
REMARK    7  A    between atoms: C_16  and  N_17
REMARK    8  A    between atoms: C_18  and  C_19
REMARK                            x       y       z     vdW  Elec       q    Type
REMARK                         _______ _______ _______ _____ _____    ______ ____
ROOT
ATOM      1  C   UNL     1       2.157   7.413  19.642  0.00  0.00    +0.000 C 
ENDROOT
BRANCH   1   5
ATOM      2  C   UNL     1       3.760   3.734  17.918  0.00  0.00    +0.000 C 
ATOM      3  C   UNL     1       2.298   4.118  17.614  0.00  0.00    +0.000 C 
ATOM      4  C   UNL     1       1.869   5.537  18.054  0.00  0.00    +0.000 C 
ATOM      5  N   UNL     1       2.313   5.951  19.394  0.00  0.00    +0.000 NA
ATOM      6  C   UNL     1       3.729   5.600  19.621  0.00  0.00    +0.000 C 
ATOM      7  C   UNL     1       4.031   4.121  19.378  0.00  0.00    +0.000 C 
BRANCH   2  12
ATOM      8  C   UNL     1       6.530   5.999  16.477  0.00  0.00    +0.000 A 
ATOM      9  C   UNL     1       6.945   5.276  15.377  0.00  0.00    +0.000 A 
ATOM     10  C   UNL     1       6.371   4.030  15.095  0.00  0.00    +0.000 A 
ATOM     11  C   UNL     1       5.350   3.500  15.894  0.00  0.00    +0.000 A 
ATOM     12  C   UNL     1       4.894   4.205  17.005  0.00  0.00    +0.000 A 
ATOM     13  C   UNL     1       5.528   5.446  17.295  0.00  0.00    +0.000 A 
BRANCH   8  17
ATOM     14  C   UNL     1       8.249   9.039  17.925  0.00  0.00    +0.000 C 
ATOM     15  C   UNL     1       7.825   7.584  17.933  0.00  0.00    +0.000 C 
ATOM     16  O   UNL     1       8.171   6.836  18.853  0.00  0.00    +0.000 OA
ATOM     17  N   UNL     1       7.044   7.269  16.833  0.00  0.00    +0.000 N 
ATOM     18  H   UNL     1       6.887   8.012  16.165  0.00  0.00    +0.000 HD
ENDBRANCH   8  17
ENDBRANCH   2  12
ENDBRANCH   1   5
BRANCH   1  19
ATOM     19  C   UNL     1       1.337   7.832  20.866  0.00  0.00    +0.000 C 
BRANCH  19  20
ATOM     20  C   UNL     1       0.505   9.133  20.774  0.00  0.00    +0.000 C 
BRANCH  20  21
ATOM     21  N   UNL     1       0.679  10.221  19.838  0.00  0.00    +0.000 N 
ATOM     22  C   UNL     1       0.273  10.083  18.507  0.00  0.00    +0.000 A 
ATOM     23  N   UNL     1       1.387  10.307  17.807  0.00  0.00    +0.000 NA
ATOM     24  C   UNL     1       1.944  11.354  18.524  0.00  0.00    +0.000 A 
ATOM     25  C   UNL     1       2.723  12.408  18.019  0.00  0.00    +0.000 A 
ATOM     26  C   UNL     1       2.407  13.678  18.509  0.00  0.00    +0.000 A 
ATOM     27  C   UNL     1       1.466  13.832  19.533  0.00  0.00    +0.000 A 
ATOM     28  C   UNL     1       0.951  12.730  20.246  0.00  0.00    +0.000 A 
ATOM     29  C   UNL     1       1.289  11.458  19.770  0.00  0.00    +0.000 A 
BRANCH  22  30
ATOM     30  C   UNL     1      -1.102  10.555  18.185  0.00  0.00    +0.000 A 
ATOM     31  C   UNL     1      -1.784  11.450  19.013  0.00  0.00    +0.000 A 
ATOM     32  C   UNL     1      -3.167  11.632  18.860  0.00  0.00    +0.000 A 
ATOM     33  C   UNL     1      -3.875  10.907  17.899  0.00  0.00    +0.000 A 
ATOM     34 CL   UNL     1      -5.579  11.072  17.753  0.00  0.00    +0.000 Cl
ATOM     35  C   UNL     1      -3.214  10.018  17.072  0.00  0.00    +0.000 A 
ATOM     36  C   UNL     1      -1.843   9.863  17.207  0.00  0.00    +0.000 A 
ENDBRANCH  22  30
ENDBRANCH  20  21
ENDBRANCH  19  20
ENDBRANCH   1  19
TORSDOF 7
ENDMDL
MODEL 3
REMARK VINA RESULT:      -8.8      4.179     10.097
REMARK  Name = 
REMARK  8 active torsions:
REMARK  status: ('A' for Active; 'I' for Inactive)
REMARK    1  A    between atoms: C_1  and  C_2
REMARK    2  A    between atoms: N_4  and  C_5
REMARK    3  A    between atoms: C_9  and  C_10
REMARK    4  A    between atoms: N_13  and  C_14
REMARK    5  A    between atoms: C_14  and  C_15
REMARK    6  A    between atoms: C_15  and  C_16
REMARK    7  A    between atoms: C_16  and  N_17
REMARK    8  A    between atoms: C_18  and  C_19
REMARK                            x       y       z     vdW  Elec       q    Type
REMARK                         _______ _______ _______ _____ _____    ______ ____
ROOT
ATOM      1  C   UNL     1       2.013   7.462  20.059  0.00  0.00    +0.000 C 
ENDROOT
BRANCH   1   5
ATOM      2  C   UNL     1       3.396   3.724  18.272  0.00  0.00    +0.000 C 
ATOM      3  C   UNL     1       2.138   4.401  17.692  0.00  0.00    +0.000 C 
ATOM      4  C   UNL     1       1.841   5.827  18.209  0.00  0.00    +0.000 C 
ATOM      5  N   UNL     1       1.993   6.025  19.658  0.00  0.00    +0.000 NA
ATOM      6  C   UNL     1       3.232   5.396  20.159  0.00  0.00    +0.000 C 
ATOM      7  C   UNL     1       3.348   3.917  19.794  0.00  0.00    +0.000 C 
BRANCH   2  12
ATOM      8  C   UNL     1       6.269   4.122  15.729  0.00  0.00    +0.000 A 
ATOM      9  C   UNL     1       7.306   4.542  16.535  0.00  0.00    +0.000 A 
ATOM     10  C   UNL     1       7.098   4.743  17.906  0.00  0.00    +0.000 A 
ATOM     11  C   UNL     1       5.852   4.496  18.497  0.00  0.00    +0.000 A 
ATOM     12  C   UNL     1       4.783   4.058  17.719  0.00  0.00    +0.000 A 
ATOM     13  C   UNL     1       5.011   3.908  16.322  0.00  0.00    +0.000 A 
BRANCH   8  17
ATOM     14  C   UNL     1       7.096   3.964  12.043  0.00  0.00    +0.000 C 
ATOM     15  C   UNL     1       7.170   4.575  13.429  0.00  0.00    +0.000 C 
ATOM     16  O   UNL     1       7.863   5.576  13.635  0.00  0.00    +0.000 OA
ATOM     17  N   UNL     1       6.388   3.882  14.338  0.00  0.00    +0.000 N 
ATOM     18  H   UNL     1       5.909   3.063  13.989  0.00  0.00    +0.000 HD
ENDBRANCH   8  17
ENDBRANCH   2  12
ENDBRANCH   1   5
BRANCH   1  19
ATOM     19  C   UNL     1       0.903   7.941  21.000  0.00  0.00    +0.000 C 
BRANCH  19  20
ATOM     20  C   UNL     1       0.561   9.450  21.012  0.00  0.00    +0.000 C 
BRANCH  20  21
ATOM     21  N   UNL     1       0.753  10.402  19.941  0.00  0.00    +0.000 N 
ATOM     22  C   UNL     1       0.334  10.100  18.642  0.00  0.00    +0.000 A 
ATOM     23  N   UNL     1       1.447  10.204  17.913  0.00  0.00    +0.000 NA
ATOM     24  C   UNL     1       2.034  11.323  18.484  0.00  0.00    +0.000 A 
ATOM     25  C   UNL     1       2.833  12.283  17.841  0.00  0.00    +0.000 A 
ATOM     26  C   UNL     1       2.549  13.613  18.161  0.00  0.00    +0.000 A 
ATOM     27  C   UNL     1       1.620  13.922  19.161  0.00  0.00    +0.000 A 
ATOM     28  C   UNL     1       1.086  12.936  20.014  0.00  0.00    +0.000 A 
ATOM     29  C   UNL     1       1.391  11.604  19.709  0.00  0.00    +0.000 A 
BRANCH  22  30
ATOM     30  C   UNL     1      -1.032  10.559  18.267  0.00  0.00    +0.000 A 
ATOM     31  C   UNL     1      -1.749  11.458  19.060  0.00  0.00    +0.000 A 
ATOM     32  C   UNL     1      -3.127  11.628  18.858  0.00  0.00    +0.000 A 
ATOM     33  C   UNL     1      -3.796  10.887  17.881  0.00  0.00    +0.000 A 
ATOM     34 CL   UNL     1      -5.495  11.037  17.675  0.00  0.00    +0.000 Cl
ATOM     35  C   UNL     1      -3.101   9.993  17.087  0.00  0.00    +0.000 A 
ATOM     36  C   UNL     1      -1.734   9.850  17.271  0.00  0.00    +0.000 A 
ENDBRANCH  22  30
ENDBRANCH  20  21
ENDBRANCH  19  20
ENDBRANCH   1  19
TORSDOF 7
ENDMDL
MODEL 4
REMARK VINA RESULT:      -8.7      3.871      9.708
REMARK  Name = 
REMARK  8 active torsions:
REMARK  status: ('A' for Active; 'I' for Inactive)
REMARK    1  A    between atoms: C_1  and  C_2
REMARK    2  A    between atoms: N_4  and  C_5
REMARK    3  A    between atoms: C_9  and  C_10
REMARK    4  A    between atoms: N_13  and  C_14
REMARK    5  A    between atoms: C_14  and  C_15
REMARK    6  A    between atoms: C_15  and  C_16
REMARK    7  A    between atoms: C_16  and  N_17
REMARK    8  A    between atoms: C_18  and  C_19
REMARK                            x       y       z     vdW  Elec       q    Type
REMARK                         _______ _______ _______ _____ _____    ______ ____
ROOT
ATOM      1  C   UNL     1       2.258   6.435  19.646  0.00  0.00    +0.000 C 
ENDROOT
BRANCH   1   5
ATOM      2  C   UNL     1       4.035   3.061  17.515  0.00  0.00    +0.000 C 
ATOM      3  C   UNL     1       2.560   3.418  17.239  0.00  0.00    +0.000 C 
ATOM      4  C   UNL     1       2.066   4.753  17.841  0.00  0.00    +0.000 C 
ATOM      5  N   UNL     1       2.480   5.021  19.226  0.00  0.00    +0.000 NA
ATOM      6  C   UNL     1       3.908   4.705  19.430  0.00  0.00    +0.000 C 
ATOM      7  C   UNL     1       4.276   3.280  19.015  0.00  0.00    +0.000 C 
BRANCH   2  12
ATOM      8  C   UNL     1       7.027   5.318  16.602  0.00  0.00    +0.000 A 
ATOM      9  C   UNL     1       7.220   5.009  15.272  0.00  0.00    +0.000 A 
ATOM     10  C   UNL     1       6.420   4.043  14.648  0.00  0.00    +0.000 A 
ATOM     11  C   UNL     1       5.391   3.392  15.341  0.00  0.00    +0.000 A 
ATOM     12  C   UNL     1       5.155   3.686  16.681  0.00  0.00    +0.000 A 
ATOM     13  C   UNL     1       6.014   4.636  17.302  0.00  0.00    +0.000 A 
BRANCH   8  17
ATOM     14  C   UNL     1       8.488   8.323  18.371  0.00  0.00    +0.000 C 
ATOM     15  C   UNL     1       7.484   7.630  17.472  0.00  0.00    +0.000 C 
ATOM     16  O   UNL     1       6.547   8.264  16.974  0.00  0.00    +0.000 OA
ATOM     17  N   UNL     1       7.778   6.286  17.312  0.00  0.00    +0.000 N 
ATOM     18  H   UNL     1       8.577   5.936  17.824  0.00  0.00    +0.000 HD
ENDBRANCH   8  17
ENDBRANCH   2  12
ENDBRANCH   1   5
BRANCH   1  19
ATOM     19  C   UNL     1       2.703   7.532  18.673  0.00  0.00    +0.000 C 
BRANCH  19  20
ATOM     20  C   UNL     1       1.734   8.709  18.411  0.00  0.00    +0.000 C 
BRANCH  20  21
ATOM     21  N   UNL     1       0.904   9.393  19.377  0.00  0.00    +0.000 N 
ATOM     22  C   UNL     1       0.306  10.616  19.059  0.00  0.00    +0.000 A 
ATOM     23  N   UNL     1       0.765  11.450  19.993  0.00  0.00    +0.000 NA
ATOM     24  C   UNL     1       0.724  10.639  21.117  0.00  0.00    +0.000 A 
ATOM     25  C   UNL     1       0.478  11.036  22.441  0.00  0.00    +0.000 A 
ATOM     26  C   UNL     1      -0.401  10.223  23.161  0.00  0.00    +0.000 A 
ATOM     27  C   UNL     1      -0.876   9.027  22.610  0.00  0.00    +0.000 A 
ATOM     28  C   UNL     1      -0.349   8.494  21.417  0.00  0.00    +0.000 A 
ATOM     29  C   UNL     1       0.551   9.299  20.709  0.00  0.00    +0.000 A 
BRANCH  22  30
ATOM     30  C   UNL     1      -1.078  10.550  18.513  0.00  0.00    +0.000 A 
ATOM     31  C   UNL     1      -1.363   9.897  17.312  0.00  0.00    +0.000 A 
ATOM     32  C   UNL     1      -2.592  10.113  16.670  0.00  0.00    +0.000 A 
ATOM     33  C   UNL     1      -3.528  10.998  17.212  0.00  0.00    +0.000 A 
ATOM     34 CL   UNL     1      -5.004  11.323  16.396  0.00  0.00    +0.000 Cl
ATOM     35  C   UNL     1      -3.260  11.652  18.400  0.00  0.00    +0.000 A 
ATOM     36  C   UNL     1      -2.056  11.412  19.046  0.00  0.00    +0.000 A 
ENDBRANCH  22  30
ENDBRANCH  20  21
ENDBRANCH  19  20
ENDBRANCH   1  19
TORSDOF 7
ENDMDL
MODEL 5
REMARK VINA RESULT:      -8.7      4.112     10.067
REMARK  Name = 
REMARK  8 active torsions:
REMARK  status: ('A' for Active; 'I' for Inactive)
REMARK    1  A    between atoms: C_1  and  C_2
REMARK    2  A    between atoms: N_4  and  C_5
REMARK    3  A    between atoms: C_9  and  C_10
REMARK    4  A    between atoms: N_13  and  C_14
REMARK    5  A    between atoms: C_14  and  C_15
REMARK    6  A    between atoms: C_15  and  C_16
REMARK    7  A    between atoms: C_16  and  N_17
REMARK    8  A    between atoms: C_18  and  C_19
REMARK                            x       y       z     vdW  Elec       q    Type
REMARK                         _______ _______ _______ _____ _____    ______ ____
ROOT
ATOM      1  C   UNL     1       2.477   7.133  19.358  0.00  0.00    +0.000 C 
ENDROOT
BRANCH   1   5
ATOM      2  C   UNL     1       4.354   3.602  17.600  0.00  0.00    +0.000 C 
ATOM      3  C   UNL     1       2.827   3.773  17.468  0.00  0.00    +0.000 C 
ATOM      4  C   UNL     1       2.262   5.146  17.899  0.00  0.00    +0.000 C 
ATOM      5  N   UNL     1       2.802   5.692  19.153  0.00  0.00    +0.000 NA
ATOM      6  C   UNL     1       4.270   5.544  19.215  0.00  0.00    +0.000 C 
ATOM      7  C   UNL     1       4.741   4.106  18.997  0.00  0.00    +0.000 C 
BRANCH   2  12
ATOM      8  C   UNL     1       6.342   3.837  14.303  0.00  0.00    +0.000 A 
ATOM      9  C   UNL     1       7.056   5.003  14.484  0.00  0.00    +0.000 A 
ATOM     10  C   UNL     1       6.888   5.759  15.652  0.00  0.00    +0.000 A 
ATOM     11  C   UNL     1       6.023   5.342  16.671  0.00  0.00    +0.000 A 
ATOM     12  C   UNL     1       5.295   4.164  16.532  0.00  0.00    +0.000 A 
ATOM     13  C   UNL     1       5.448   3.441  15.316  0.00  0.00    +0.000 A 
BRANCH   8  17
ATOM     14  C   UNL     1       6.089   1.973  11.023  0.00  0.00    +0.000 C 
ATOM     15  C   UNL     1       5.581   2.921  12.092  0.00  0.00    +0.000 C 
ATOM     16  O   UNL     1       4.501   3.504  11.949  0.00  0.00    +0.000 OA
ATOM     17  N   UNL     1       6.454   3.004  13.163  0.00  0.00    +0.000 N 
ATOM     18  H   UNL     1       7.310   2.470  13.090  0.00  0.00    +0.000 HD
ENDBRANCH   8  17
ENDBRANCH   2  12
ENDBRANCH   1   5
BRANCH   1  19
ATOM     19  C   UNL     1       2.192   7.971  18.107  0.00  0.00    +0.000 C 
BRANCH  19  20
ATOM     20  C   UNL     1       1.640   9.403  18.301  0.00  0.00    +0.000 C 
BRANCH  20  21
ATOM     21  N   UNL     1       0.765   9.870  19.353  0.00  0.00    +0.000 N 
ATOM     22  C   UNL     1       0.022  11.043  19.189  0.00  0.00    +0.000 A 
ATOM     23  N   UNL     1       0.410  11.813  20.208  0.00  0.00    +0.000 NA
ATOM     24  C   UNL     1       0.493  10.879  21.229  0.00  0.00    +0.000 A 
ATOM     25  C   UNL     1       0.242  11.091  22.595  0.00  0.00    +0.000 A 
ATOM     26  C   UNL     1      -0.517  10.103  23.227  0.00  0.00    +0.000 A 
ATOM     27  C   UNL     1      -0.868   8.931  22.547  0.00  0.00    +0.000 A 
ATOM     28  C   UNL     1      -0.318   8.603  21.292  0.00  0.00    +0.000 A 
ATOM     29  C   UNL     1       0.463   9.583  20.670  0.00  0.00    +0.000 A 
BRANCH  22  30
ATOM     30  C   UNL     1      -1.360  10.879  18.660  0.00  0.00    +0.000 A 
ATOM     31  C   UNL     1      -1.609  10.254  17.436  0.00  0.00    +0.000 A 
ATOM     32  C   UNL     1      -2.863  10.389  16.821  0.00  0.00    +0.000 A 
ATOM     33  C   UNL     1      -3.862  11.164  17.415  0.00  0.00    +0.000 A 
ATOM     34 CL   UNL     1      -5.376  11.393  16.634  0.00  0.00    +0.000 Cl
ATOM     35  C   UNL     1      -3.632  11.789  18.626  0.00  0.00    +0.000 A 
ATOM     36  C   UNL     1      -2.401  11.628  19.244  0.00  0.00    +0.000 A 
ENDBRANCH  22  30
ENDBRANCH  20  21
ENDBRANCH  19  20
ENDBRANCH   1  19
TORSDOF 7
ENDMDL
MODEL 6
REMARK VINA RESULT:      -8.7      2.202      2.986
REMARK  Name = 
REMARK  8 active torsions:
REMARK  status: ('A' for Active; 'I' for Inactive)
REMARK    1  A    between atoms: C_1  and  C_2
REMARK    2  A    between atoms: N_4  and  C_5
REMARK    3  A    between atoms: C_9  and  C_10
REMARK    4  A    between atoms: N_13  and  C_14
REMARK    5  A    between atoms: C_14  and  C_15
REMARK    6  A    between atoms: C_15  and  C_16
REMARK    7  A    between atoms: C_16  and  N_17
REMARK    8  A    between atoms: C_18  and  C_19
REMARK                            x       y       z     vdW  Elec       q    Type
REMARK                         _______ _______ _______ _____ _____    ______ ____
ROOT
ATOM      1  C   UNL     1       1.906  10.078  18.648  0.00  0.00    +0.000 C 
ENDROOT
BRANCH   1   5
ATOM      2  C   UNL     1      -1.824  12.285  19.189  0.00  0.00    +0.000 C 
ATOM      3  C   UNL     1      -1.844  10.992  18.348  0.00  0.00    +0.000 C 
ATOM      4  C   UNL     1      -0.555  10.140  18.392  0.00  0.00    +0.000 C 
ATOM      5  N   UNL     1       0.708  10.887  18.282  0.00  0.00    +0.000 NA
ATOM      6  C   UNL     1       0.694  12.091  19.137  0.00  0.00    +0.000 C 
ATOM      7  C   UNL     1      -0.505  13.003  18.876  0.00  0.00    +0.000 C 
BRANCH   2  12
ATOM      8  C   UNL     1      -3.489  13.001  22.594  0.00  0.00    +0.000 A 
ATOM      9  C   UNL     1      -2.657  12.328  23.464  0.00  0.00    +0.000 A 
ATOM     10  C   UNL     1      -1.565  11.599  22.975  0.00  0.00    +0.000 A 
ATOM     11  C   UNL     1      -1.272  11.557  21.606  0.00  0.00    +0.000 A 
ATOM     12  C   UNL     1      -2.080  12.235  20.697  0.00  0.00    +0.000 A 
ATOM     13  C   UNL     1      -3.209  12.928  21.217  0.00  0.00    +0.000 A 
BRANCH   8  17
ATOM     14  C   UNL     1      -6.772  14.435  23.804  0.00  0.00    +0.000 C 
ATOM     15  C   UNL     1      -5.865  13.309  23.347  0.00  0.00    +0.000 C 
ATOM     16  O   UNL     1      -6.282  12.147  23.313  0.00  0.00    +0.000 OA
ATOM     17  N   UNL     1      -4.608  13.771  22.997  0.00  0.00    +0.000 N 
ATOM     18  H   UNL     1      -4.441  14.761  23.118  0.00  0.00    +0.000 HD
ENDBRANCH   8  17
ENDBRANCH   2  12
ENDBRANCH   1   5
BRANCH   1  19
ATOM     19  C   UNL     1       1.899   8.598  18.251  0.00  0.00    +0.000 C 
BRANCH  19  20
ATOM     20  C   UNL     1       2.054   7.543  19.372  0.00  0.00    +0.000 C 
BRANCH  20  21
ATOM     21  N   UNL     1       2.189   6.112  19.217  0.00  0.00    +0.000 N 
ATOM     22  C   UNL     1       2.316   5.545  17.945  0.00  0.00    +0.000 A 
ATOM     23  N   UNL     1       1.291   4.694  17.870  0.00  0.00    +0.000 NA
ATOM     24  C   UNL     1       1.295   4.160  19.150  0.00  0.00    +0.000 A 
ATOM     25  C   UNL     1       0.928   2.858  19.527  0.00  0.00    +0.000 A 
ATOM     26  C   UNL     1       1.781   2.233  20.440  0.00  0.00    +0.000 A 
ATOM     27  C   UNL     1       2.842   2.938  21.020  0.00  0.00    +0.000 A 
ATOM     28  C   UNL     1       2.980   4.333  20.874  0.00  0.00    +0.000 A 
ATOM     29  C   UNL     1       2.108   4.963  19.979  0.00  0.00    +0.000 A 
BRANCH  22  30
ATOM     30  C   UNL     1       3.706   5.327  17.457  0.00  0.00    +0.000 A 
ATOM     31  C   UNL     1       4.562   6.394  17.176  0.00  0.00    +0.000 A 
ATOM     32  C   UNL     1       5.732   6.177  16.433  0.00  0.00    +0.000 A 
ATOM     33  C   UNL     1       6.039   4.903  15.951  0.00  0.00    +0.000 A 
ATOM     34 CL   UNL     1       7.433   4.643  14.980  0.00  0.00    +0.000 Cl
ATOM     35  C   UNL     1       5.202   3.836  16.221  0.00  0.00    +0.000 A 
ATOM     36  C   UNL     1       4.061   4.050  16.981  0.00  0.00    +0.000 A 
ENDBRANCH  22  30
ENDBRANCH  20  21
ENDBRANCH  19  20
ENDBRANCH   1  19
TORSDOF 7
ENDMDL
MODEL 7
REMARK VINA RESULT:      -8.6      3.799      9.690
REMARK  Name = 
REMARK  8 active torsions:
REMARK  status: ('A' for Active; 'I' for Inactive)
REMARK    1  A    between atoms: C_1  and  C_2
REMARK    2  A    between atoms: N_4  and  C_5
REMARK    3  A    between atoms: C_9  and  C_10
REMARK    4  A    between atoms: N_13  and  C_14
REMARK    5  A    between atoms: C_14  and  C_15
REMARK    6  A    between atoms: C_15  and  C_16
REMARK    7  A    between atoms: C_16  and  N_17
REMARK    8  A    between atoms: C_18  and  C_19
REMARK                            x       y       z     vdW  Elec       q    Type
REMARK                         _______ _______ _______ _____ _____    ______ ____
ROOT
ATOM      1  C   UNL     1       2.382   7.201  20.097  0.00  0.00    +0.000 C 
ENDROOT
BRANCH   1   5
ATOM      2  C   UNL     1       3.560   3.710  17.750  0.00  0.00    +0.000 C 
ATOM      3  C   UNL     1       2.158   4.314  17.527  0.00  0.00    +0.000 C 
ATOM      4  C   UNL     1       1.895   5.675  18.210  0.00  0.00    +0.000 C 
ATOM      5  N   UNL     1       2.366   5.795  19.598  0.00  0.00    +0.000 NA
ATOM      6  C   UNL     1       3.727   5.243  19.751  0.00  0.00    +0.000 C 
ATOM      7  C   UNL     1       3.854   3.803  19.253  0.00  0.00    +0.000 C 
BRANCH   2  12
ATOM      8  C   UNL     1       6.400   6.008  16.512  0.00  0.00    +0.000 A 
ATOM      9  C   UNL     1       6.909   5.285  15.453  0.00  0.00    +0.000 A 
ATOM     10  C   UNL     1       6.377   4.029  15.135  0.00  0.00    +0.000 A 
ATOM     11  C   UNL     1       5.304   3.489  15.857  0.00  0.00    +0.000 A 
ATOM     12  C   UNL     1       4.754   4.193  16.924  0.00  0.00    +0.000 A 
ATOM     13  C   UNL     1       5.345   5.445  17.254  0.00  0.00    +0.000 A 
BRANCH   8  17
ATOM     14  C   UNL     1       8.077   9.069  17.965  0.00  0.00    +0.000 C 
ATOM     15  C   UNL     1       7.760   7.588  17.913  0.00  0.00    +0.000 C 
ATOM     16  O   UNL     1       8.276   6.809  18.722  0.00  0.00    +0.000 OA
ATOM     17  N   UNL     1       6.866   7.288  16.899  0.00  0.00    +0.000 N 
ATOM     18  H   UNL     1       6.570   8.059  16.316  0.00  0.00    +0.000 HD
ENDBRANCH   8  17
ENDBRANCH   2  12
ENDBRANCH   1   5
BRANCH   1  19
ATOM     19  C   UNL     1       1.610   8.242  19.280  0.00  0.00    +0.000 C 
BRANCH  19  20
ATOM     20  C   UNL     1       0.919   9.398  20.042  0.00  0.00    +0.000 C 
BRANCH  20  21
ATOM     21  N   UNL     1       0.005  10.380  19.503  0.00  0.00    +0.000 N 
ATOM     22  C   UNL     1       0.064  11.711  19.927  0.00  0.00    +0.000 A 
ATOM     23  N   UNL     1      -1.159  11.949  20.407  0.00  0.00    +0.000 NA
ATOM     24  C   UNL     1      -1.943  11.284  19.476  0.00  0.00    +0.000 A 
ATOM     25  C   UNL     1      -3.233  11.636  19.048  0.00  0.00    +0.000 A 
ATOM     26  C   UNL     1      -3.453  11.560  17.670  0.00  0.00    +0.000 A 
ATOM     27  C   UNL     1      -2.472  11.033  16.822  0.00  0.00    +0.000 A 
ATOM     28  C   UNL     1      -1.325  10.383  17.319  0.00  0.00    +0.000 A 
ATOM     29  C   UNL     1      -1.119  10.438  18.703  0.00  0.00    +0.000 A 
BRANCH  22  30
ATOM     30  C   UNL     1       0.903  12.627  19.107  0.00  0.00    +0.000 A 
ATOM     31  C   UNL     1       2.104  12.207  18.532  0.00  0.00    +0.000 A 
ATOM     32  C   UNL     1       3.015  13.153  18.038  0.00  0.00    +0.000 A 
ATOM     33  C   UNL     1       2.740  14.519  18.137  0.00  0.00    +0.000 A 
ATOM     34 CL   UNL     1       3.881  15.686  17.600  0.00  0.00    +0.000 Cl
ATOM     35  C   UNL     1       1.554  14.951  18.703  0.00  0.00    +0.000 A 
ATOM     36  C   UNL     1       0.644  14.011  19.162  0.00  0.00    +0.000 A 
ENDBRANCH  22  30
ENDBRANCH  20  21
ENDBRANCH  19  20
ENDBRANCH   1  19
TORSDOF 7
ENDMDL
MODEL 8
REMARK VINA RESULT:      -8.6      4.093     10.104
REMARK  Name = 
REMARK  8 active torsions:
REMARK  status: ('A' for Active; 'I' for Inactive)
REMARK    1  A    between atoms: C_1  and  C_2
REMARK    2  A    between atoms: N_4  and  C_5
REMARK    3  A    between atoms: C_9  and  C_10
REMARK    4  A    between atoms: N_13  and  C_14
REMARK    5  A    between atoms: C_14  and  C_15
REMARK    6  A    between atoms: C_15  and  C_16
REMARK    7  A    between atoms: C_16  and  N_17
REMARK    8  A    between atoms: C_18  and  C_19
REMARK                            x       y       z     vdW  Elec       q    Type
REMARK                         _______ _______ _______ _____ _____    ______ ____
ROOT
ATOM      1  C   UNL     1       2.185   7.388  19.107  0.00  0.00    +0.000 C 
ENDROOT
BRANCH   1   5
ATOM      2  C   UNL     1       4.615   3.848  18.305  0.00  0.00    +0.000 C 
ATOM      3  C   UNL     1       3.080   3.729  18.214  0.00  0.00    +0.000 C 
ATOM      4  C   UNL     1       2.296   5.060  18.275  0.00  0.00    +0.000 C 
ATOM      5  N   UNL     1       2.746   6.019  19.295  0.00  0.00    +0.000 NA
ATOM      6  C   UNL     1       4.218   6.130  19.315  0.00  0.00    +0.000 C 
ATOM      7  C   UNL     1       4.922   4.783  19.482  0.00  0.00    +0.000 C 
BRANCH   2  12
ATOM      8  C   UNL     1       5.575   4.261  14.592  0.00  0.00    +0.000 A 
ATOM      9  C   UNL     1       6.851   4.778  14.685  0.00  0.00    +0.000 A 
ATOM     10  C   UNL     1       7.417   5.040  15.939  0.00  0.00    +0.000 A 
ATOM     11  C   UNL     1       6.724   4.760  17.124  0.00  0.00    +0.000 A 
ATOM     12  C   UNL     1       5.440   4.225  17.073  0.00  0.00    +0.000 A 
ATOM     13  C   UNL     1       4.871   4.013  15.785  0.00  0.00    +0.000 A 
BRANCH   8  17
ATOM     14  C   UNL     1       4.449   3.131  11.165  0.00  0.00    +0.000 C 
ATOM     15  C   UNL     1       5.486   3.378  12.243  0.00  0.00    +0.000 C 
ATOM     16  O   UNL     1       6.669   3.079  12.053  0.00  0.00    +0.000 OA
ATOM     17  N   UNL     1       4.927   3.955  13.371  0.00  0.00    +0.000 N 
ATOM     18  H   UNL     1       3.927   4.103  13.354  0.00  0.00    +0.000 HD
ENDBRANCH   8  17
ENDBRANCH   2  12
ENDBRANCH   1   5
BRANCH   1  19
ATOM     19  C   UNL     1       1.373   7.978  20.264  0.00  0.00    +0.000 C 
BRANCH  19  20
ATOM     20  C   UNL     1       1.641   9.447  20.667  0.00  0.00    +0.000 C 
BRANCH  20  21
ATOM     21  N   UNL     1       0.664  10.496  20.858  0.00  0.00    +0.000 N 
ATOM     22  C   UNL     1       0.319  11.344  19.801  0.00  0.00    +0.000 A 
ATOM     23  N   UNL     1       0.600  12.564  20.264  0.00  0.00    +0.000 NA
ATOM     24  C   UNL     1       0.163  12.457  21.575  0.00  0.00    +0.000 A 
ATOM     25  C   UNL     1      -0.386  13.475  22.372  0.00  0.00    +0.000 A 
ATOM     26  C   UNL     1      -1.515  13.117  23.114  0.00  0.00    +0.000 A 
ATOM     27  C   UNL     1      -1.956  11.789  23.141  0.00  0.00    +0.000 A 
ATOM     28  C   UNL     1      -1.190  10.736  22.602  0.00  0.00    +0.000 A 
ATOM     29  C   UNL     1      -0.045  11.094  21.880  0.00  0.00    +0.000 A 
BRANCH  22  30
ATOM     30  C   UNL     1      -0.862  10.940  18.990  0.00  0.00    +0.000 A 
ATOM     31  C   UNL     1      -0.758  10.012  17.952  0.00  0.00    +0.000 A 
ATOM     32  C   UNL     1      -1.796   9.885  17.017  0.00  0.00    +0.000 A 
ATOM     33  C   UNL     1      -2.929  10.698  17.102  0.00  0.00    +0.000 A 
ATOM     34 CL   UNL     1      -4.172  10.599  15.921  0.00  0.00    +0.000 Cl
ATOM     35  C   UNL     1      -3.047  11.621  18.124  0.00  0.00    +0.000 A 
ATOM     36  C   UNL     1      -2.032  11.722  19.063  0.00  0.00    +0.000 A 
ENDBRANCH  22  30
ENDBRANCH  20  21
ENDBRANCH  19  20
ENDBRANCH   1  19
TORSDOF 7
ENDMDL
MODEL 9
REMARK VINA RESULT:      -8.5      2.084      3.835
REMARK  Name = 
REMARK  8 active torsions:
REMARK  status: ('A' for Active; 'I' for Inactive)
REMARK    1  A    between atoms: C_1  and  C_2
REMARK    2  A    between atoms: N_4  and  C_5
REMARK    3  A    between atoms: C_9  and  C_10
REMARK    4  A    between atoms: N_13  and  C_14
REMARK    5  A    between atoms: C_14  and  C_15
REMARK    6  A    between atoms: C_15  and  C_16
REMARK    7  A    between atoms: C_16  and  N_17
REMARK    8  A    between atoms: C_18  and  C_19
REMARK                            x       y       z     vdW  Elec       q    Type
REMARK                         _______ _______ _______ _____ _____    ______ ____
ROOT
ATOM      1  C   UNL     1       1.857   8.310  19.465  0.00  0.00    +0.000 C 
ENDROOT
BRANCH   1   5
ATOM      2  C   UNL     1      -0.928  11.662  19.169  0.00  0.00    +0.000 C 
ATOM      3  C   UNL     1       0.554  11.897  18.813  0.00  0.00    +0.000 C 
ATOM      4  C   UNL     1       1.431  10.629  18.710  0.00  0.00    +0.000 C 
ATOM      5  N   UNL     1       1.240   9.632  19.775  0.00  0.00    +0.000 NA
ATOM      6  C   UNL     1      -0.194   9.411  20.050  0.00  0.00    +0.000 C 
ATOM      7  C   UNL     1      -0.954  10.699  20.363  0.00  0.00    +0.000 C 
BRANCH   2  12
ATOM      8  C   UNL     1      -4.182  11.555  17.100  0.00  0.00    +0.000 A 
ATOM      9  C   UNL     1      -3.930  10.515  16.228  0.00  0.00    +0.000 A 
ATOM     10  C   UNL     1      -2.697   9.850  16.260  0.00  0.00    +0.000 A 
ATOM     11  C   UNL     1      -1.707  10.197  17.188  0.00  0.00    +0.000 A 
ATOM     12  C   UNL     1      -1.927  11.231  18.093  0.00  0.00    +0.000 A 
ATOM     13  C   UNL     1      -3.170  11.921  18.007  0.00  0.00    +0.000 A 
BRANCH   8  17
ATOM     14  C   UNL     1      -7.576  13.074  17.779  0.00  0.00    +0.000 C 
ATOM     15  C   UNL     1      -6.493  12.029  17.959  0.00  0.00    +0.000 C 
ATOM     16  O   UNL     1      -6.652  11.095  18.752  0.00  0.00    +0.000 OA
ATOM     17  N   UNL     1      -5.399  12.276  17.147  0.00  0.00    +0.000 N 
ATOM     18  H   UNL     1      -5.438  13.112  16.579  0.00  0.00    +0.000 HD
ENDBRANCH   8  17
ENDBRANCH   2  12
ENDBRANCH   1   5
BRANCH   1  19
ATOM     19  C   UNL     1       2.115   7.987  17.989  0.00  0.00    +0.000 C 
BRANCH  19  20
ATOM     20  C   UNL     1       3.582   7.957  17.497  0.00  0.00    +0.000 C 
BRANCH  20  21
ATOM     21  N   UNL     1       4.411   6.791  17.284  0.00  0.00    +0.000 N 
ATOM     22  C   UNL     1       4.717   5.936  18.346  0.00  0.00    +0.000 A 
ATOM     23  N   UNL     1       6.051   5.939  18.386  0.00  0.00    +0.000 NA
ATOM     24  C   UNL     1       6.357   5.918  17.034  0.00  0.00    +0.000 A 
ATOM     25  C   UNL     1       7.469   5.314  16.425  0.00  0.00    +0.000 A 
ATOM     26  C   UNL     1       7.198   4.589  15.261  0.00  0.00    +0.000 A 
ATOM     27  C   UNL     1       5.917   4.602  14.698  0.00  0.00    +0.000 A 
ATOM     28  C   UNL     1       4.913   5.484  15.145  0.00  0.00    +0.000 A 
ATOM     29  C   UNL     1       5.194   6.229  16.296  0.00  0.00    +0.000 A 
BRANCH  22  30
ATOM     30  C   UNL     1       3.815   4.766  18.532  0.00  0.00    +0.000 A 
ATOM     31  C   UNL     1       3.585   3.845  17.507  0.00  0.00    +0.000 A 
ATOM     32  C   UNL     1       2.510   2.948  17.598  0.00  0.00    +0.000 A 
ATOM     33  C   UNL     1       1.651   2.981  18.699  0.00  0.00    +0.000 A 
ATOM     34 CL   UNL     1       0.292   1.934  18.784  0.00  0.00    +0.000 Cl
ATOM     35  C   UNL     1       1.866   3.886  19.722  0.00  0.00    +0.000 A 
ATOM     36  C   UNL     1       2.947   4.751  19.641  0.00  0.00    +0.000 A 
ENDBRANCH  22  30
ENDBRANCH  20  21
ENDBRANCH  19  20
ENDBRANCH   1  19
TORSDOF 7
ENDMDL
