MODEL 1
REMARK VINA RESULT:      -9.0      0.000      0.000
REMARK  Name = 
REMARK  6 active torsions:
REMARK  status: ('A' for Active; 'I' for Inactive)
REMARK    1  A    between atoms: C_2  and  C_3
REMARK    2  A    between atoms: C_3  and  C_4
REMARK    3  A    between atoms: C_4  and  C_5
REMARK    4  A    between atoms: C_8  and  C_9
REMARK    5  A    between atoms: N_16  and  C_17
REMARK    6  A    between atoms: C_17  and  C_18
REMARK                            x       y       z     vdW  Elec       q    Type
REMARK                         _______ _______ _______ _____ _____    ______ ____
ROOT
ATOM      1  O   UNL     1       6.188   4.973  15.789  0.00  0.00    +0.000 OA
ATOM      2  C   UNL     1       6.389   4.585  16.936  0.00  0.00    +0.000 C 
ATOM      3  N   UNL     1       5.424   3.983  17.710  0.00  0.00    +0.000 N 
ATOM      4  H   UNL     1       5.618   3.773  18.681  0.00  0.00    +0.000 HD
ENDROOT
BRANCH   2   5
ATOM      5  C   UNL     1       7.731   4.703  17.625  0.00  0.00    +0.000 C 
BRANCH   5   6
ATOM      6  C   UNL     1       7.683   5.703  18.781  0.00  0.00    +0.000 C 
BRANCH   6   7
ATOM      7  C   UNL     1       7.849   7.097  18.304  0.00  0.00    +0.000 A 
ATOM      8  N   UNL     1       7.290   7.700  17.278  0.00  0.00    +0.000 NA
ATOM      9  N   UNL     1       7.741   9.000  17.299  0.00  0.00    +0.000 NA
ATOM     10  C   UNL     1       8.558   9.104  18.332  0.00  0.00    +0.000 A 
ATOM     11  O   UNL     1       8.678   7.923  19.023  0.00  0.00    +0.000 OA
BRANCH  10  12
ATOM     12  C   UNL     1       9.334  10.255  18.776  0.00  0.00    +0.000 A 
ATOM     13  C   UNL     1       9.417  10.534  20.150  0.00  0.00    +0.000 A 
ATOM     14  C   UNL     1      10.074  11.674  20.618  0.00  0.00    +0.000 A 
ATOM     15  C   UNL     1      10.666  12.552  19.713  0.00  0.00    +0.000 A 
ATOM     16  C   UNL     1      10.624  12.274  18.347  0.00  0.00    +0.000 A 
ATOM     17  C   UNL     1       9.968  11.130  17.880  0.00  0.00    +0.000 A 
ENDBRANCH  10  12
ENDBRANCH   6   7
ENDBRANCH   5   6
ENDBRANCH   2   5
BRANCH   3  18
ATOM     18  C   UNL     1       4.077   3.758  17.230  0.00  0.00    +0.000 C 
BRANCH  18  19
ATOM     19  C   UNL     1       3.092   3.654  18.360  0.00  0.00    +0.000 A 
ATOM     20  C   UNL     1       2.624   4.803  19.013  0.00  0.00    +0.000 A 
ATOM     21  C   UNL     1       1.727   4.684  20.072  0.00  0.00    +0.000 A 
ATOM     22  F   UNL     1       1.284   5.787  20.689  0.00  0.00    +0.000 F 
ATOM     23  C   UNL     1       1.284   3.437  20.503  0.00  0.00    +0.000 A 
ATOM     24  C   UNL     1       1.744   2.289  19.862  0.00  0.00    +0.000 A 
ATOM     25  C   UNL     1       2.643   2.405  18.802  0.00  0.00    +0.000 A 
ATOM     26  F   UNL     1       3.080   1.289  18.202  0.00  0.00    +0.000 F 
ENDBRANCH  18  19
ENDBRANCH   3  18
TORSDOF 6
ENDMDL
MODEL 2
REMARK VINA RESULT:      -8.7      3.387      9.263
REMARK  Name = 
REMARK  6 active torsions:
REMARK  status: ('A' for Active; 'I' for Inactive)
REMARK    1  A    between atoms: C_2  and  C_3
REMARK    2  A    between atoms: C_3  and  C_4
REMARK    3  A    between atoms: C_4  and  C_5
REMARK    4  A    between atoms: C_8  and  C_9
REMARK    5  A    between atoms: N_16  and  C_17
REMARK    6  A    between atoms: C_17  and  C_18
REMARK                            x       y       z     vdW  Elec       q    Type
REMARK                         _______ _______ _______ _____ _____    ______ ____
ROOT
ATOM      1  O   UNL     1       7.326   7.490  16.744  0.00  0.00    +0.000 OA
ATOM      2  C   UNL     1       7.798   7.449  17.877  0.00  0.00    +0.000 C 
ATOM      3  N   UNL     1       8.359   8.538  18.502  0.00  0.00    +0.000 N 
ATOM      4  H   UNL     1       8.820   8.422  19.397  0.00  0.00    +0.000 HD
ENDROOT
BRANCH   2   5
ATOM      5  C   UNL     1       7.796   6.198  18.728  0.00  0.00    +0.000 C 
BRANCH   5   6
ATOM      6  C   UNL     1       7.763   4.933  17.868  0.00  0.00    +0.000 C 
BRANCH   6   7
ATOM      7  C   UNL     1       6.372   4.502  17.585  0.00  0.00    +0.000 A 
ATOM      8  N   UNL     1       5.822   4.155  16.443  0.00  0.00    +0.000 NA
ATOM      9  N   UNL     1       4.525   3.797  16.729  0.00  0.00    +0.000 NA
ATOM     10  C   UNL     1       4.362   3.960  18.030  0.00  0.00    +0.000 A 
ATOM     11  O   UNL     1       5.504   4.411  18.646  0.00  0.00    +0.000 OA
BRANCH  10  12
ATOM     12  C   UNL     1       3.164   3.764  18.836  0.00  0.00    +0.000 A 
ATOM     13  C   UNL     1       2.201   2.833  18.412  0.00  0.00    +0.000 A 
ATOM     14  C   UNL     1       0.997   2.673  19.103  0.00  0.00    +0.000 A 
ATOM     15  C   UNL     1       0.743   3.441  20.236  0.00  0.00    +0.000 A 
ATOM     16  C   UNL     1       1.702   4.344  20.693  0.00  0.00    +0.000 A 
ATOM     17  C   UNL     1       2.908   4.501  20.002  0.00  0.00    +0.000 A 
ENDBRANCH  10  12
ENDBRANCH   6   7
ENDBRANCH   5   6
ENDBRANCH   2   5
BRANCH   3  18
ATOM     18  C   UNL     1       8.441   9.836  17.867  0.00  0.00    +0.000 C 
BRANCH  18  19
ATOM     19  C   UNL     1       9.507  10.695  18.488  0.00  0.00    +0.000 A 
ATOM     20  C   UNL     1      10.439  11.372  17.689  0.00  0.00    +0.000 A 
ATOM     21  C   UNL     1      11.432  12.147  18.285  0.00  0.00    +0.000 A 
ATOM     22  F   UNL     1      12.318  12.791  17.513  0.00  0.00    +0.000 F 
ATOM     23  C   UNL     1      11.523  12.260  19.668  0.00  0.00    +0.000 A 
ATOM     24  C   UNL     1      10.603  11.590  20.472  0.00  0.00    +0.000 A 
ATOM     25  C   UNL     1       9.608  10.813  19.878  0.00  0.00    +0.000 A 
ATOM     26  F   UNL     1       8.736  10.170  20.666  0.00  0.00    +0.000 F 
ENDBRANCH  18  19
ENDBRANCH   3  18
TORSDOF 6
ENDMDL
MODEL 3
REMARK VINA RESULT:      -8.5      3.951      5.194
REMARK  Name = 
REMARK  6 active torsions:
REMARK  status: ('A' for Active; 'I' for Inactive)
REMARK    1  A    between atoms: C_2  and  C_3
REMARK    2  A    between atoms: C_3  and  C_4
REMARK    3  A    between atoms: C_4  and  C_5
REMARK    4  A    between atoms: C_8  and  C_9
REMARK    5  A    between atoms: N_16  and  C_17
REMARK    6  A    between atoms: C_17  and  C_18
REMARK                            x       y       z     vdW  Elec       q    Type
REMARK                         _______ _______ _______ _____ _____    ______ ____
ROOT
ATOM      1  O   UNL     1       6.721   5.251  19.854  0.00  0.00    +0.000 OA
ATOM      2  C   UNL     1       6.510   4.637  18.812  0.00  0.00    +0.000 C 
ATOM      3  N   UNL     1       5.703   3.526  18.739  0.00  0.00    +0.000 N 
ATOM      4  H   UNL     1       5.643   3.003  17.874  0.00  0.00    +0.000 HD
ENDROOT
BRANCH   2   5
ATOM      5  C   UNL     1       7.097   5.046  17.479  0.00  0.00    +0.000 C 
BRANCH   5   6
ATOM      6  C   UNL     1       6.386   6.272  16.904  0.00  0.00    +0.000 C 
BRANCH   6   7
ATOM      7  C   UNL     1       4.939   6.267  17.231  0.00  0.00    +0.000 A 
ATOM      8  N   UNL     1       4.041   5.328  17.029  0.00  0.00    +0.000 NA
ATOM      9  N   UNL     1       2.861   5.800  17.556  0.00  0.00    +0.000 NA
ATOM     10  C   UNL     1       3.112   7.005  18.036  0.00  0.00    +0.000 A 
ATOM     11  O   UNL     1       4.424   7.371  17.864  0.00  0.00    +0.000 OA
BRANCH  10  12
ATOM     12  C   UNL     1       2.197   7.952  18.661  0.00  0.00    +0.000 A 
ATOM     13  C   UNL     1       1.693   9.018  17.897  0.00  0.00    +0.000 A 
ATOM     14  C   UNL     1       0.885  10.000  18.474  0.00  0.00    +0.000 A 
ATOM     15  C   UNL     1       0.563   9.925  19.827  0.00  0.00    +0.000 A 
ATOM     16  C   UNL     1       1.025   8.856  20.592  0.00  0.00    +0.000 A 
ATOM     17  C   UNL     1       1.832   7.870  20.013  0.00  0.00    +0.000 A 
ENDBRANCH  10  12
ENDBRANCH   6   7
ENDBRANCH   5   6
ENDBRANCH   2   5
BRANCH   3  18
ATOM     18  C   UNL     1       5.030   2.982  19.900  0.00  0.00    +0.000 C 
BRANCH  18  19
ATOM     19  C   UNL     1       3.536   3.080  19.776  0.00  0.00    +0.000 A 
ATOM     20  C   UNL     1       2.824   4.087  20.443  0.00  0.00    +0.000 A 
ATOM     21  C   UNL     1       1.437   4.149  20.332  0.00  0.00    +0.000 A 
ATOM     22  F   UNL     1       0.766   5.115  20.973  0.00  0.00    +0.000 F 
ATOM     23  C   UNL     1       0.735   3.221  19.570  0.00  0.00    +0.000 A 
ATOM     24  C   UNL     1       1.431   2.215  18.903  0.00  0.00    +0.000 A 
ATOM     25  C   UNL     1       2.820   2.151  19.014  0.00  0.00    +0.000 A 
ATOM     26  F   UNL     1       3.474   1.172  18.372  0.00  0.00    +0.000 F 
ENDBRANCH  18  19
ENDBRANCH   3  18
TORSDOF 6
ENDMDL
MODEL 4
REMARK VINA RESULT:      -8.5      1.993      2.750
REMARK  Name = 
REMARK  6 active torsions:
REMARK  status: ('A' for Active; 'I' for Inactive)
REMARK    1  A    between atoms: C_2  and  C_3
REMARK    2  A    between atoms: C_3  and  C_4
REMARK    3  A    between atoms: C_4  and  C_5
REMARK    4  A    between atoms: C_8  and  C_9
REMARK    5  A    between atoms: N_16  and  C_17
REMARK    6  A    between atoms: C_17  and  C_18
REMARK                            x       y       z     vdW  Elec       q    Type
REMARK                         _______ _______ _______ _____ _____    ______ ____
ROOT
ATOM      1  O   UNL     1       5.499   4.112  19.524  0.00  0.00    +0.000 OA
ATOM      2  C   UNL     1       5.717   4.565  18.404  0.00  0.00    +0.000 C 
ATOM      3  N   UNL     1       4.721   4.935  17.531  0.00  0.00    +0.000 N 
ATOM      4  H   UNL     1       4.957   5.210  16.586  0.00  0.00    +0.000 HD
ENDROOT
BRANCH   2   5
ATOM      5  C   UNL     1       7.112   4.794  17.862  0.00  0.00    +0.000 C 
BRANCH   5   6
ATOM      6  C   UNL     1       7.928   5.707  18.778  0.00  0.00    +0.000 C 
BRANCH   6   7
ATOM      7  C   UNL     1       7.950   7.103  18.279  0.00  0.00    +0.000 A 
ATOM      8  N   UNL     1       7.360   7.622  17.224  0.00  0.00    +0.000 NA
ATOM      9  N   UNL     1       7.659   8.965  17.233  0.00  0.00    +0.000 NA
ATOM     10  C   UNL     1       8.425   9.179  18.289  0.00  0.00    +0.000 A 
ATOM     11  O   UNL     1       8.654   8.030  19.007  0.00  0.00    +0.000 OA
BRANCH  10  12
ATOM     12  C   UNL     1       9.049  10.418  18.733  0.00  0.00    +0.000 A 
ATOM     13  C   UNL     1       9.030  11.535  17.881  0.00  0.00    +0.000 A 
ATOM     14  C   UNL     1       9.691  12.716  18.224  0.00  0.00    +0.000 A 
ATOM     15  C   UNL     1      10.377  12.799  19.433  0.00  0.00    +0.000 A 
ATOM     16  C   UNL     1      10.378  11.713  20.307  0.00  0.00    +0.000 A 
ATOM     17  C   UNL     1       9.713  10.531  19.964  0.00  0.00    +0.000 A 
ENDBRANCH  10  12
ENDBRANCH   6   7
ENDBRANCH   5   6
ENDBRANCH   2   5
BRANCH   3  18
ATOM     18  C   UNL     1       3.317   4.814  17.864  0.00  0.00    +0.000 C 
BRANCH  18  19
ATOM     19  C   UNL     1       2.769   6.090  18.439  0.00  0.00    +0.000 A 
ATOM     20  C   UNL     1       2.611   7.229  17.637  0.00  0.00    +0.000 A 
ATOM     21  C   UNL     1       2.120   8.408  18.193  0.00  0.00    +0.000 A 
ATOM     22  F   UNL     1       1.972   9.491  17.419  0.00  0.00    +0.000 F 
ATOM     23  C   UNL     1       1.785   8.483  19.541  0.00  0.00    +0.000 A 
ATOM     24  C   UNL     1       1.939   7.357  20.347  0.00  0.00    +0.000 A 
ATOM     25  C   UNL     1       2.430   6.176  19.793  0.00  0.00    +0.000 A 
ATOM     26  F   UNL     1       2.579   5.104  20.586  0.00  0.00    +0.000 F 
ENDBRANCH  18  19
ENDBRANCH   3  18
TORSDOF 6
ENDMDL
MODEL 5
REMARK VINA RESULT:      -8.5      4.240      6.841
REMARK  Name = 
REMARK  6 active torsions:
REMARK  status: ('A' for Active; 'I' for Inactive)
REMARK    1  A    between atoms: C_2  and  C_3
REMARK    2  A    between atoms: C_3  and  C_4
REMARK    3  A    between atoms: C_4  and  C_5
REMARK    4  A    between atoms: C_8  and  C_9
REMARK    5  A    between atoms: N_16  and  C_17
REMARK    6  A    between atoms: C_17  and  C_18
REMARK                            x       y       z     vdW  Elec       q    Type
REMARK                         _______ _______ _______ _____ _____    ______ ____
ROOT
ATOM      1  O   UNL     1       2.601   7.903  17.489  0.00  0.00    +0.000 OA
ATOM      2  C   UNL     1       3.559   7.227  17.853  0.00  0.00    +0.000 C 
ATOM      3  N   UNL     1       3.518   6.376  18.932  0.00  0.00    +0.000 N 
ATOM      4  H   UNL     1       4.365   5.918  19.245  0.00  0.00    +0.000 HD
ENDROOT
BRANCH   2   5
ATOM      5  C   UNL     1       4.894   7.234  17.139  0.00  0.00    +0.000 C 
BRANCH   5   6
ATOM      6  C   UNL     1       5.593   5.878  17.241  0.00  0.00    +0.000 C 
BRANCH   6   7
ATOM      7  C   UNL     1       6.249   5.504  15.965  0.00  0.00    +0.000 A 
ATOM      8  N   UNL     1       7.437   5.834  15.510  0.00  0.00    +0.000 NA
ATOM      9  N   UNL     1       7.584   5.191  14.302  0.00  0.00    +0.000 NA
ATOM     10  C   UNL     1       6.467   4.518  14.091  0.00  0.00    +0.000 A 
ATOM     11  O   UNL     1       5.564   4.671  15.115  0.00  0.00    +0.000 OA
BRANCH  10  12
ATOM     12  C   UNL     1       6.089   3.706  12.941  0.00  0.00    +0.000 A 
ATOM     13  C   UNL     1       4.759   3.739  12.490  0.00  0.00    +0.000 A 
ATOM     14  C   UNL     1       4.329   2.912  11.449  0.00  0.00    +0.000 A 
ATOM     15  C   UNL     1       5.229   2.043  10.839  0.00  0.00    +0.000 A 
ATOM     16  C   UNL     1       6.561   2.021  11.250  0.00  0.00    +0.000 A 
ATOM     17  C   UNL     1       6.992   2.852  12.290  0.00  0.00    +0.000 A 
ENDBRANCH  10  12
ENDBRANCH   6   7
ENDBRANCH   5   6
ENDBRANCH   2   5
BRANCH   3  18
ATOM     18  C   UNL     1       2.327   6.208  19.738  0.00  0.00    +0.000 C 
BRANCH  18  19
ATOM     19  C   UNL     1       1.884   4.773  19.788  0.00  0.00    +0.000 A 
ATOM     20  C   UNL     1       1.921   4.051  20.989  0.00  0.00    +0.000 A 
ATOM     21  C   UNL     1       1.526   2.715  21.010  0.00  0.00    +0.000 A 
ATOM     22  F   UNL     1       1.564   2.034  22.162  0.00  0.00    +0.000 F 
ATOM     23  C   UNL     1       1.096   2.074  19.852  0.00  0.00    +0.000 A 
ATOM     24  C   UNL     1       1.056   2.782  18.653  0.00  0.00    +0.000 A 
ATOM     25  C   UNL     1       1.452   4.119  18.629  0.00  0.00    +0.000 A 
ATOM     26  F   UNL     1       1.414   4.782  17.465  0.00  0.00    +0.000 F 
ENDBRANCH  18  19
ENDBRANCH   3  18
TORSDOF 6
ENDMDL
MODEL 6
REMARK VINA RESULT:      -8.5      0.867      1.273
REMARK  Name = 
REMARK  6 active torsions:
REMARK  status: ('A' for Active; 'I' for Inactive)
REMARK    1  A    between atoms: C_2  and  C_3
REMARK    2  A    between atoms: C_3  and  C_4
REMARK    3  A    between atoms: C_4  and  C_5
REMARK    4  A    between atoms: C_8  and  C_9
REMARK    5  A    between atoms: N_16  and  C_17
REMARK    6  A    between atoms: C_17  and  C_18
REMARK                            x       y       z     vdW  Elec       q    Type
REMARK                         _______ _______ _______ _____ _____    ______ ____
ROOT
ATOM      1  O   UNL     1       4.868   6.263  16.427  0.00  0.00    +0.000 OA
ATOM      2  C   UNL     1       5.578   5.356  16.850  0.00  0.00    +0.000 C 
ATOM      3  N   UNL     1       5.083   4.153  17.297  0.00  0.00    +0.000 N 
ATOM      4  H   UNL     1       5.707   3.481  17.725  0.00  0.00    +0.000 HD
ENDROOT
BRANCH   2   5
ATOM      5  C   UNL     1       7.088   5.448  16.909  0.00  0.00    +0.000 C 
BRANCH   5   6
ATOM      6  C   UNL     1       7.561   6.113  18.202  0.00  0.00    +0.000 C 
BRANCH   6   7
ATOM      7  C   UNL     1       7.797   7.564  18.014  0.00  0.00    +0.000 A 
ATOM      8  N   UNL     1       7.243   8.397  17.161  0.00  0.00    +0.000 NA
ATOM      9  N   UNL     1       7.773   9.638  17.428  0.00  0.00    +0.000 NA
ATOM     10  C   UNL     1       8.630   9.481  18.422  0.00  0.00    +0.000 A 
ATOM     11  O   UNL     1       8.699   8.178  18.849  0.00  0.00    +0.000 OA
BRANCH  10  12
ATOM     12  C   UNL     1       9.490  10.472  19.056  0.00  0.00    +0.000 A 
ATOM     13  C   UNL     1      10.569  11.004  18.330  0.00  0.00    +0.000 A 
ATOM     14  C   UNL     1      11.472  11.888  18.923  0.00  0.00    +0.000 A 
ATOM     15  C   UNL     1      11.304  12.259  20.255  0.00  0.00    +0.000 A 
ATOM     16  C   UNL     1      10.220  11.769  20.981  0.00  0.00    +0.000 A 
ATOM     17  C   UNL     1       9.314  10.886  20.385  0.00  0.00    +0.000 A 
ENDBRANCH  10  12
ENDBRANCH   6   7
ENDBRANCH   5   6
ENDBRANCH   2   5
BRANCH   3  18
ATOM     18  C   UNL     1       3.666   3.857  17.306  0.00  0.00    +0.000 C 
BRANCH  18  19
ATOM     19  C   UNL     1       3.095   3.902  18.695  0.00  0.00    +0.000 A 
ATOM     20  C   UNL     1       2.541   5.084  19.205  0.00  0.00    +0.000 A 
ATOM     21  C   UNL     1       2.036   5.111  20.503  0.00  0.00    +0.000 A 
ATOM     22  F   UNL     1       1.507   6.245  20.982  0.00  0.00    +0.000 F 
ATOM     23  C   UNL     1       2.073   3.981  21.313  0.00  0.00    +0.000 A 
ATOM     24  C   UNL     1       2.622   2.801  20.817  0.00  0.00    +0.000 A 
ATOM     25  C   UNL     1       3.130   2.772  19.518  0.00  0.00    +0.000 A 
ATOM     26  F   UNL     1       3.661   1.629  19.059  0.00  0.00    +0.000 F 
ENDBRANCH  18  19
ENDBRANCH   3  18
TORSDOF 6
ENDMDL
MODEL 7
REMARK VINA RESULT:      -8.4      1.218      1.370
REMARK  Name = 
REMARK  6 active torsions:
REMARK  status: ('A' for Active; 'I' for Inactive)
REMARK    1  A    between atoms: C_2  and  C_3
REMARK    2  A    between atoms: C_3  and  C_4
REMARK    3  A    between atoms: C_4  and  C_5
REMARK    4  A    between atoms: C_8  and  C_9
REMARK    5  A    between atoms: N_16  and  C_17
REMARK    6  A    between atoms: C_17  and  C_18
REMARK                            x       y       z     vdW  Elec       q    Type
REMARK                         _______ _______ _______ _____ _____    ______ ____
ROOT
ATOM      1  O   UNL     1       5.646   5.924  15.532  0.00  0.00    +0.000 OA
ATOM      2  C   UNL     1       5.990   5.796  16.704  0.00  0.00    +0.000 C 
ATOM      3  N   UNL     1       5.111   5.846  17.760  0.00  0.00    +0.000 N 
ATOM      4  H   UNL     1       5.463   5.832  18.709  0.00  0.00    +0.000 HD
ENDROOT
BRANCH   2   5
ATOM      5  C   UNL     1       7.423   5.544  17.121  0.00  0.00    +0.000 C 
BRANCH   5   6
ATOM      6  C   UNL     1       7.762   6.263  18.427  0.00  0.00    +0.000 C 
BRANCH   6   7
ATOM      7  C   UNL     1       7.980   7.714  18.210  0.00  0.00    +0.000 A 
ATOM      8  N   UNL     1       7.413   8.523  17.343  0.00  0.00    +0.000 NA
ATOM      9  N   UNL     1       7.929   9.775  17.584  0.00  0.00    +0.000 NA
ATOM     10  C   UNL     1       8.790   9.648  18.578  0.00  0.00    +0.000 A 
ATOM     11  O   UNL     1       8.876   8.354  19.031  0.00  0.00    +0.000 OA
BRANCH  10  12
ATOM     12  C   UNL     1       9.640  10.661  19.190  0.00  0.00    +0.000 A 
ATOM     13  C   UNL     1       9.367  11.077  20.504  0.00  0.00    +0.000 A 
ATOM     14  C   UNL     1      10.098  12.107  21.102  0.00  0.00    +0.000 A 
ATOM     15  C   UNL     1      11.120  12.732  20.392  0.00  0.00    +0.000 A 
ATOM     16  C   UNL     1      11.428  12.310  19.100  0.00  0.00    +0.000 A 
ATOM     17  C   UNL     1      10.698  11.276  18.504  0.00  0.00    +0.000 A 
ENDBRANCH  10  12
ENDBRANCH   6   7
ENDBRANCH   5   6
ENDBRANCH   2   5
BRANCH   3  18
ATOM     18  C   UNL     1       3.691   6.059  17.573  0.00  0.00    +0.000 C 
BRANCH  18  19
ATOM     19  C   UNL     1       2.883   4.887  18.054  0.00  0.00    +0.000 A 
ATOM     20  C   UNL     1       2.079   4.990  19.199  0.00  0.00    +0.000 A 
ATOM     21  C   UNL     1       1.353   3.886  19.641  0.00  0.00    +0.000 A 
ATOM     22  F   UNL     1       0.587   3.995  20.734  0.00  0.00    +0.000 F 
ATOM     23  C   UNL     1       1.413   2.670  18.968  0.00  0.00    +0.000 A 
ATOM     24  C   UNL     1       2.210   2.556  17.831  0.00  0.00    +0.000 A 
ATOM     25  C   UNL     1       2.938   3.659  17.387  0.00  0.00    +0.000 A 
ATOM     26  F   UNL     1       3.704   3.529  16.295  0.00  0.00    +0.000 F 
ENDBRANCH  18  19
ENDBRANCH   3  18
TORSDOF 6
ENDMDL
MODEL 8
REMARK VINA RESULT:      -8.3      1.443      1.553
REMARK  Name = 
REMARK  6 active torsions:
REMARK  status: ('A' for Active; 'I' for Inactive)
REMARK    1  A    between atoms: C_2  and  C_3
REMARK    2  A    between atoms: C_3  and  C_4
REMARK    3  A    between atoms: C_4  and  C_5
REMARK    4  A    between atoms: C_8  and  C_9
REMARK    5  A    between atoms: N_16  and  C_17
REMARK    6  A    between atoms: C_17  and  C_18
REMARK                            x       y       z     vdW  Elec       q    Type
REMARK                         _______ _______ _______ _____ _____    ______ ____
ROOT
ATOM      1  O   UNL     1       5.411   3.854  18.277  0.00  0.00    +0.000 OA
ATOM      2  C   UNL     1       5.529   4.962  18.794  0.00  0.00    +0.000 C 
ATOM      3  N   UNL     1       4.540   5.917  18.766  0.00  0.00    +0.000 N 
ATOM      4  H   UNL     1       4.728   6.846  19.123  0.00  0.00    +0.000 HD
ENDROOT
BRANCH   2   5
ATOM      5  C   UNL     1       6.770   5.397  19.543  0.00  0.00    +0.000 C 
BRANCH   5   6
ATOM      6  C   UNL     1       7.919   5.718  18.588  0.00  0.00    +0.000 C 
BRANCH   6   7
ATOM      7  C   UNL     1       7.869   7.127  18.128  0.00  0.00    +0.000 A 
ATOM      8  N   UNL     1       7.157   7.666  17.163  0.00  0.00    +0.000 NA
ATOM      9  N   UNL     1       7.441   9.013  17.176  0.00  0.00    +0.000 NA
ATOM     10  C   UNL     1       8.320   9.208  18.143  0.00  0.00    +0.000 A 
ATOM     11  O   UNL     1       8.643   8.044  18.797  0.00  0.00    +0.000 OA
BRANCH  10  12
ATOM     12  C   UNL     1       8.978  10.444  18.547  0.00  0.00    +0.000 A 
ATOM     13  C   UNL     1       9.731  10.459  19.734  0.00  0.00    +0.000 A 
ATOM     14  C   UNL     1      10.307  11.639  20.209  0.00  0.00    +0.000 A 
ATOM     15  C   UNL     1      10.142  12.825  19.497  0.00  0.00    +0.000 A 
ATOM     16  C   UNL     1       9.428  12.822  18.299  0.00  0.00    +0.000 A 
ATOM     17  C   UNL     1       8.855  11.639  17.823  0.00  0.00    +0.000 A 
ENDBRANCH  10  12
ENDBRANCH   6   7
ENDBRANCH   5   6
ENDBRANCH   2   5
BRANCH   3  18
ATOM     18  C   UNL     1       3.266   5.693  18.116  0.00  0.00    +0.000 C 
BRANCH  18  19
ATOM     19  C   UNL     1       2.472   4.617  18.801  0.00  0.00    +0.000 A 
ATOM     20  C   UNL     1       2.392   4.564  20.201  0.00  0.00    +0.000 A 
ATOM     21  C   UNL     1       1.668   3.546  20.817  0.00  0.00    +0.000 A 
ATOM     22  F   UNL     1       1.596   3.504  22.154  0.00  0.00    +0.000 F 
ATOM     23  C   UNL     1       1.019   2.569  20.068  0.00  0.00    +0.000 A 
ATOM     24  C   UNL     1       1.093   2.611  18.678  0.00  0.00    +0.000 A 
ATOM     25  C   UNL     1       1.818   3.629  18.058  0.00  0.00    +0.000 A 
ATOM     26  F   UNL     1       1.885   3.650  16.719  0.00  0.00    +0.000 F 
ENDBRANCH  18  19
ENDBRANCH   3  18
TORSDOF 6
ENDMDL
MODEL 9
REMARK VINA RESULT:      -8.3      3.612      9.323
REMARK  Name = 
REMARK  6 active torsions:
REMARK  status: ('A' for Active; 'I' for Inactive)
REMARK    1  A    between atoms: C_2  and  C_3
REMARK    2  A    between atoms: C_3  and  C_4
REMARK    3  A    between atoms: C_4  and  C_5
REMARK    4  A    between atoms: C_8  and  C_9
REMARK    5  A    between atoms: N_16  and  C_17
REMARK    6  A    between atoms: C_17  and  C_18
REMARK                            x       y       z     vdW  Elec       q    Type
REMARK                         _______ _______ _______ _____ _____    ______ ____
ROOT
ATOM      1  O   UNL     1       7.835   7.781  16.822  0.00  0.00    +0.000 OA
ATOM      2  C   UNL     1       8.107   7.700  18.017  0.00  0.00    +0.000 C 
ATOM      3  N   UNL     1       8.575   8.758  18.759  0.00  0.00    +0.000 N 
ATOM      4  H   UNL     1       8.875   8.609  19.715  0.00  0.00    +0.000 HD
ENDROOT
BRANCH   2   5
ATOM      5  C   UNL     1       7.934   6.428  18.819  0.00  0.00    +0.000 C 
BRANCH   5   6
ATOM      6  C   UNL     1       7.290   5.321  17.985  0.00  0.00    +0.000 C 
BRANCH   6   7
ATOM      7  C   UNL     1       5.818   5.482  17.906  0.00  0.00    +0.000 A 
ATOM      8  N   UNL     1       5.111   6.406  17.294  0.00  0.00    +0.000 NA
ATOM      9  N   UNL     1       3.789   6.076  17.488  0.00  0.00    +0.000 NA
ATOM     10  C   UNL     1       3.773   4.975  18.219  0.00  0.00    +0.000 A 
ATOM     11  O   UNL     1       5.039   4.536  18.526  0.00  0.00    +0.000 OA
BRANCH  10  12
ATOM     12  C   UNL     1       2.631   4.236  18.739  0.00  0.00    +0.000 A 
ATOM     13  C   UNL     1       2.032   4.660  19.937  0.00  0.00    +0.000 A 
ATOM     14  C   UNL     1       0.992   3.933  20.521  0.00  0.00    +0.000 A 
ATOM     15  C   UNL     1       0.531   2.771  19.908  0.00  0.00    +0.000 A 
ATOM     16  C   UNL     1       1.089   2.353  18.701  0.00  0.00    +0.000 A 
ATOM     17  C   UNL     1       2.128   3.084  18.115  0.00  0.00    +0.000 A 
ENDBRANCH  10  12
ENDBRANCH   6   7
ENDBRANCH   5   6
ENDBRANCH   2   5
BRANCH   3  18
ATOM     18  C   UNL     1       8.792  10.070  18.184  0.00  0.00    +0.000 C 
BRANCH  18  19
ATOM     19  C   UNL     1       9.608  10.948  19.089  0.00  0.00    +0.000 A 
ATOM     20  C   UNL     1       9.194  11.207  20.404  0.00  0.00    +0.000 A 
ATOM     21  C   UNL     1       9.955  12.041  21.221  0.00  0.00    +0.000 A 
ATOM     22  F   UNL     1       9.552  12.281  22.475  0.00  0.00    +0.000 F 
ATOM     23  C   UNL     1      11.125  12.632  20.755  0.00  0.00    +0.000 A 
ATOM     24  C   UNL     1      11.545  12.382  19.450  0.00  0.00    +0.000 A 
ATOM     25  C   UNL     1      10.785  11.548  18.630  0.00  0.00    +0.000 A 
ATOM     26  F   UNL     1      11.201  11.325  17.376  0.00  0.00    +0.000 F 
ENDBRANCH  18  19
ENDBRANCH   3  18
TORSDOF 6
ENDMDL
