MODEL 1
REMARK VINA RESULT:      -9.4      0.000      0.000
REMARK  Name = 
REMARK  8 active torsions:
REMARK  status: ('A' for Active; 'I' for Inactive)
REMARK    1  A    between atoms: N_6  and  C_7
REMARK    2  A    between atoms: C_7  and  C_8
REMARK    3  A    between atoms: C_8  and  C_9
REMARK    4  A    between atoms: C_9  and  C_10
REMARK    5  A    between atoms: C_10  and  C_11
REMARK    6  A    between atoms: C_11  and  C_12
REMARK    7  A    between atoms: C_12  and  C_13
REMARK    8  A    between atoms: C_13  and  N_14
REMARK                            x       y       z     vdW  Elec       q    Type
REMARK                         _______ _______ _______ _____ _____    ______ ____
ROOT
ATOM      1  C   UNL     1       1.088   9.234  20.237  0.00  0.00    +0.000 C 
ENDROOT
BRANCH   1   2
ATOM      2  C   UNL     1      -0.219   9.448  20.998  0.00  0.00    +0.000 C 
BRANCH   2   3
ATOM      3  C   UNL     1      -0.112  10.694  21.916  0.00  0.00    +0.000 C 
BRANCH   3   4
ATOM      4  C   UNL     1      -0.883  11.829  21.264  0.00  0.00    +0.000 C 
BRANCH   4  10
ATOM      5  C   UNL     1      -3.790  10.776  15.670  0.00  0.00    +0.000 A 
ATOM      6  C   UNL     1      -2.494  10.508  16.100  0.00  0.00    +0.000 A 
ATOM      7  C   UNL     1      -2.113  10.844  17.398  0.00  0.00    +0.000 A 
ATOM      8  C   UNL     1      -3.032  11.454  18.269  0.00  0.00    +0.000 A 
ATOM      9  C   UNL     1      -2.642  11.851  19.670  0.00  0.00    +0.000 A 
ATOM     10  N   UNL     1      -1.409  11.562  19.951  0.00  0.00    +0.000 NA
ATOM     11  N   UNL     1      -3.697  12.464  20.423  0.00  0.00    +0.000 N 
ATOM     12  C   UNL     1      -4.985  12.601  19.885  0.00  0.00    +0.000 A 
ATOM     13  N   UNL     1      -5.318  12.266  18.674  0.00  0.00    +0.000 NA
ATOM     14  C   UNL     1      -4.340  11.703  17.851  0.00  0.00    +0.000 A 
ATOM     15  C   UNL     1      -4.707  11.365  16.544  0.00  0.00    +0.000 A 
ATOM     16  C   UNL     1      -6.129  13.229  20.678  0.00  0.00    +0.000 C 
ATOM     17  C   UNL     1      -5.917  13.195  22.173  0.00  0.00    +0.000 C 
ATOM     18  C   UNL     1      -4.544  13.746  22.449  0.00  0.00    +0.000 C 
ATOM     19  C   UNL     1      -3.497  12.832  21.839  0.00  0.00    +0.000 C 
ENDBRANCH   4  10
ENDBRANCH   3   4
ENDBRANCH   2   3
ENDBRANCH   1   2
BRANCH   1  20
ATOM     20  C   UNL     1       1.237   9.955  18.898  0.00  0.00    +0.000 C 
BRANCH  20  21
ATOM     21  C   UNL     1       1.735   8.972  17.810  0.00  0.00    +0.000 C 
BRANCH  21  22
ATOM     22  C   UNL     1       2.510   7.856  18.492  0.00  0.00    +0.000 C 
BRANCH  22  23
ATOM     23  N   UNL     1       3.408   7.133  17.636  0.00  0.00    +0.000 NA
ATOM     24  C   UNL     1       3.522   5.835  17.750  0.00  0.00    +0.000 A 
ATOM     25  C   UNL     1       2.730   4.888  18.663  0.00  0.00    +0.000 A 
ATOM     26  C   UNL     1       1.776   5.248  19.638  0.00  0.00    +0.000 A 
ATOM     27  C   UNL     1       1.089   4.297  20.401  0.00  0.00    +0.000 A 
ATOM     28  C   UNL     1       1.349   2.952  20.215  0.00  0.00    +0.000 A 
ATOM     29  C   UNL     1       2.297   2.569  19.268  0.00  0.00    +0.000 A 
ATOM     30  C   UNL     1       2.988   3.516  18.492  0.00  0.00    +0.000 A 
ATOM     31  N   UNL     1       3.915   2.996  17.573  0.00  0.00    +0.000 NA
ATOM     32  C   UNL     1       4.600   3.827  16.852  0.00  0.00    +0.000 A 
ATOM     33  N   UNL     1       4.478   5.208  16.932  0.00  0.00    +0.000 N 
ATOM     34  C   UNL     1       5.250   6.095  16.042  0.00  0.00    +0.000 C 
ATOM     35  C   UNL     1       6.474   5.436  15.431  0.00  0.00    +0.000 C 
ATOM     36  C   UNL     1       6.081   4.107  14.819  0.00  0.00    +0.000 C 
ATOM     37  C   UNL     1       5.611   3.180  15.918  0.00  0.00    +0.000 C 
ENDBRANCH  22  23
ENDBRANCH  21  22
ENDBRANCH  20  21
ENDBRANCH   1  20
TORSDOF 8
ENDMDL
MODEL 2
REMARK VINA RESULT:      -9.3      1.755      3.672
REMARK  Name = 
REMARK  8 active torsions:
REMARK  status: ('A' for Active; 'I' for Inactive)
REMARK    1  A    between atoms: N_6  and  C_7
REMARK    2  A    between atoms: C_7  and  C_8
REMARK    3  A    between atoms: C_8  and  C_9
REMARK    4  A    between atoms: C_9  and  C_10
REMARK    5  A    between atoms: C_10  and  C_11
REMARK    6  A    between atoms: C_11  and  C_12
REMARK    7  A    between atoms: C_12  and  C_13
REMARK    8  A    between atoms: C_13  and  N_14
REMARK                            x       y       z     vdW  Elec       q    Type
REMARK                         _______ _______ _______ _____ _____    ______ ____
ROOT
ATOM      1  C   UNL     1       0.202   9.954  20.323  0.00  0.00    +0.000 C 
ENDROOT
BRANCH   1   2
ATOM      2  C   UNL     1      -0.211  10.985  19.275  0.00  0.00    +0.000 C 
BRANCH   2   3
ATOM      3  C   UNL     1       0.232  12.407  19.711  0.00  0.00    +0.000 C 
BRANCH   3   4
ATOM      4  C   UNL     1      -1.002  13.166  20.170  0.00  0.00    +0.000 C 
BRANCH   4  10
ATOM      5  C   UNL     1      -6.789  11.214  18.286  0.00  0.00    +0.000 A 
ATOM      6  C   UNL     1      -5.580  11.307  17.602  0.00  0.00    +0.000 A 
ATOM      7  C   UNL     1      -4.445  11.772  18.265  0.00  0.00    +0.000 A 
ATOM      8  C   UNL     1      -4.521  12.147  19.618  0.00  0.00    +0.000 A 
ATOM      9  C   UNL     1      -3.317  12.677  20.354  0.00  0.00    +0.000 A 
ATOM     10  N   UNL     1      -2.255  12.729  19.612  0.00  0.00    +0.000 NA
ATOM     11  N   UNL     1      -3.568  13.017  21.725  0.00  0.00    +0.000 N 
ATOM     12  C   UNL     1      -4.824  12.795  22.306  0.00  0.00    +0.000 A 
ATOM     13  N   UNL     1      -5.865  12.347  21.668  0.00  0.00    +0.000 NA
ATOM     14  C   UNL     1      -5.724  12.033  20.314  0.00  0.00    +0.000 A 
ATOM     15  C   UNL     1      -6.856  11.570  19.635  0.00  0.00    +0.000 A 
ATOM     16  C   UNL     1      -5.107  13.128  23.770  0.00  0.00    +0.000 C 
ATOM     17  C   UNL     1      -3.864  13.197  24.624  0.00  0.00    +0.000 C 
ATOM     18  C   UNL     1      -2.882  14.096  23.922  0.00  0.00    +0.000 C 
ATOM     19  C   UNL     1      -2.470  13.469  22.603  0.00  0.00    +0.000 C 
ENDBRANCH   4  10
ENDBRANCH   3   4
ENDBRANCH   2   3
ENDBRANCH   1   2
BRANCH   1  20
ATOM     20  C   UNL     1       1.280   8.948  19.920  0.00  0.00    +0.000 C 
BRANCH  20  21
ATOM     21  C   UNL     1       1.678   9.153  18.437  0.00  0.00    +0.000 C 
BRANCH  21  22
ATOM     22  C   UNL     1       2.463   7.934  17.980  0.00  0.00    +0.000 C 
BRANCH  22  23
ATOM     23  N   UNL     1       2.267   6.755  18.776  0.00  0.00    +0.000 NA
ATOM     24  C   UNL     1       3.199   5.840  18.836  0.00  0.00    +0.000 A 
ATOM     25  C   UNL     1       4.602   5.869  18.212  0.00  0.00    +0.000 A 
ATOM     26  C   UNL     1       5.133   6.863  17.362  0.00  0.00    +0.000 A 
ATOM     27  C   UNL     1       6.441   6.804  16.869  0.00  0.00    +0.000 A 
ATOM     28  C   UNL     1       7.254   5.738  17.205  0.00  0.00    +0.000 A 
ATOM     29  C   UNL     1       6.749   4.736  18.031  0.00  0.00    +0.000 A 
ATOM     30  C   UNL     1       5.438   4.788  18.539  0.00  0.00    +0.000 A 
ATOM     31  N   UNL     1       5.057   3.715  19.361  0.00  0.00    +0.000 NA
ATOM     32  C   UNL     1       3.850   3.698  19.832  0.00  0.00    +0.000 A 
ATOM     33  N   UNL     1       2.901   4.679  19.571  0.00  0.00    +0.000 N 
ATOM     34  C   UNL     1       1.562   4.627  20.185  0.00  0.00    +0.000 C 
ATOM     35  C   UNL     1       1.167   3.247  20.679  0.00  0.00    +0.000 C 
ATOM     36  C   UNL     1       2.279   2.678  21.534  0.00  0.00    +0.000 C 
ATOM     37  C   UNL     1       3.508   2.478  20.674  0.00  0.00    +0.000 C 
ENDBRANCH  22  23
ENDBRANCH  21  22
ENDBRANCH  20  21
ENDBRANCH   1  20
TORSDOF 8
ENDMDL
MODEL 3
REMARK VINA RESULT:      -9.2      1.366     11.195
REMARK  Name = 
REMARK  8 active torsions:
REMARK  status: ('A' for Active; 'I' for Inactive)
REMARK    1  A    between atoms: N_6  and  C_7
REMARK    2  A    between atoms: C_7  and  C_8
REMARK    3  A    between atoms: C_8  and  C_9
REMARK    4  A    between atoms: C_9  and  C_10
REMARK    5  A    between atoms: C_10  and  C_11
REMARK    6  A    between atoms: C_11  and  C_12
REMARK    7  A    between atoms: C_12  and  C_13
REMARK    8  A    between atoms: C_13  and  N_14
REMARK                            x       y       z     vdW  Elec       q    Type
REMARK                         _______ _______ _______ _____ _____    ______ ____
ROOT
ATOM      1  C   UNL     1       0.242  10.260  19.459  0.00  0.00    +0.000 C 
ENDROOT
BRANCH   1   2
ATOM      2  C   UNL     1       1.104   9.028  19.190  0.00  0.00    +0.000 C 
BRANCH   2   3
ATOM      3  C   UNL     1       2.185   9.347  18.124  0.00  0.00    +0.000 C 
BRANCH   3   4
ATOM      4  C   UNL     1       2.832   8.038  17.701  0.00  0.00    +0.000 C 
BRANCH   4  10
ATOM      5  C   UNL     1       2.072   2.705  21.140  0.00  0.00    +0.000 A 
ATOM      6  C   UNL     1       1.206   3.761  20.875  0.00  0.00    +0.000 A 
ATOM      7  C   UNL     1       1.632   4.821  20.075  0.00  0.00    +0.000 A 
ATOM      8  C   UNL     1       2.932   4.824  19.540  0.00  0.00    +0.000 A 
ATOM      9  C   UNL     1       3.430   5.967  18.693  0.00  0.00    +0.000 A 
ATOM     10  N   UNL     1       2.540   6.895  18.526  0.00  0.00    +0.000 NA
ATOM     11  N   UNL     1       4.779   5.813  18.231  0.00  0.00    +0.000 N 
ATOM     12  C   UNL     1       5.512   4.651  18.513  0.00  0.00    +0.000 A 
ATOM     13  N   UNL     1       5.085   3.670  19.252  0.00  0.00    +0.000 NA
ATOM     14  C   UNL     1       3.796   3.755  19.783  0.00  0.00    +0.000 A 
ATOM     15  C   UNL     1       3.357   2.702  20.592  0.00  0.00    +0.000 A 
ATOM     16  C   UNL     1       6.942   4.456  18.011  0.00  0.00    +0.000 C 
ATOM     17  C   UNL     1       7.283   5.313  16.816  0.00  0.00    +0.000 C 
ATOM     18  C   UNL     1       6.888   6.728  17.144  0.00  0.00    +0.000 C 
ATOM     19  C   UNL     1       5.382   6.807  17.321  0.00  0.00    +0.000 C 
ENDBRANCH   4  10
ENDBRANCH   3   4
ENDBRANCH   2   3
ENDBRANCH   1   2
BRANCH   1  20
ATOM     20  C   UNL     1      -0.368  10.388  20.854  0.00  0.00    +0.000 C 
BRANCH  20  21
ATOM     21  C   UNL     1      -0.169  11.824  21.398  0.00  0.00    +0.000 C 
BRANCH  21  22
ATOM     22  C   UNL     1      -1.192  12.732  20.735  0.00  0.00    +0.000 C 
BRANCH  22  23
ATOM     23  N   UNL     1      -2.478  12.762  21.373  0.00  0.00    +0.000 NA
ATOM     24  C   UNL     1      -3.558  12.482  20.689  0.00  0.00    +0.000 A 
ATOM     25  C   UNL     1      -3.664  12.015  19.230  0.00  0.00    +0.000 A 
ATOM     26  C   UNL     1      -2.610  11.883  18.302  0.00  0.00    +0.000 A 
ATOM     27  C   UNL     1      -2.816  11.420  16.997  0.00  0.00    +0.000 A 
ATOM     28  C   UNL     1      -4.091  11.085  16.581  0.00  0.00    +0.000 A 
ATOM     29  C   UNL     1      -5.152  11.220  17.475  0.00  0.00    +0.000 A 
ATOM     30  C   UNL     1      -4.956  11.678  18.790  0.00  0.00    +0.000 A 
ATOM     31  N   UNL     1      -6.110  11.765  19.587  0.00  0.00    +0.000 NA
ATOM     32  C   UNL     1      -5.990  12.209  20.798  0.00  0.00    +0.000 A 
ATOM     33  N   UNL     1      -4.785  12.610  21.362  0.00  0.00    +0.000 N 
ATOM     34  C   UNL     1      -4.711  13.053  22.766  0.00  0.00    +0.000 C 
ATOM     35  C   UNL     1      -6.046  13.488  23.343  0.00  0.00    +0.000 C 
ATOM     36  C   UNL     1      -7.088  12.424  23.068  0.00  0.00    +0.000 C 
ATOM     37  C   UNL     1      -7.294  12.313  21.574  0.00  0.00    +0.000 C 
ENDBRANCH  22  23
ENDBRANCH  21  22
ENDBRANCH  20  21
ENDBRANCH   1  20
TORSDOF 8
ENDMDL
MODEL 4
REMARK VINA RESULT:      -9.2      1.074      4.340
REMARK  Name = 
REMARK  8 active torsions:
REMARK  status: ('A' for Active; 'I' for Inactive)
REMARK    1  A    between atoms: N_6  and  C_7
REMARK    2  A    between atoms: C_7  and  C_8
REMARK    3  A    between atoms: C_8  and  C_9
REMARK    4  A    between atoms: C_9  and  C_10
REMARK    5  A    between atoms: C_10  and  C_11
REMARK    6  A    between atoms: C_11  and  C_12
REMARK    7  A    between atoms: C_12  and  C_13
REMARK    8  A    between atoms: C_13  and  N_14
REMARK                            x       y       z     vdW  Elec       q    Type
REMARK                         _______ _______ _______ _____ _____    ______ ____
ROOT
ATOM      1  C   UNL     1       0.541  10.119  19.706  0.00  0.00    +0.000 C 
ENDROOT
BRANCH   1   2
ATOM      2  C   UNL     1       0.869  10.921  20.964  0.00  0.00    +0.000 C 
BRANCH   2   3
ATOM      3  C   UNL     1       0.788  12.442  20.672  0.00  0.00    +0.000 C 
BRANCH   3   4
ATOM      4  C   UNL     1      -0.460  12.699  19.845  0.00  0.00    +0.000 C 
BRANCH   4  10
ATOM      5  C   UNL     1      -6.211  13.213  22.586  0.00  0.00    +0.000 A 
ATOM      6  C   UNL     1      -4.943  13.574  23.031  0.00  0.00    +0.000 A 
ATOM      7  C   UNL     1      -3.834  13.349  22.216  0.00  0.00    +0.000 A 
ATOM      8  C   UNL     1      -3.996  12.757  20.951  0.00  0.00    +0.000 A 
ATOM      9  C   UNL     1      -2.814  12.479  20.058  0.00  0.00    +0.000 A 
ATOM     10  N   UNL     1      -1.687  12.847  20.583  0.00  0.00    +0.000 NA
ATOM     11  N   UNL     1      -3.154  11.868  18.805  0.00  0.00    +0.000 N 
ATOM     12  C   UNL     1      -4.491  11.631  18.455  0.00  0.00    +0.000 A 
ATOM     13  N   UNL     1      -5.509  11.863  19.230  0.00  0.00    +0.000 NA
ATOM     14  C   UNL     1      -5.268  12.415  20.490  0.00  0.00    +0.000 A 
ATOM     15  C   UNL     1      -6.370  12.642  21.321  0.00  0.00    +0.000 A 
ATOM     16  C   UNL     1      -4.877  11.004  17.117  0.00  0.00    +0.000 C 
ATOM     17  C   UNL     1      -3.816  11.153  16.053  0.00  0.00    +0.000 C 
ATOM     18  C   UNL     1      -2.512  10.691  16.645  0.00  0.00    +0.000 C 
ATOM     19  C   UNL     1      -2.116  11.610  17.786  0.00  0.00    +0.000 C 
ENDBRANCH   4  10
ENDBRANCH   3   4
ENDBRANCH   2   3
ENDBRANCH   1   2
BRANCH   1  20
ATOM     20  C   UNL     1       1.507  10.250  18.529  0.00  0.00    +0.000 C 
BRANCH  20  21
ATOM     21  C   UNL     1       1.498   8.955  17.679  0.00  0.00    +0.000 C 
BRANCH  21  22
ATOM     22  C   UNL     1       2.752   8.161  18.004  0.00  0.00    +0.000 C 
BRANCH  22  23
ATOM     23  N   UNL     1       2.536   6.990  18.806  0.00  0.00    +0.000 NA
ATOM     24  C   UNL     1       3.119   5.861  18.494  0.00  0.00    +0.000 A 
ATOM     25  C   UNL     1       4.134   5.595  17.372  0.00  0.00    +0.000 A 
ATOM     26  C   UNL     1       4.572   6.506  16.389  0.00  0.00    +0.000 A 
ATOM     27  C   UNL     1       5.527   6.165  15.425  0.00  0.00    +0.000 A 
ATOM     28  C   UNL     1       6.063   4.891  15.411  0.00  0.00    +0.000 A 
ATOM     29  C   UNL     1       5.637   3.967  16.363  0.00  0.00    +0.000 A 
ATOM     30  C   UNL     1       4.683   4.301  17.341  0.00  0.00    +0.000 A 
ATOM     31  N   UNL     1       4.344   3.277  18.241  0.00  0.00    +0.000 NA
ATOM     32  C   UNL     1       3.449   3.523  19.145  0.00  0.00    +0.000 A 
ATOM     33  N   UNL     1       2.795   4.741  19.279  0.00  0.00    +0.000 N 
ATOM     34  C   UNL     1       1.826   4.971  20.366  0.00  0.00    +0.000 C 
ATOM     35  C   UNL     1       1.265   3.695  20.967  0.00  0.00    +0.000 C 
ATOM     36  C   UNL     1       2.402   2.758  21.318  0.00  0.00    +0.000 C 
ATOM     37  C   UNL     1       3.110   2.346  20.047  0.00  0.00    +0.000 C 
ENDBRANCH  22  23
ENDBRANCH  21  22
ENDBRANCH  20  21
ENDBRANCH   1  20
TORSDOF 8
ENDMDL
MODEL 5
REMARK VINA RESULT:      -9.2      1.395     11.171
REMARK  Name = 
REMARK  8 active torsions:
REMARK  status: ('A' for Active; 'I' for Inactive)
REMARK    1  A    between atoms: N_6  and  C_7
REMARK    2  A    between atoms: C_7  and  C_8
REMARK    3  A    between atoms: C_8  and  C_9
REMARK    4  A    between atoms: C_9  and  C_10
REMARK    5  A    between atoms: C_10  and  C_11
REMARK    6  A    between atoms: C_11  and  C_12
REMARK    7  A    between atoms: C_12  and  C_13
REMARK    8  A    between atoms: C_13  and  N_14
REMARK                            x       y       z     vdW  Elec       q    Type
REMARK                         _______ _______ _______ _____ _____    ______ ____
ROOT
ATOM      1  C   UNL     1      -0.005   9.975  19.788  0.00  0.00    +0.000 C 
ENDROOT
BRANCH   1   2
ATOM      2  C   UNL     1       1.260   9.133  19.639  0.00  0.00    +0.000 C 
BRANCH   2   3
ATOM      3  C   UNL     1       1.761   9.164  18.171  0.00  0.00    +0.000 C 
BRANCH   3   4
ATOM      4  C   UNL     1       2.774   8.045  17.994  0.00  0.00    +0.000 C 
BRANCH   4  10
ATOM      5  C   UNL     1       1.630   2.186  20.277  0.00  0.00    +0.000 A 
ATOM      6  C   UNL     1       1.076   3.423  20.594  0.00  0.00    +0.000 A 
ATOM      7  C   UNL     1       1.514   4.567  19.929  0.00  0.00    +0.000 A 
ATOM      8  C   UNL     1       2.511   4.474  18.943  0.00  0.00    +0.000 A 
ATOM      9  C   UNL     1       3.022   5.696  18.224  0.00  0.00    +0.000 A 
ATOM     10  N   UNL     1       2.441   6.789  18.612  0.00  0.00    +0.000 NA
ATOM     11  N   UNL     1       4.042   5.424  17.252  0.00  0.00    +0.000 N 
ATOM     12  C   UNL     1       4.450   4.111  16.980  0.00  0.00    +0.000 A 
ATOM     13  N   UNL     1       4.015   3.058  17.607  0.00  0.00    +0.000 NA
ATOM     14  C   UNL     1       3.052   3.233  18.604  0.00  0.00    +0.000 A 
ATOM     15  C   UNL     1       2.608   2.094  19.284  0.00  0.00    +0.000 A 
ATOM     16  C   UNL     1       5.517   3.796  15.933  0.00  0.00    +0.000 C 
ATOM     17  C   UNL     1       5.691   4.887  14.904  0.00  0.00    +0.000 C 
ATOM     18  C   UNL     1       5.857   6.187  15.644  0.00  0.00    +0.000 C 
ATOM     19  C   UNL     1       4.583   6.506  16.405  0.00  0.00    +0.000 C 
ENDBRANCH   4  10
ENDBRANCH   3   4
ENDBRANCH   2   3
ENDBRANCH   1   2
BRANCH   1  20
ATOM     20  C   UNL     1      -0.618  10.537  18.506  0.00  0.00    +0.000 C 
BRANCH  20  21
ATOM     21  C   UNL     1      -0.475  12.079  18.473  0.00  0.00    +0.000 C 
BRANCH  21  22
ATOM     22  C   UNL     1      -1.848  12.692  18.699  0.00  0.00    +0.000 C 
BRANCH  22  23
ATOM     23  N   UNL     1      -2.215  12.863  20.076  0.00  0.00    +0.000 NA
ATOM     24  C   UNL     1      -3.457  12.694  20.452  0.00  0.00    +0.000 A 
ATOM     25  C   UNL     1      -4.651  12.231  19.605  0.00  0.00    +0.000 A 
ATOM     26  C   UNL     1      -4.661  11.981  18.216  0.00  0.00    +0.000 A 
ATOM     27  C   UNL     1      -5.805  11.532  17.545  0.00  0.00    +0.000 A 
ATOM     28  C   UNL     1      -6.978  11.332  18.248  0.00  0.00    +0.000 A 
ATOM     29  C   UNL     1      -6.999  11.585  19.618  0.00  0.00    +0.000 A 
ATOM     30  C   UNL     1      -5.854  12.029  20.304  0.00  0.00    +0.000 A 
ATOM     31  N   UNL     1      -6.011  12.244  21.683  0.00  0.00    +0.000 NA
ATOM     32  C   UNL     1      -4.995  12.681  22.358  0.00  0.00    +0.000 A 
ATOM     33  N   UNL     1      -3.753  12.957  21.800  0.00  0.00    +0.000 N 
ATOM     34  C   UNL     1      -2.622  13.399  22.637  0.00  0.00    +0.000 C 
ATOM     35  C   UNL     1      -3.041  13.978  23.977  0.00  0.00    +0.000 C 
ATOM     36  C   UNL     1      -4.003  13.028  24.661  0.00  0.00    +0.000 C 
ATOM     37  C   UNL     1      -5.266  12.929  23.835  0.00  0.00    +0.000 C 
ENDBRANCH  22  23
ENDBRANCH  21  22
ENDBRANCH  20  21
ENDBRANCH   1  20
TORSDOF 8
ENDMDL
MODEL 6
REMARK VINA RESULT:      -9.2      2.499      2.769
REMARK  Name = 
REMARK  8 active torsions:
REMARK  status: ('A' for Active; 'I' for Inactive)
REMARK    1  A    between atoms: N_6  and  C_7
REMARK    2  A    between atoms: C_7  and  C_8
REMARK    3  A    between atoms: C_8  and  C_9
REMARK    4  A    between atoms: C_9  and  C_10
REMARK    5  A    between atoms: C_10  and  C_11
REMARK    6  A    between atoms: C_11  and  C_12
REMARK    7  A    between atoms: C_12  and  C_13
REMARK    8  A    between atoms: C_13  and  N_14
REMARK                            x       y       z     vdW  Elec       q    Type
REMARK                         _______ _______ _______ _____ _____    ______ ____
ROOT
ATOM      1  C   UNL     1       0.947   8.611  20.839  0.00  0.00    +0.000 C 
ENDROOT
BRANCH   1   2
ATOM      2  C   UNL     1       0.955   9.241  22.231  0.00  0.00    +0.000 C 
BRANCH   2   3
ATOM      3  C   UNL     1      -0.482   9.281  22.815  0.00  0.00    +0.000 C 
BRANCH   3   4
ATOM      4  C   UNL     1      -0.807  10.722  23.170  0.00  0.00    +0.000 C 
BRANCH   4  10
ATOM      5  C   UNL     1       0.640  15.380  19.040  0.00  0.00    +0.000 A 
ATOM      6  C   UNL     1       1.351  14.255  19.445  0.00  0.00    +0.000 A 
ATOM      7  C   UNL     1       0.790  13.382  20.376  0.00  0.00    +0.000 A 
ATOM      8  C   UNL     1      -0.486  13.637  20.906  0.00  0.00    +0.000 A 
ATOM      9  C   UNL     1      -1.108  12.725  21.933  0.00  0.00    +0.000 A 
ATOM     10  N   UNL     1      -0.348  11.720  22.239  0.00  0.00    +0.000 NA
ATOM     11  N   UNL     1      -2.412  13.133  22.371  0.00  0.00    +0.000 N 
ATOM     12  C   UNL     1      -3.043  14.255  21.814  0.00  0.00    +0.000 A 
ATOM     13  N   UNL     1      -2.502  15.046  20.935  0.00  0.00    +0.000 NA
ATOM     14  C   UNL     1      -1.214  14.751  20.485  0.00  0.00    +0.000 A 
ATOM     15  C   UNL     1      -0.636  15.622  19.554  0.00  0.00    +0.000 A 
ATOM     16  C   UNL     1      -4.440  14.693  22.248  0.00  0.00    +0.000 C 
ATOM     17  C   UNL     1      -5.250  13.587  22.882  0.00  0.00    +0.000 C 
ATOM     18  C   UNL     1      -4.397  12.955  23.949  0.00  0.00    +0.000 C 
ATOM     19  C   UNL     1      -3.187  12.298  23.310  0.00  0.00    +0.000 C 
ENDBRANCH   4  10
ENDBRANCH   3   4
ENDBRANCH   2   3
ENDBRANCH   1   2
BRANCH   1  20
ATOM     20  C   UNL     1       0.908   9.565  19.647  0.00  0.00    +0.000 C 
BRANCH  20  21
ATOM     21  C   UNL     1       1.719   8.982  18.464  0.00  0.00    +0.000 C 
BRANCH  21  22
ATOM     22  C   UNL     1       2.358   7.679  18.919  0.00  0.00    +0.000 C 
BRANCH  22  23
ATOM     23  N   UNL     1       3.258   7.084  17.972  0.00  0.00    +0.000 NA
ATOM     24  C   UNL     1       3.419   5.786  17.943  0.00  0.00    +0.000 A 
ATOM     25  C   UNL     1       2.683   4.719  18.768  0.00  0.00    +0.000 A 
ATOM     26  C   UNL     1       1.743   4.939  19.796  0.00  0.00    +0.000 A 
ATOM     27  C   UNL     1       1.108   3.888  20.467  0.00  0.00    +0.000 A 
ATOM     28  C   UNL     1       1.408   2.581  20.133  0.00  0.00    +0.000 A 
ATOM     29  C   UNL     1       2.344   2.336  19.131  0.00  0.00    +0.000 A 
ATOM     30  C   UNL     1       2.983   3.384  18.445  0.00  0.00    +0.000 A 
ATOM     31  N   UNL     1       3.904   2.999  17.456  0.00  0.00    +0.000 NA
ATOM     32  C   UNL     1       4.541   3.925  16.813  0.00  0.00    +0.000 A 
ATOM     33  N   UNL     1       4.375   5.285  17.043  0.00  0.00    +0.000 N 
ATOM     34  C   UNL     1       5.093   6.289  16.236  0.00  0.00    +0.000 C 
ATOM     35  C   UNL     1       6.323   5.743  15.532  0.00  0.00    +0.000 C 
ATOM     36  C   UNL     1       5.960   4.474  14.790  0.00  0.00    +0.000 C 
ATOM     37  C   UNL     1       5.550   3.418  15.793  0.00  0.00    +0.000 C 
ENDBRANCH  22  23
ENDBRANCH  21  22
ENDBRANCH  20  21
ENDBRANCH   1  20
TORSDOF 8
ENDMDL
MODEL 7
REMARK VINA RESULT:      -9.1      1.570     11.052
REMARK  Name = 
REMARK  8 active torsions:
REMARK  status: ('A' for Active; 'I' for Inactive)
REMARK    1  A    between atoms: N_6  and  C_7
REMARK    2  A    between atoms: C_7  and  C_8
REMARK    3  A    between atoms: C_8  and  C_9
REMARK    4  A    between atoms: C_9  and  C_10
REMARK    5  A    between atoms: C_10  and  C_11
REMARK    6  A    between atoms: C_11  and  C_12
REMARK    7  A    between atoms: C_12  and  C_13
REMARK    8  A    between atoms: C_13  and  N_14
REMARK                            x       y       z     vdW  Elec       q    Type
REMARK                         _______ _______ _______ _____ _____    ______ ____
ROOT
ATOM      1  C   UNL     1       0.873   9.646  20.282  0.00  0.00    +0.000 C 
ENDROOT
BRANCH   1   2
ATOM      2  C   UNL     1       0.837   9.085  18.863  0.00  0.00    +0.000 C 
BRANCH   2   3
ATOM      3  C   UNL     1       2.161   9.406  18.120  0.00  0.00    +0.000 C 
BRANCH   3   4
ATOM      4  C   UNL     1       2.774   8.094  17.659  0.00  0.00    +0.000 C 
BRANCH   4  10
ATOM      5  C   UNL     1       2.093   2.744  21.088  0.00  0.00    +0.000 A 
ATOM      6  C   UNL     1       1.215   3.794  20.836  0.00  0.00    +0.000 A 
ATOM      7  C   UNL     1       1.625   4.859  20.035  0.00  0.00    +0.000 A 
ATOM      8  C   UNL     1       2.919   4.875  19.487  0.00  0.00    +0.000 A 
ATOM      9  C   UNL     1       3.399   6.024  18.638  0.00  0.00    +0.000 A 
ATOM     10  N   UNL     1       2.500   6.946  18.483  0.00  0.00    +0.000 NA
ATOM     11  N   UNL     1       4.745   5.883  18.162  0.00  0.00    +0.000 N 
ATOM     12  C   UNL     1       5.490   4.727  18.433  0.00  0.00    +0.000 A 
ATOM     13  N   UNL     1       5.078   3.739  19.173  0.00  0.00    +0.000 NA
ATOM     14  C   UNL     1       3.795   3.813  19.717  0.00  0.00    +0.000 A 
ATOM     15  C   UNL     1       3.372   2.753  20.527  0.00  0.00    +0.000 A 
ATOM     16  C   UNL     1       6.916   4.545  17.916  0.00  0.00    +0.000 C 
ATOM     17  C   UNL     1       7.239   5.408  16.720  0.00  0.00    +0.000 C 
ATOM     18  C   UNL     1       6.835   6.818  17.057  0.00  0.00    +0.000 C 
ATOM     19  C   UNL     1       5.331   6.885  17.249  0.00  0.00    +0.000 C 
ENDBRANCH   4  10
ENDBRANCH   3   4
ENDBRANCH   2   3
ENDBRANCH   1   2
BRANCH   1  20
ATOM     20  C   UNL     1      -0.114  10.766  20.610  0.00  0.00    +0.000 C 
BRANCH  20  21
ATOM     21  C   UNL     1       0.069  11.949  19.627  0.00  0.00    +0.000 C 
BRANCH  21  22
ATOM     22  C   UNL     1      -1.018  12.975  19.906  0.00  0.00    +0.000 C 
BRANCH  22  23
ATOM     23  N   UNL     1      -2.322  12.622  19.420  0.00  0.00    +0.000 NA
ATOM     24  C   UNL     1      -3.336  12.558  20.244  0.00  0.00    +0.000 A 
ATOM     25  C   UNL     1      -3.368  12.904  21.740  0.00  0.00    +0.000 A 
ATOM     26  C   UNL     1      -2.274  13.277  22.549  0.00  0.00    +0.000 A 
ATOM     27  C   UNL     1      -2.420  13.600  23.903  0.00  0.00    +0.000 A 
ATOM     28  C   UNL     1      -3.671  13.548  24.489  0.00  0.00    +0.000 A 
ATOM     29  C   UNL     1      -4.766  13.169  23.716  0.00  0.00    +0.000 A 
ATOM     30  C   UNL     1      -4.632  12.848  22.353  0.00  0.00    +0.000 A 
ATOM     31  N   UNL     1      -5.816  12.485  21.689  0.00  0.00    +0.000 NA
ATOM     32  C   UNL     1      -5.744  12.152  20.439  0.00  0.00    +0.000 A 
ATOM     33  N   UNL     1      -4.562  12.128  19.709  0.00  0.00    +0.000 N 
ATOM     34  C   UNL     1      -4.560  11.793  18.273  0.00  0.00    +0.000 C 
ATOM     35  C   UNL     1      -5.794  11.034  17.819  0.00  0.00    +0.000 C 
ATOM     36  C   UNL     1      -7.037  11.754  18.300  0.00  0.00    +0.000 C 
ATOM     37  C   UNL     1      -7.064  11.729  19.812  0.00  0.00    +0.000 C 
ENDBRANCH  22  23
ENDBRANCH  21  22
ENDBRANCH  20  21
ENDBRANCH   1  20
TORSDOF 8
ENDMDL
MODEL 8
REMARK VINA RESULT:      -9.1      1.759     11.285
REMARK  Name = 
REMARK  8 active torsions:
REMARK  status: ('A' for Active; 'I' for Inactive)
REMARK    1  A    between atoms: N_6  and  C_7
REMARK    2  A    between atoms: C_7  and  C_8
REMARK    3  A    between atoms: C_8  and  C_9
REMARK    4  A    between atoms: C_9  and  C_10
REMARK    5  A    between atoms: C_10  and  C_11
REMARK    6  A    between atoms: C_11  and  C_12
REMARK    7  A    between atoms: C_12  and  C_13
REMARK    8  A    between atoms: C_13  and  N_14
REMARK                            x       y       z     vdW  Elec       q    Type
REMARK                         _______ _______ _______ _____ _____    ______ ____
ROOT
ATOM      1  C   UNL     1       0.033   9.609  17.876  0.00  0.00    +0.000 C 
ENDROOT
BRANCH   1   2
ATOM      2  C   UNL     1       1.150   9.356  18.888  0.00  0.00    +0.000 C 
BRANCH   2   3
ATOM      3  C   UNL     1       2.513   9.210  18.163  0.00  0.00    +0.000 C 
BRANCH   3   4
ATOM      4  C   UNL     1       2.545   7.850  17.487  0.00  0.00    +0.000 C 
BRANCH   4  10
ATOM      5  C   UNL     1       2.103   2.588  21.087  0.00  0.00    +0.000 A 
ATOM      6  C   UNL     1       1.164   3.561  20.758  0.00  0.00    +0.000 A 
ATOM      7  C   UNL     1       1.530   4.624  19.934  0.00  0.00    +0.000 A 
ATOM      8  C   UNL     1       2.843   4.716  19.440  0.00  0.00    +0.000 A 
ATOM      9  C   UNL     1       3.275   5.868  18.568  0.00  0.00    +0.000 A 
ATOM     10  N   UNL     1       2.319   6.714  18.341  0.00  0.00    +0.000 NA
ATOM     11  N   UNL     1       4.647   5.810  18.154  0.00  0.00    +0.000 N 
ATOM     12  C   UNL     1       5.461   4.722  18.499  0.00  0.00    +0.000 A 
ATOM     13  N   UNL     1       5.090   3.733  19.258  0.00  0.00    +0.000 NA
ATOM     14  C   UNL     1       3.782   3.731  19.747  0.00  0.00    +0.000 A 
ATOM     15  C   UNL     1       3.401   2.672  20.579  0.00  0.00    +0.000 A 
ATOM     16  C   UNL     1       6.918   4.628  18.049  0.00  0.00    +0.000 C 
ATOM     17  C   UNL     1       7.229   5.470  16.835  0.00  0.00    +0.000 C 
ATOM     18  C   UNL     1       6.710   6.858  17.101  0.00  0.00    +0.000 C 
ATOM     19  C   UNL     1       5.198   6.819  17.228  0.00  0.00    +0.000 C 
ENDBRANCH   4  10
ENDBRANCH   3   4
ENDBRANCH   2   3
ENDBRANCH   1   2
BRANCH   1  20
ATOM     20  C   UNL     1      -1.130  10.489  18.333  0.00  0.00    +0.000 C 
BRANCH  20  21
ATOM     21  C   UNL     1      -0.610  11.879  18.776  0.00  0.00    +0.000 C 
BRANCH  21  22
ATOM     22  C   UNL     1      -1.808  12.789  18.995  0.00  0.00    +0.000 C 
BRANCH  22  23
ATOM     23  N   UNL     1      -2.249  12.891  20.358  0.00  0.00    +0.000 NA
ATOM     24  C   UNL     1      -3.510  12.714  20.657  0.00  0.00    +0.000 A 
ATOM     25  C   UNL     1      -4.659  12.304  19.724  0.00  0.00    +0.000 A 
ATOM     26  C   UNL     1      -4.595  12.126  18.326  0.00  0.00    +0.000 A 
ATOM     27  C   UNL     1      -5.703  11.722  17.572  0.00  0.00    +0.000 A 
ATOM     28  C   UNL     1      -6.913  11.495  18.199  0.00  0.00    +0.000 A 
ATOM     29  C   UNL     1      -7.007  11.677  19.577  0.00  0.00    +0.000 A 
ATOM     30  C   UNL     1      -5.899  12.077  20.346  0.00  0.00    +0.000 A 
ATOM     31  N   UNL     1      -6.129  12.221  21.724  0.00  0.00    +0.000 NA
ATOM     32  C   UNL     1      -5.149  12.615  22.474  0.00  0.00    +0.000 A 
ATOM     33  N   UNL     1      -3.877  12.909  21.999  0.00  0.00    +0.000 N 
ATOM     34  C   UNL     1      -2.791  13.298  22.918  0.00  0.00    +0.000 C 
ATOM     35  C   UNL     1      -3.279  13.811  24.261  0.00  0.00    +0.000 C 
ATOM     36  C   UNL     1      -4.281  12.834  24.842  0.00  0.00    +0.000 C 
ATOM     37  C   UNL     1      -5.499  12.788  23.945  0.00  0.00    +0.000 C 
ENDBRANCH  22  23
ENDBRANCH  21  22
ENDBRANCH  20  21
ENDBRANCH   1  20
TORSDOF 8
ENDMDL
MODEL 9
REMARK VINA RESULT:      -9.1      0.815     10.151
REMARK  Name = 
REMARK  8 active torsions:
REMARK  status: ('A' for Active; 'I' for Inactive)
REMARK    1  A    between atoms: N_6  and  C_7
REMARK    2  A    between atoms: C_7  and  C_8
REMARK    3  A    between atoms: C_8  and  C_9
REMARK    4  A    between atoms: C_9  and  C_10
REMARK    5  A    between atoms: C_10  and  C_11
REMARK    6  A    between atoms: C_11  and  C_12
REMARK    7  A    between atoms: C_12  and  C_13
REMARK    8  A    between atoms: C_13  and  N_14
REMARK                            x       y       z     vdW  Elec       q    Type
REMARK                         _______ _______ _______ _____ _____    ______ ____
ROOT
ATOM      1  C   UNL     1       0.605   9.099  21.097  0.00  0.00    +0.000 C 
ENDROOT
BRANCH   1   2
ATOM      2  C   UNL     1       1.418   9.846  20.041  0.00  0.00    +0.000 C 
BRANCH   2   3
ATOM      3  C   UNL     1       1.553   8.988  18.756  0.00  0.00    +0.000 C 
BRANCH   3   4
ATOM      4  C   UNL     1       2.190   7.663  19.137  0.00  0.00    +0.000 C 
BRANCH   4  10
ATOM      5  C   UNL     1       6.122   4.590  15.143  0.00  0.00    +0.000 A 
ATOM      6  C   UNL     1       5.866   5.946  15.322  0.00  0.00    +0.000 A 
ATOM      7  C   UNL     1       4.944   6.355  16.285  0.00  0.00    +0.000 A 
ATOM      8  C   UNL     1       4.274   5.401  17.071  0.00  0.00    +0.000 A 
ATOM      9  C   UNL     1       3.254   5.810  18.103  0.00  0.00    +0.000 A 
ATOM     10  N   UNL     1       3.092   7.095  18.169  0.00  0.00    +0.000 NA
ATOM     11  N   UNL     1       2.662   4.713  18.813  0.00  0.00    +0.000 N 
ATOM     12  C   UNL     1       3.077   3.394  18.581  0.00  0.00    +0.000 A 
ATOM     13  N   UNL     1       3.951   3.041  17.685  0.00  0.00    +0.000 NA
ATOM     14  C   UNL     1       4.545   4.041  16.912  0.00  0.00    +0.000 A 
ATOM     15  C   UNL     1       5.469   3.646  15.938  0.00  0.00    +0.000 A 
ATOM     16  C   UNL     1       2.478   2.213  19.343  0.00  0.00    +0.000 C 
ATOM     17  C   UNL     1       1.842   2.603  20.656  0.00  0.00    +0.000 C 
ATOM     18  C   UNL     1       0.910   3.753  20.385  0.00  0.00    +0.000 C 
ATOM     19  C   UNL     1       1.708   4.955  19.914  0.00  0.00    +0.000 C 
ENDBRANCH   4  10
ENDBRANCH   3   4
ENDBRANCH   2   3
ENDBRANCH   1   2
BRANCH   1  20
ATOM     20  C   UNL     1      -0.651   9.793  21.623  0.00  0.00    +0.000 C 
BRANCH  20  21
ATOM     21  C   UNL     1      -0.298  11.196  22.176  0.00  0.00    +0.000 C 
BRANCH  21  22
ATOM     22  C   UNL     1      -1.079  12.232  21.383  0.00  0.00    +0.000 C 
BRANCH  22  23
ATOM     23  N   UNL     1      -1.441  11.829  20.054  0.00  0.00    +0.000 NA
ATOM     24  C   UNL     1      -2.681  11.936  19.649  0.00  0.00    +0.000 A 
ATOM     25  C   UNL     1      -3.876  12.544  20.398  0.00  0.00    +0.000 A 
ATOM     26  C   UNL     1      -3.890  13.029  21.723  0.00  0.00    +0.000 A 
ATOM     27  C   UNL     1      -5.034  13.591  22.302  0.00  0.00    +0.000 A 
ATOM     28  C   UNL     1      -6.203  13.673  21.570  0.00  0.00    +0.000 A 
ATOM     29  C   UNL     1      -6.220  13.189  20.263  0.00  0.00    +0.000 A 
ATOM     30  C   UNL     1      -5.075  12.628  19.669  0.00  0.00    +0.000 A 
ATOM     31  N   UNL     1      -5.228  12.180  18.346  0.00  0.00    +0.000 NA
ATOM     32  C   UNL     1      -4.211  11.629  17.761  0.00  0.00    +0.000 A 
ATOM     33  N   UNL     1      -2.973  11.448  18.364  0.00  0.00    +0.000 N 
ATOM     34  C   UNL     1      -1.842  10.863  17.621  0.00  0.00    +0.000 C 
ATOM     35  C   UNL     1      -2.259  10.065  16.398  0.00  0.00    +0.000 C 
ATOM     36  C   UNL     1      -3.212  10.888  15.557  0.00  0.00    +0.000 C 
ATOM     37  C   UNL     1      -4.478  11.133  16.348  0.00  0.00    +0.000 C 
ENDBRANCH  22  23
ENDBRANCH  21  22
ENDBRANCH  20  21
ENDBRANCH   1  20
TORSDOF 8
ENDMDL
