MODEL 1
REMARK VINA RESULT:      -7.6      0.000      0.000
REMARK  Name = 
REMARK  8 active torsions:
REMARK  status: ('A' for Active; 'I' for Inactive)
REMARK    1  A    between atoms: C_1  and  O_2
REMARK    2  A    between atoms: O_2  and  C_3
REMARK    3  A    between atoms: C_6  and  O_7
REMARK    4  A    between atoms: O_7  and  C_8
REMARK    5  A    between atoms: C_9  and  C_10
REMARK    6  A    between atoms: N_11  and  N_12
REMARK    7  A    between atoms: C_13  and  C_15
REMARK    8  A    between atoms: C_15  and  N_16
REMARK                            x       y       z     vdW  Elec       q    Type
REMARK                         _______ _______ _______ _____ _____    ______ ____
ROOT
ATOM      1  N   UNL     1       7.770   8.073  17.435  0.00  0.00    +0.000 N 
ATOM      2  C   UNL     1       7.490   6.726  17.651  0.00  0.00    +0.000 C 
ATOM      3  O   UNL     1       7.796   6.102  18.666  0.00  0.00    +0.000 OA
ATOM      4  H   UNL     1       7.471   8.541  16.588  0.00  0.00    +0.000 HD
ENDROOT
BRANCH   1   6
ATOM      5  C   UNL     1       8.812   9.975  18.074  0.00  0.00    +0.000 C 
ATOM      6  N   UNL     1       8.436   8.775  18.390  0.00  0.00    +0.000 NA
BRANCH   5  11
ATOM      7  C   UNL     1       9.479  11.812  21.284  0.00  0.00    +0.000 A 
ATOM      8  C   UNL     1      10.596  12.573  20.956  0.00  0.00    +0.000 A 
ATOM      9  C   UNL     1      11.175  12.472  19.686  0.00  0.00    +0.000 A 
ATOM     10  C   UNL     1      10.649  11.606  18.717  0.00  0.00    +0.000 A 
ATOM     11  C   UNL     1       9.525  10.836  19.045  0.00  0.00    +0.000 A 
ATOM     12  C   UNL     1       8.960  10.934  20.335  0.00  0.00    +0.000 A 
BRANCH   7  14
ATOM     13  C   UNL     1       8.022  13.093  22.665  0.00  0.00    +0.000 C 
ATOM     14  O   UNL     1       8.967  12.034  22.534  0.00  0.00    +0.000 OA
ENDBRANCH   7  14
BRANCH  10  15
ATOM     15  O   UNL     1      11.247  11.729  17.493  0.00  0.00    +0.000 OA
ATOM     16  C   UNL     1      11.914  12.952  17.207  0.00  0.00    +0.000 C 
ENDBRANCH  10  15
ENDBRANCH   5  11
ENDBRANCH   1   6
BRANCH   2  17
ATOM     17  C   UNL     1       6.744   6.077  16.478  0.00  0.00    +0.000 C 
BRANCH  17  18
ATOM     18  N   UNL     1       5.388   5.592  16.799  0.00  0.00    +0.000 NA
ATOM     19  C   UNL     1       4.671   6.460  17.755  0.00  0.00    +0.000 C 
ATOM     20  C   UNL     1       3.165   6.111  17.816  0.00  0.00    +0.000 C 
ATOM     21  C   UNL     1       3.003   4.630  17.911  0.00  0.00    +0.000 A 
ATOM     22  S   UNL     1       1.549   3.881  18.360  0.00  0.00    +0.000 S 
ATOM     23  C   UNL     1       2.248   2.327  18.198  0.00  0.00    +0.000 A 
ATOM     24  C   UNL     1       3.567   2.389  17.793  0.00  0.00    +0.000 A 
ATOM     25  C   UNL     1       4.014   3.736  17.621  0.00  0.00    +0.000 A 
ATOM     26  C   UNL     1       5.401   4.179  17.243  0.00  0.00    +0.000 C 
ENDBRANCH  17  18
ENDBRANCH   2  17
TORSDOF 6
ENDMDL
MODEL 2
REMARK VINA RESULT:      -7.4      0.796      1.415
REMARK  Name = 
REMARK  8 active torsions:
REMARK  status: ('A' for Active; 'I' for Inactive)
REMARK    1  A    between atoms: C_1  and  O_2
REMARK    2  A    between atoms: O_2  and  C_3
REMARK    3  A    between atoms: C_6  and  O_7
REMARK    4  A    between atoms: O_7  and  C_8
REMARK    5  A    between atoms: C_9  and  C_10
REMARK    6  A    between atoms: N_11  and  N_12
REMARK    7  A    between atoms: C_13  and  C_15
REMARK    8  A    between atoms: C_15  and  N_16
REMARK                            x       y       z     vdW  Elec       q    Type
REMARK                         _______ _______ _______ _____ _____    ______ ____
ROOT
ATOM      1  N   UNL     1       7.796   8.255  17.530  0.00  0.00    +0.000 N 
ATOM      2  C   UNL     1       7.494   6.930  17.832  0.00  0.00    +0.000 C 
ATOM      3  O   UNL     1       7.900   6.329  18.825  0.00  0.00    +0.000 OA
ATOM      4  H   UNL     1       7.412   8.706  16.708  0.00  0.00    +0.000 HD
ENDROOT
BRANCH   1   6
ATOM      5  C   UNL     1       8.640  10.245  18.193  0.00  0.00    +0.000 C 
ATOM      6  N   UNL     1       8.602   8.961  18.368  0.00  0.00    +0.000 NA
BRANCH   5  11
ATOM      7  C   UNL     1       9.680  12.131  21.273  0.00  0.00    +0.000 A 
ATOM      8  C   UNL     1      10.765  12.868  20.808  0.00  0.00    +0.000 A 
ATOM      9  C   UNL     1      11.200  12.734  19.486  0.00  0.00    +0.000 A 
ATOM     10  C   UNL     1      10.559  11.858  18.598  0.00  0.00    +0.000 A 
ATOM     11  C   UNL     1       9.467  11.113  19.062  0.00  0.00    +0.000 A 
ATOM     12  C   UNL     1       9.048  11.244  20.404  0.00  0.00    +0.000 A 
BRANCH   7  14
ATOM     13  C   UNL     1       8.546  13.565  22.799  0.00  0.00    +0.000 C 
ATOM     14  O   UNL     1       9.311  12.385  22.566  0.00  0.00    +0.000 OA
ENDBRANCH   7  14
BRANCH  10  15
ATOM     15  O   UNL     1      11.021  11.949  17.313  0.00  0.00    +0.000 OA
ATOM     16  C   UNL     1      11.403  13.234  16.841  0.00  0.00    +0.000 C 
ENDBRANCH  10  15
ENDBRANCH   5  11
ENDBRANCH   1   6
BRANCH   2  17
ATOM     17  C   UNL     1       6.584   6.273  16.786  0.00  0.00    +0.000 C 
BRANCH  17  18
ATOM     18  N   UNL     1       5.543   5.386  17.340  0.00  0.00    +0.000 NA
ATOM     19  C   UNL     1       5.005   4.431  16.350  0.00  0.00    +0.000 C 
ATOM     20  C   UNL     1       4.171   3.321  17.031  0.00  0.00    +0.000 C 
ATOM     21  C   UNL     1       3.247   3.936  18.029  0.00  0.00    +0.000 A 
ATOM     22  S   UNL     1       1.931   3.110  18.710  0.00  0.00    +0.000 S 
ATOM     23  C   UNL     1       1.505   4.476  19.650  0.00  0.00    +0.000 A 
ATOM     24  C   UNL     1       2.368   5.536  19.451  0.00  0.00    +0.000 A 
ATOM     25  C   UNL     1       3.392   5.224  18.504  0.00  0.00    +0.000 A 
ATOM     26  C   UNL     1       4.465   6.153  18.006  0.00  0.00    +0.000 C 
ENDBRANCH  17  18
ENDBRANCH   2  17
TORSDOF 6
ENDMDL
MODEL 3
REMARK VINA RESULT:      -7.2      3.866      9.713
REMARK  Name = 
REMARK  8 active torsions:
REMARK  status: ('A' for Active; 'I' for Inactive)
REMARK    1  A    between atoms: C_1  and  O_2
REMARK    2  A    between atoms: O_2  and  C_3
REMARK    3  A    between atoms: C_6  and  O_7
REMARK    4  A    between atoms: O_7  and  C_8
REMARK    5  A    between atoms: C_9  and  C_10
REMARK    6  A    between atoms: N_11  and  N_12
REMARK    7  A    between atoms: C_13  and  C_15
REMARK    8  A    between atoms: C_15  and  N_16
REMARK                            x       y       z     vdW  Elec       q    Type
REMARK                         _______ _______ _______ _____ _____    ______ ____
ROOT
ATOM      1  N   UNL     1       8.637   8.450  18.440  0.00  0.00    +0.000 N 
ATOM      2  C   UNL     1       8.572   9.823  18.218  0.00  0.00    +0.000 C 
ATOM      3  O   UNL     1       7.683  10.388  17.582  0.00  0.00    +0.000 OA
ATOM      4  H   UNL     1       9.381   8.043  18.992  0.00  0.00    +0.000 HD
ENDROOT
BRANCH   1   6
ATOM      5  C   UNL     1       7.566   6.458  18.431  0.00  0.00    +0.000 C 
ATOM      6  N   UNL     1       7.668   7.646  17.923  0.00  0.00    +0.000 NA
BRANCH   5  11
ATOM      7  C   UNL     1       4.618   4.133  18.601  0.00  0.00    +0.000 A 
ATOM      8  C   UNL     1       4.624   3.565  17.332  0.00  0.00    +0.000 A 
ATOM      9  C   UNL     1       5.573   3.959  16.382  0.00  0.00    +0.000 A 
ATOM     10  C   UNL     1       6.537   4.932  16.682  0.00  0.00    +0.000 A 
ATOM     11  C   UNL     1       6.533   5.509  17.959  0.00  0.00    +0.000 A 
ATOM     12  C   UNL     1       5.560   5.115  18.903  0.00  0.00    +0.000 A 
BRANCH   7  14
ATOM     13  C   UNL     1       3.985   2.390  20.095  0.00  0.00    +0.000 C 
ATOM     14  O   UNL     1       3.680   3.632  19.463  0.00  0.00    +0.000 OA
ENDBRANCH   7  14
BRANCH  10  15
ATOM     15  O   UNL     1       7.468   5.101  15.694  0.00  0.00    +0.000 OA
ATOM     16  C   UNL     1       7.050   4.882  14.352  0.00  0.00    +0.000 C 
ENDBRANCH  10  15
ENDBRANCH   5  11
ENDBRANCH   1   6
BRANCH   2  17
ATOM     17  C   UNL     1       9.740  10.585  18.857  0.00  0.00    +0.000 C 
BRANCH  17  18
ATOM     18  N   UNL     1      10.062  11.875  18.216  0.00  0.00    +0.000 NA
ATOM     19  C   UNL     1      11.505  12.049  17.954  0.00  0.00    +0.000 C 
ATOM     20  C   UNL     1      11.767  13.242  17.004  0.00  0.00    +0.000 C 
ATOM     21  C   UNL     1      10.959  14.416  17.449  0.00  0.00    +0.000 A 
ATOM     22  S   UNL     1      11.237  15.997  16.902  0.00  0.00    +0.000 S 
ATOM     23  C   UNL     1       9.948  16.600  17.854  0.00  0.00    +0.000 A 
ATOM     24  C   UNL     1       9.311  15.600  18.563  0.00  0.00    +0.000 A 
ATOM     25  C   UNL     1       9.898  14.318  18.327  0.00  0.00    +0.000 A 
ATOM     26  C   UNL     1       9.500  13.018  18.971  0.00  0.00    +0.000 C 
ENDBRANCH  17  18
ENDBRANCH   2  17
TORSDOF 6
ENDMDL
MODEL 4
REMARK VINA RESULT:      -7.2      6.483      9.516
REMARK  Name = 
REMARK  8 active torsions:
REMARK  status: ('A' for Active; 'I' for Inactive)
REMARK    1  A    between atoms: C_1  and  O_2
REMARK    2  A    between atoms: O_2  and  C_3
REMARK    3  A    between atoms: C_6  and  O_7
REMARK    4  A    between atoms: O_7  and  C_8
REMARK    5  A    between atoms: C_9  and  C_10
REMARK    6  A    between atoms: N_11  and  N_12
REMARK    7  A    between atoms: C_13  and  C_15
REMARK    8  A    between atoms: C_15  and  N_16
REMARK                            x       y       z     vdW  Elec       q    Type
REMARK                         _______ _______ _______ _____ _____    ______ ____
ROOT
ATOM      1  N   UNL     1       1.855   8.639  19.053  0.00  0.00    +0.000 N 
ATOM      2  C   UNL     1       1.004   9.276  19.953  0.00  0.00    +0.000 C 
ATOM      3  O   UNL     1       0.436   8.721  20.892  0.00  0.00    +0.000 OA
ATOM      4  H   UNL     1       2.315   9.154  18.313  0.00  0.00    +0.000 HD
ENDROOT
BRANCH   1   6
ATOM      5  C   UNL     1       2.466   6.671  18.123  0.00  0.00    +0.000 C 
ATOM      6  N   UNL     1       2.087   7.306  19.188  0.00  0.00    +0.000 NA
BRANCH   5  11
ATOM      7  C   UNL     1       2.288   3.093  19.258  0.00  0.00    +0.000 A 
ATOM      8  C   UNL     1       3.322   2.508  18.536  0.00  0.00    +0.000 A 
ATOM      9  C   UNL     1       4.076   3.267  17.635  0.00  0.00    +0.000 A 
ATOM     10  C   UNL     1       3.810   4.629  17.435  0.00  0.00    +0.000 A 
ATOM     11  C   UNL     1       2.767   5.222  18.160  0.00  0.00    +0.000 A 
ATOM     12  C   UNL     1       2.003   4.441  19.054  0.00  0.00    +0.000 A 
BRANCH   7  14
ATOM     13  C   UNL     1       1.529   2.741  21.488  0.00  0.00    +0.000 C 
ATOM     14  O   UNL     1       1.656   2.267  20.150  0.00  0.00    +0.000 OA
ENDBRANCH   7  14
BRANCH  10  15
ATOM     15  O   UNL     1       4.722   5.251  16.627  0.00  0.00    +0.000 OA
ATOM     16  C   UNL     1       6.081   4.850  16.740  0.00  0.00    +0.000 C 
ENDBRANCH  10  15
ENDBRANCH   5  11
ENDBRANCH   1   6
BRANCH   2  17
ATOM     17  C   UNL     1       0.841  10.773  19.660  0.00  0.00    +0.000 C 
BRANCH  17  18
ATOM     18  N   UNL     1      -0.421  11.138  18.988  0.00  0.00    +0.000 NA
ATOM     19  C   UNL     1      -1.533  11.380  19.930  0.00  0.00    +0.000 C 
ATOM     20  C   UNL     1      -2.729  12.066  19.229  0.00  0.00    +0.000 C 
ATOM     21  C   UNL     1      -3.006  11.378  17.935  0.00  0.00    +0.000 A 
ATOM     22  S   UNL     1      -4.443  11.590  17.058  0.00  0.00    +0.000 S 
ATOM     23  C   UNL     1      -3.908  10.517  15.837  0.00  0.00    +0.000 A 
ATOM     24  C   UNL     1      -2.645  10.020  16.095  0.00  0.00    +0.000 A 
ATOM     25  C   UNL     1      -2.111  10.524  17.323  0.00  0.00    +0.000 A 
ATOM     26  C   UNL     1      -0.791  10.156  17.943  0.00  0.00    +0.000 C 
ENDBRANCH  17  18
ENDBRANCH   2  17
TORSDOF 6
ENDMDL
MODEL 5
REMARK VINA RESULT:      -7.2      3.863     10.003
REMARK  Name = 
REMARK  8 active torsions:
REMARK  status: ('A' for Active; 'I' for Inactive)
REMARK    1  A    between atoms: C_1  and  O_2
REMARK    2  A    between atoms: O_2  and  C_3
REMARK    3  A    between atoms: C_6  and  O_7
REMARK    4  A    between atoms: O_7  and  C_8
REMARK    5  A    between atoms: C_9  and  C_10
REMARK    6  A    between atoms: N_11  and  N_12
REMARK    7  A    between atoms: C_13  and  C_15
REMARK    8  A    between atoms: C_15  and  N_16
REMARK                            x       y       z     vdW  Elec       q    Type
REMARK                         _______ _______ _______ _____ _____    ______ ____
ROOT
ATOM      1  N   UNL     1       8.675   8.276  18.720  0.00  0.00    +0.000 N 
ATOM      2  C   UNL     1       8.633   9.641  18.452  0.00  0.00    +0.000 C 
ATOM      3  O   UNL     1       7.910  10.166  17.608  0.00  0.00    +0.000 OA
ATOM      4  H   UNL     1       9.275   7.902  19.446  0.00  0.00    +0.000 HD
ENDROOT
BRANCH   1   6
ATOM      5  C   UNL     1       7.535   6.327  18.589  0.00  0.00    +0.000 C 
ATOM      6  N   UNL     1       7.880   7.433  18.007  0.00  0.00    +0.000 NA
BRANCH   5  11
ATOM      7  C   UNL     1       6.249   4.081  15.864  0.00  0.00    +0.000 A 
ATOM      8  C   UNL     1       5.027   3.666  16.383  0.00  0.00    +0.000 A 
ATOM      9  C   UNL     1       4.617   4.085  17.653  0.00  0.00    +0.000 A 
ATOM     10  C   UNL     1       5.421   4.928  18.433  0.00  0.00    +0.000 A 
ATOM     11  C   UNL     1       6.653   5.348  17.913  0.00  0.00    +0.000 A 
ATOM     12  C   UNL     1       7.064   4.905  16.637  0.00  0.00    +0.000 A 
BRANCH   7  14
ATOM     13  C   UNL     1       5.599   4.036  13.573  0.00  0.00    +0.000 C 
ATOM     14  O   UNL     1       6.520   3.653  14.592  0.00  0.00    +0.000 OA
ENDBRANCH   7  14
BRANCH  10  15
ATOM     15  O   UNL     1       4.814   5.350  19.584  0.00  0.00    +0.000 OA
ATOM     16  C   UNL     1       3.434   5.684  19.515  0.00  0.00    +0.000 C 
ENDBRANCH  10  15
ENDBRANCH   5  11
ENDBRANCH   1   6
BRANCH   2  17
ATOM     17  C   UNL     1       9.594  10.450  19.333  0.00  0.00    +0.000 C 
BRANCH  17  18
ATOM     18  N   UNL     1      10.140  11.666  18.699  0.00  0.00    +0.000 NA
ATOM     19  C   UNL     1      11.603  11.795  18.855  0.00  0.00    +0.000 C 
ATOM     20  C   UNL     1      12.177  12.884  17.918  0.00  0.00    +0.000 C 
ATOM     21  C   UNL     1      11.324  14.106  17.997  0.00  0.00    +0.000 A 
ATOM     22  S   UNL     1      11.814  15.621  17.412  0.00  0.00    +0.000 S 
ATOM     23  C   UNL     1      10.330  16.332  17.885  0.00  0.00    +0.000 A 
ATOM     24  C   UNL     1       9.474  15.416  18.466  0.00  0.00    +0.000 A 
ATOM     25  C   UNL     1      10.051  14.109  18.531  0.00  0.00    +0.000 A 
ATOM     26  C   UNL     1       9.430  12.885  19.148  0.00  0.00    +0.000 C 
ENDBRANCH  17  18
ENDBRANCH   2  17
TORSDOF 6
ENDMDL
MODEL 6
REMARK VINA RESULT:      -7.2      1.379      3.143
REMARK  Name = 
REMARK  8 active torsions:
REMARK  status: ('A' for Active; 'I' for Inactive)
REMARK    1  A    between atoms: C_1  and  O_2
REMARK    2  A    between atoms: O_2  and  C_3
REMARK    3  A    between atoms: C_6  and  O_7
REMARK    4  A    between atoms: O_7  and  C_8
REMARK    5  A    between atoms: C_9  and  C_10
REMARK    6  A    between atoms: N_11  and  N_12
REMARK    7  A    between atoms: C_13  and  C_15
REMARK    8  A    between atoms: C_15  and  N_16
REMARK                            x       y       z     vdW  Elec       q    Type
REMARK                         _______ _______ _______ _____ _____    ______ ____
ROOT
ATOM      1  N   UNL     1       8.512   7.646  18.786  0.00  0.00    +0.000 N 
ATOM      2  C   UNL     1       7.653   6.927  17.959  0.00  0.00    +0.000 C 
ATOM      3  O   UNL     1       7.032   7.404  17.011  0.00  0.00    +0.000 OA
ATOM      4  H   UNL     1       9.016   7.194  19.539  0.00  0.00    +0.000 HD
ENDROOT
BRANCH   1   6
ATOM      5  C   UNL     1       9.267   9.652  19.506  0.00  0.00    +0.000 C 
ATOM      6  N   UNL     1       8.692   8.976  18.562  0.00  0.00    +0.000 NA
BRANCH   5  11
ATOM      7  C   UNL     1      10.438  12.846  17.908  0.00  0.00    +0.000 A 
ATOM      8  C   UNL     1      10.298  13.759  18.948  0.00  0.00    +0.000 A 
ATOM      9  C   UNL     1       9.782  13.353  20.183  0.00  0.00    +0.000 A 
ATOM     10  C   UNL     1       9.394  12.024  20.405  0.00  0.00    +0.000 A 
ATOM     11  C   UNL     1       9.532  11.101  19.359  0.00  0.00    +0.000 A 
ATOM     12  C   UNL     1      10.038  11.527  18.112  0.00  0.00    +0.000 A 
BRANCH   7  14
ATOM     13  C   UNL     1      12.328  13.860  16.873  0.00  0.00    +0.000 C 
ATOM     14  O   UNL     1      11.004  13.343  16.765  0.00  0.00    +0.000 OA
ENDBRANCH   7  14
BRANCH  10  15
ATOM     15  O   UNL     1       9.042  11.768  21.702  0.00  0.00    +0.000 OA
ATOM     16  C   UNL     1       7.927  12.474  22.233  0.00  0.00    +0.000 C 
ENDBRANCH  10  15
ENDBRANCH   5  11
ENDBRANCH   1   6
BRANCH   2  17
ATOM     17  C   UNL     1       7.553   5.447  18.349  0.00  0.00    +0.000 C 
BRANCH  17  18
ATOM     18  N   UNL     1       6.198   4.870  18.249  0.00  0.00    +0.000 NA
ATOM     19  C   UNL     1       5.659   4.888  16.874  0.00  0.00    +0.000 C 
ATOM     20  C   UNL     1       4.400   3.997  16.749  0.00  0.00    +0.000 C 
ATOM     21  C   UNL     1       3.485   4.269  17.895  0.00  0.00    +0.000 A 
ATOM     22  S   UNL     1       1.863   3.774  17.927  0.00  0.00    +0.000 S 
ATOM     23  C   UNL     1       1.640   4.455  19.482  0.00  0.00    +0.000 A 
ATOM     24  C   UNL     1       2.795   5.036  19.967  0.00  0.00    +0.000 A 
ATOM     25  C   UNL     1       3.880   4.928  19.042  0.00  0.00    +0.000 A 
ATOM     26  C   UNL     1       5.263   5.494  19.213  0.00  0.00    +0.000 C 
ENDBRANCH  17  18
ENDBRANCH   2  17
TORSDOF 6
ENDMDL
MODEL 7
REMARK VINA RESULT:      -7.1      3.877     10.169
REMARK  Name = 
REMARK  8 active torsions:
REMARK  status: ('A' for Active; 'I' for Inactive)
REMARK    1  A    between atoms: C_1  and  O_2
REMARK    2  A    between atoms: O_2  and  C_3
REMARK    3  A    between atoms: C_6  and  O_7
REMARK    4  A    between atoms: O_7  and  C_8
REMARK    5  A    between atoms: C_9  and  C_10
REMARK    6  A    between atoms: N_11  and  N_12
REMARK    7  A    between atoms: C_13  and  C_15
REMARK    8  A    between atoms: C_15  and  N_16
REMARK                            x       y       z     vdW  Elec       q    Type
REMARK                         _______ _______ _______ _____ _____    ______ ____
ROOT
ATOM      1  N   UNL     1       8.593   8.363  18.746  0.00  0.00    +0.000 N 
ATOM      2  C   UNL     1       8.764   9.729  18.539  0.00  0.00    +0.000 C 
ATOM      3  O   UNL     1       8.291  10.358  17.594  0.00  0.00    +0.000 OA
ATOM      4  H   UNL     1       8.986   7.902  19.558  0.00  0.00    +0.000 HD
ENDROOT
BRANCH   1   6
ATOM      5  C   UNL     1       7.583   6.419  18.183  0.00  0.00    +0.000 C 
ATOM      6  N   UNL     1       7.864   7.641  17.853  0.00  0.00    +0.000 NA
BRANCH   5  11
ATOM      7  C   UNL     1       6.550   4.629  15.045  0.00  0.00    +0.000 A 
ATOM      8  C   UNL     1       5.306   4.117  15.399  0.00  0.00    +0.000 A 
ATOM      9  C   UNL     1       4.797   4.318  16.686  0.00  0.00    +0.000 A 
ATOM     10  C   UNL     1       5.522   5.035  17.649  0.00  0.00    +0.000 A 
ATOM     11  C   UNL     1       6.777   5.551  17.296  0.00  0.00    +0.000 A 
ATOM     12  C   UNL     1       7.287   5.327  15.998  0.00  0.00    +0.000 A 
BRANCH   7  14
ATOM     13  C   UNL     1       6.045   3.625  12.945  0.00  0.00    +0.000 C 
ATOM     14  O   UNL     1       6.921   4.417  13.744  0.00  0.00    +0.000 OA
ENDBRANCH   7  14
BRANCH  10  15
ATOM     15  O   UNL     1       4.826   5.255  18.805  0.00  0.00    +0.000 OA
ATOM     16  C   UNL     1       3.431   5.512  18.694  0.00  0.00    +0.000 C 
ENDBRANCH  10  15
ENDBRANCH   5  11
ENDBRANCH   1   6
BRANCH   2  17
ATOM     17  C   UNL     1       9.616  10.394  19.628  0.00  0.00    +0.000 C 
BRANCH  17  18
ATOM     18  N   UNL     1      10.195  11.698  19.251  0.00  0.00    +0.000 NA
ATOM     19  C   UNL     1      11.528  11.584  18.625  0.00  0.00    +0.000 C 
ATOM     20  C   UNL     1      11.954  12.912  17.957  0.00  0.00    +0.000 C 
ATOM     21  C   UNL     1      11.680  14.046  18.888  0.00  0.00    +0.000 A 
ATOM     22  S   UNL     1      12.332  15.598  18.681  0.00  0.00    +0.000 S 
ATOM     23  C   UNL     1      11.536  16.167  20.086  0.00  0.00    +0.000 A 
ATOM     24  C   UNL     1      10.775  15.185  20.689  0.00  0.00    +0.000 A 
ATOM     25  C   UNL     1      10.854  13.940  19.989  0.00  0.00    +0.000 A 
ATOM     26  C   UNL     1      10.202  12.645  20.390  0.00  0.00    +0.000 C 
ENDBRANCH  17  18
ENDBRANCH   2  17
TORSDOF 6
ENDMDL
MODEL 8
REMARK VINA RESULT:      -7.1      6.551      9.813
REMARK  Name = 
REMARK  8 active torsions:
REMARK  status: ('A' for Active; 'I' for Inactive)
REMARK    1  A    between atoms: C_1  and  O_2
REMARK    2  A    between atoms: O_2  and  C_3
REMARK    3  A    between atoms: C_6  and  O_7
REMARK    4  A    between atoms: O_7  and  C_8
REMARK    5  A    between atoms: C_9  and  C_10
REMARK    6  A    between atoms: N_11  and  N_12
REMARK    7  A    between atoms: C_13  and  C_15
REMARK    8  A    between atoms: C_15  and  N_16
REMARK                            x       y       z     vdW  Elec       q    Type
REMARK                         _______ _______ _______ _____ _____    ______ ____
ROOT
ATOM      1  N   UNL     1       1.797   8.256  19.312  0.00  0.00    +0.000 N 
ATOM      2  C   UNL     1       1.705   9.408  18.536  0.00  0.00    +0.000 C 
ATOM      3  O   UNL     1       2.120   9.510  17.383  0.00  0.00    +0.000 OA
ATOM      4  H   UNL     1       1.415   8.223  20.249  0.00  0.00    +0.000 HD
ENDROOT
BRANCH   1   6
ATOM      5  C   UNL     1       2.147   6.023  19.384  0.00  0.00    +0.000 C 
ATOM      6  N   UNL     1       2.392   7.149  18.790  0.00  0.00    +0.000 NA
BRANCH   5  11
ATOM      7  C   UNL     1       4.206   3.721  17.242  0.00  0.00    +0.000 A 
ATOM      8  C   UNL     1       3.778   2.469  17.669  0.00  0.00    +0.000 A 
ATOM      9  C   UNL     1       2.832   2.353  18.693  0.00  0.00    +0.000 A 
ATOM     10  C   UNL     1       2.294   3.489  19.314  0.00  0.00    +0.000 A 
ATOM     11  C   UNL     1       2.724   4.753  18.888  0.00  0.00    +0.000 A 
ATOM     12  C   UNL     1       3.692   4.856  17.866  0.00  0.00    +0.000 A 
BRANCH   7  14
ATOM     13  C   UNL     1       5.561   4.980  15.741  0.00  0.00    +0.000 C 
ATOM     14  O   UNL     1       5.092   3.713  16.198  0.00  0.00    +0.000 OA
ENDBRANCH   7  14
BRANCH  10  15
ATOM     15  O   UNL     1       1.287   3.204  20.195  0.00  0.00    +0.000 OA
ATOM     16  C   UNL     1       1.644   2.984  21.554  0.00  0.00    +0.000 C 
ENDBRANCH  10  15
ENDBRANCH   5  11
ENDBRANCH   1   6
BRANCH   2  17
ATOM     17  C   UNL     1       1.019  10.567  19.271  0.00  0.00    +0.000 C 
BRANCH  17  18
ATOM     18  N   UNL     1      -0.276  10.983  18.698  0.00  0.00    +0.000 NA
ATOM     19  C   UNL     1      -1.299  11.272  19.723  0.00  0.00    +0.000 C 
ATOM     20  C   UNL     1      -2.517  12.006  19.115  0.00  0.00    +0.000 C 
ATOM     21  C   UNL     1      -2.923  11.328  17.849  0.00  0.00    +0.000 A 
ATOM     22  S   UNL     1      -4.414  11.598  17.087  0.00  0.00    +0.000 S 
ATOM     23  C   UNL     1      -4.021  10.502  15.832  0.00  0.00    +0.000 A 
ATOM     24  C   UNL     1      -2.764   9.954  15.994  0.00  0.00    +0.000 A 
ATOM     25  C   UNL     1      -2.115  10.436  17.173  0.00  0.00    +0.000 A 
ATOM     26  C   UNL     1      -0.767  10.015  17.690  0.00  0.00    +0.000 C 
ENDBRANCH  17  18
ENDBRANCH   2  17
TORSDOF 6
ENDMDL
MODEL 9
REMARK VINA RESULT:      -7.0      6.255      9.451
REMARK  Name = 
REMARK  8 active torsions:
REMARK  status: ('A' for Active; 'I' for Inactive)
REMARK    1  A    between atoms: C_1  and  O_2
REMARK    2  A    between atoms: O_2  and  C_3
REMARK    3  A    between atoms: C_6  and  O_7
REMARK    4  A    between atoms: O_7  and  C_8
REMARK    5  A    between atoms: C_9  and  C_10
REMARK    6  A    between atoms: N_11  and  N_12
REMARK    7  A    between atoms: C_13  and  C_15
REMARK    8  A    between atoms: C_15  and  N_16
REMARK                            x       y       z     vdW  Elec       q    Type
REMARK                         _______ _______ _______ _____ _____    ______ ____
ROOT
ATOM      1  N   UNL     1       1.661   8.605  18.846  0.00  0.00    +0.000 N 
ATOM      2  C   UNL     1       1.637   9.947  18.475  0.00  0.00    +0.000 C 
ATOM      3  O   UNL     1       2.128  10.396  17.441  0.00  0.00    +0.000 OA
ATOM      4  H   UNL     1       1.218   8.289  19.700  0.00  0.00    +0.000 HD
ENDROOT
BRANCH   1   6
ATOM      5  C   UNL     1       3.137   6.911  18.587  0.00  0.00    +0.000 C 
ATOM      6  N   UNL     1       2.272   7.701  18.032  0.00  0.00    +0.000 NA
BRANCH   5  11
ATOM      7  C   UNL     1       5.355   5.451  15.927  0.00  0.00    +0.000 A 
ATOM      8  C   UNL     1       5.116   4.088  16.067  0.00  0.00    +0.000 A 
ATOM      9  C   UNL     1       4.251   3.618  17.061  0.00  0.00    +0.000 A 
ATOM     10  C   UNL     1       3.606   4.502  17.938  0.00  0.00    +0.000 A 
ATOM     11  C   UNL     1       3.844   5.876  17.801  0.00  0.00    +0.000 A 
ATOM     12  C   UNL     1       4.733   6.337  16.805  0.00  0.00    +0.000 A 
BRANCH   7  14
ATOM     13  C   UNL     1       6.969   4.759  14.319  0.00  0.00    +0.000 C 
ATOM     14  O   UNL     1       6.175   5.798  14.888  0.00  0.00    +0.000 OA
ENDBRANCH   7  14
BRANCH  10  15
ATOM     15  O   UNL     1       2.694   3.891  18.755  0.00  0.00    +0.000 OA
ATOM     16  C   UNL     1       1.456   3.494  18.179  0.00  0.00    +0.000 C 
ENDBRANCH  10  15
ENDBRANCH   5  11
ENDBRANCH   1   6
BRANCH   2  17
ATOM     17  C   UNL     1       0.921  10.835  19.501  0.00  0.00    +0.000 C 
BRANCH  17  18
ATOM     18  N   UNL     1      -0.429  11.278  19.102  0.00  0.00    +0.000 NA
ATOM     19  C   UNL     1      -1.307  11.574  20.251  0.00  0.00    +0.000 C 
ATOM     20  C   UNL     1      -2.580  12.335  19.809  0.00  0.00    +0.000 C 
ATOM     21  C   UNL     1      -3.156  11.675  18.601  0.00  0.00    +0.000 A 
ATOM     22  S   UNL     1      -4.728  11.978  18.038  0.00  0.00    +0.000 S 
ATOM     23  C   UNL     1      -4.518  10.886  16.735  0.00  0.00    +0.000 A 
ATOM     24  C   UNL     1      -3.260  10.316  16.731  0.00  0.00    +0.000 A 
ATOM     25  C   UNL     1      -2.457  10.777  17.821  0.00  0.00    +0.000 A 
ATOM     26  C   UNL     1      -1.062  10.328  18.158  0.00  0.00    +0.000 C 
ENDBRANCH  17  18
ENDBRANCH   2  17
TORSDOF 6
ENDMDL
