MODEL 1
REMARK VINA RESULT:      -6.2      0.000      0.000
REMARK  Name = 
REMARK  14 active torsions:
REMARK  status: ('A' for Active; 'I' for Inactive)
REMARK    1  A    between atoms: C_1  and  C_2
REMARK    2  A    between atoms: C_2  and  C_3
REMARK    3  A    between atoms: C_3  and  C_4
REMARK    4  A    between atoms: C_4  and  C_5
REMARK    5  A    between atoms: C_5  and  C_6
REMARK    6  A    between atoms: C_6  and  C_7
REMARK    7  A    between atoms: C_7  and  C_8
REMARK    8  A    between atoms: C_8  and  C_9
REMARK    9  A    between atoms: C_9  and  C_10
REMARK   10  A    between atoms: C_10  and  C_11
REMARK   11  A    between atoms: C_11  and  C_12
REMARK   12  A    between atoms: C_12  and  C_13
REMARK   13  A    between atoms: C_13  and  C_14
REMARK   14  A    between atoms: C_16  and  O_17
REMARK                            x       y       z     vdW  Elec       q    Type
REMARK                         _______ _______ _______ _____ _____    ______ ____
ROOT
ATOM      1  C   UNL     1       1.189   4.997  19.956  0.00  0.00    +0.000 C 
ATOM      2  C   UNL     1       0.915   3.590  20.494  0.00  0.00    +0.000 C 
ATOM      3  C   UNL     1       2.117   2.664  20.404  0.00  0.00    +0.000 C 
ATOM      4  C   UNL     1       2.718   2.729  19.005  0.00  0.00    +0.000 C 
ATOM      5  C   UNL     1       3.102   4.157  18.622  0.00  0.00    +0.000 C 
ATOM      6  C   UNL     1       4.358   4.632  19.358  0.00  0.00    +0.000 C 
ATOM      7  C   UNL     1       4.913   5.636  18.378  0.00  0.00    +0.000 C 
ATOM      8  C   UNL     1       4.714   4.902  17.063  0.00  0.00    +0.000 C 
ATOM      9  C   UNL     1       5.792   3.859  16.770  0.00  0.00    +0.000 C 
ATOM     10  C   UNL     1       7.020   4.311  16.438  0.00  0.00    +0.000 C 
ATOM     11  C   UNL     1       6.974   5.233  15.248  0.00  0.00    +0.000 C 
ATOM     12  O   UNL     1       7.951   5.392  14.529  0.00  0.00    +0.000 OA
ATOM     13  C   UNL     1       5.719   6.016  15.051  0.00  0.00    +0.000 C 
ATOM     14  C   UNL     1       4.677   5.864  15.895  0.00  0.00    +0.000 C 
ATOM     15  O   UNL     1       3.475   4.183  17.211  0.00  0.00    +0.000 OA
ATOM     16  O   UNL     1       1.994   5.048  18.773  0.00  0.00    +0.000 OA
ENDROOT
BRANCH   3  17
ATOM     17  O   UNL     1       3.085   3.011  21.388  0.00  0.00    +0.000 OA
ATOM     18  H   UNL     1       3.877   2.466  21.240  0.00  0.00    +0.000 HD
ENDBRANCH   3  17
BRANCH   1  19
ATOM     19  C   UNL     1       1.630   6.015  21.033  0.00  0.00    +0.000 C 
BRANCH  19  20
ATOM     20  C   UNL     1       0.861   7.330  20.855  0.00  0.00    +0.000 C 
BRANCH  20  21
ATOM     21  C   UNL     1       1.338   8.506  21.708  0.00  0.00    +0.000 C 
BRANCH  21  22
ATOM     22  C   UNL     1       0.270   9.175  22.574  0.00  0.00    +0.000 C 
BRANCH  22  23
ATOM     23  C   UNL     1       0.153  10.694  22.413  0.00  0.00    +0.000 C 
BRANCH  23  24
ATOM     24  C   UNL     1      -1.270  11.259  22.452  0.00  0.00    +0.000 C 
BRANCH  24  25
ATOM     25  C   UNL     1      -1.661  11.777  21.078  0.00  0.00    +0.000 C 
BRANCH  25  26
ATOM     26  C   UNL     1      -0.608  11.531  20.005  0.00  0.00    +0.000 C 
BRANCH  26  27
ATOM     27  C   UNL     1      -1.118  10.404  19.113  0.00  0.00    +0.000 C 
BRANCH  27  28
ATOM     28  C   UNL     1      -0.058   9.888  18.153  0.00  0.00    +0.000 C 
BRANCH  28  29
ATOM     29  C   UNL     1       1.276  10.568  18.450  0.00  0.00    +0.000 C 
BRANCH  29  31
ATOM     30  C   UNL     1       1.988   8.285  17.690  0.00  0.00    +0.000 C 
ATOM     31  C   UNL     1       2.447   9.695  18.019  0.00  0.00    +0.000 C 
ENDBRANCH  29  31
ENDBRANCH  28  29
ENDBRANCH  27  28
ENDBRANCH  26  27
ENDBRANCH  25  26
ENDBRANCH  24  25
ENDBRANCH  23  24
ENDBRANCH  22  23
ENDBRANCH  21  22
ENDBRANCH  20  21
ENDBRANCH  19  20
ENDBRANCH   1  19
TORSDOF 13
ENDMDL
MODEL 2
REMARK VINA RESULT:      -6.2      5.353      8.179
REMARK  Name = 
REMARK  14 active torsions:
REMARK  status: ('A' for Active; 'I' for Inactive)
REMARK    1  A    between atoms: C_1  and  C_2
REMARK    2  A    between atoms: C_2  and  C_3
REMARK    3  A    between atoms: C_3  and  C_4
REMARK    4  A    between atoms: C_4  and  C_5
REMARK    5  A    between atoms: C_5  and  C_6
REMARK    6  A    between atoms: C_6  and  C_7
REMARK    7  A    between atoms: C_7  and  C_8
REMARK    8  A    between atoms: C_8  and  C_9
REMARK    9  A    between atoms: C_9  and  C_10
REMARK   10  A    between atoms: C_10  and  C_11
REMARK   11  A    between atoms: C_11  and  C_12
REMARK   12  A    between atoms: C_12  and  C_13
REMARK   13  A    between atoms: C_13  and  C_14
REMARK   14  A    between atoms: C_16  and  O_17
REMARK                            x       y       z     vdW  Elec       q    Type
REMARK                         _______ _______ _______ _____ _____    ______ ____
ROOT
ATOM      1  C   UNL     1       7.379   5.762  17.120  0.00  0.00    +0.000 C 
ATOM      2  C   UNL     1       7.709   5.271  15.709  0.00  0.00    +0.000 C 
ATOM      3  C   UNL     1       6.494   4.772  14.943  0.00  0.00    +0.000 C 
ATOM      4  C   UNL     1       5.698   3.803  15.808  0.00  0.00    +0.000 C 
ATOM      5  C   UNL     1       5.282   4.439  17.133  0.00  0.00    +0.000 C 
ATOM      6  C   UNL     1       4.152   5.457  16.952  0.00  0.00    +0.000 C 
ATOM      7  C   UNL     1       3.475   5.390  18.298  0.00  0.00    +0.000 C 
ATOM      8  C   UNL     1       3.471   3.891  18.550  0.00  0.00    +0.000 C 
ATOM      9  C   UNL     1       2.348   3.149  17.827  0.00  0.00    +0.000 C 
ATOM     10  C   UNL     1       1.091   3.321  18.288  0.00  0.00    +0.000 C 
ATOM     11  C   UNL     1       0.978   2.967  19.748  0.00  0.00    +0.000 C 
ATOM     12  O   UNL     1      -0.091   2.629  20.238  0.00  0.00    +0.000 OA
ATOM     13  C   UNL     1       2.201   3.149  20.583  0.00  0.00    +0.000 C 
ATOM     14  C   UNL     1       3.352   3.581  20.026  0.00  0.00    +0.000 C 
ATOM     15  O   UNL     1       4.710   3.409  17.993  0.00  0.00    +0.000 OA
ATOM     16  O   UNL     1       6.412   4.975  17.825  0.00  0.00    +0.000 OA
ENDROOT
BRANCH   3  17
ATOM     17  O   UNL     1       5.684   5.867  14.532  0.00  0.00    +0.000 OA
ATOM     18  H   UNL     1       4.786   5.532  14.361  0.00  0.00    +0.000 HD
ENDBRANCH   3  17
BRANCH   1  19
ATOM     19  C   UNL     1       7.112   7.281  17.220  0.00  0.00    +0.000 C 
BRANCH  19  20
ATOM     20  C   UNL     1       8.148   7.934  18.143  0.00  0.00    +0.000 C 
BRANCH  20  21
ATOM     21  C   UNL     1       8.222   9.461  18.093  0.00  0.00    +0.000 C 
BRANCH  21  22
ATOM     22  C   UNL     1       9.264  10.106  19.008  0.00  0.00    +0.000 C 
BRANCH  22  23
ATOM     23  C   UNL     1      10.140  11.177  18.350  0.00  0.00    +0.000 C 
BRANCH  23  24
ATOM     24  C   UNL     1      11.402  11.570  19.123  0.00  0.00    +0.000 C 
BRANCH  24  25
ATOM     25  C   UNL     1      11.024  12.150  20.476  0.00  0.00    +0.000 C 
BRANCH  25  26
ATOM     26  C   UNL     1      10.476  13.570  20.407  0.00  0.00    +0.000 C 
BRANCH  26  27
ATOM     27  C   UNL     1      11.563  14.450  19.797  0.00  0.00    +0.000 C 
BRANCH  27  28
ATOM     28  C   UNL     1      11.022  15.408  18.748  0.00  0.00    +0.000 C 
BRANCH  28  29
ATOM     29  C   UNL     1       9.768  14.817  18.112  0.00  0.00    +0.000 C 
BRANCH  29  31
ATOM     30  C   UNL     1       7.351  15.189  18.680  0.00  0.00    +0.000 C 
ATOM     31  C   UNL     1       8.619  15.817  18.126  0.00  0.00    +0.000 C 
ENDBRANCH  29  31
ENDBRANCH  28  29
ENDBRANCH  27  28
ENDBRANCH  26  27
ENDBRANCH  25  26
ENDBRANCH  24  25
ENDBRANCH  23  24
ENDBRANCH  22  23
ENDBRANCH  21  22
ENDBRANCH  20  21
ENDBRANCH  19  20
ENDBRANCH   1  19
TORSDOF 13
ENDMDL
MODEL 3
REMARK VINA RESULT:      -6.2      1.697      2.301
REMARK  Name = 
REMARK  14 active torsions:
REMARK  status: ('A' for Active; 'I' for Inactive)
REMARK    1  A    between atoms: C_1  and  C_2
REMARK    2  A    between atoms: C_2  and  C_3
REMARK    3  A    between atoms: C_3  and  C_4
REMARK    4  A    between atoms: C_4  and  C_5
REMARK    5  A    between atoms: C_5  and  C_6
REMARK    6  A    between atoms: C_6  and  C_7
REMARK    7  A    between atoms: C_7  and  C_8
REMARK    8  A    between atoms: C_8  and  C_9
REMARK    9  A    between atoms: C_9  and  C_10
REMARK   10  A    between atoms: C_10  and  C_11
REMARK   11  A    between atoms: C_11  and  C_12
REMARK   12  A    between atoms: C_12  and  C_13
REMARK   13  A    between atoms: C_13  and  C_14
REMARK   14  A    between atoms: C_16  and  O_17
REMARK                            x       y       z     vdW  Elec       q    Type
REMARK                         _______ _______ _______ _____ _____    ______ ____
ROOT
ATOM      1  C   UNL     1       1.281   4.589  19.792  0.00  0.00    +0.000 C 
ATOM      2  C   UNL     1       1.011   3.136  20.187  0.00  0.00    +0.000 C 
ATOM      3  C   UNL     1       2.214   2.225  19.999  0.00  0.00    +0.000 C 
ATOM      4  C   UNL     1       2.808   2.432  18.610  0.00  0.00    +0.000 C 
ATOM      5  C   UNL     1       3.187   3.891  18.370  0.00  0.00    +0.000 C 
ATOM      6  C   UNL     1       4.447   4.292  19.143  0.00  0.00    +0.000 C 
ATOM      7  C   UNL     1       4.995   5.391  18.266  0.00  0.00    +0.000 C 
ATOM      8  C   UNL     1       4.791   4.792  16.885  0.00  0.00    +0.000 C 
ATOM      9  C   UNL     1       5.869   3.786  16.484  0.00  0.00    +0.000 C 
ATOM     10  C   UNL     1       7.094   4.271  16.192  0.00  0.00    +0.000 C 
ATOM     11  C   UNL     1       7.040   5.308  15.101  0.00  0.00    +0.000 C 
ATOM     12  O   UNL     1       8.013   5.540  14.397  0.00  0.00    +0.000 OA
ATOM     13  C   UNL     1       5.783   6.104  14.990  0.00  0.00    +0.000 C 
ATOM     14  C   UNL     1       4.746   5.866  15.820  0.00  0.00    +0.000 C 
ATOM     15  O   UNL     1       3.553   4.059  16.967  0.00  0.00    +0.000 OA
ATOM     16  O   UNL     1       2.079   4.760  18.616  0.00  0.00    +0.000 OA
ENDROOT
BRANCH   3  17
ATOM     17  O   UNL     1       3.187   2.474  21.008  0.00  0.00    +0.000 OA
ATOM     18  H   UNL     1       3.268   3.438  21.119  0.00  0.00    +0.000 HD
ENDBRANCH   3  17
BRANCH   1  19
ATOM     19  C   UNL     1       1.726   5.495  20.963  0.00  0.00    +0.000 C 
BRANCH  19  20
ATOM     20  C   UNL     1       1.600   6.970  20.560  0.00  0.00    +0.000 C 
BRANCH  20  21
ATOM     21  C   UNL     1       1.192   7.936  21.672  0.00  0.00    +0.000 C 
BRANCH  21  22
ATOM     22  C   UNL     1       1.072   9.405  21.265  0.00  0.00    +0.000 C 
BRANCH  22  23
ATOM     23  C   UNL     1      -0.138   9.745  20.388  0.00  0.00    +0.000 C 
BRANCH  23  24
ATOM     24  C   UNL     1      -0.128  11.139  19.753  0.00  0.00    +0.000 C 
BRANCH  24  25
ATOM     25  C   UNL     1      -0.784  11.089  18.383  0.00  0.00    +0.000 C 
BRANCH  25  26
ATOM     26  C   UNL     1      -1.827  12.177  18.160  0.00  0.00    +0.000 C 
BRANCH  26  27
ATOM     27  C   UNL     1      -3.163  11.485  17.905  0.00  0.00    +0.000 C 
BRANCH  27  28
ATOM     28  C   UNL     1      -3.011   9.996  17.640  0.00  0.00    +0.000 C 
BRANCH  28  29
ATOM     29  C   UNL     1      -3.550   9.665  16.252  0.00  0.00    +0.000 C 
BRANCH  29  31
ATOM     30  C   UNL     1      -3.000   9.922  13.816  0.00  0.00    +0.000 C 
ATOM     31  C   UNL     1      -2.932  10.566  15.190  0.00  0.00    +0.000 C 
ENDBRANCH  29  31
ENDBRANCH  28  29
ENDBRANCH  27  28
ENDBRANCH  26  27
ENDBRANCH  25  26
ENDBRANCH  24  25
ENDBRANCH  23  24
ENDBRANCH  22  23
ENDBRANCH  21  22
ENDBRANCH  20  21
ENDBRANCH  19  20
ENDBRANCH   1  19
TORSDOF 13
ENDMDL
MODEL 4
REMARK VINA RESULT:      -6.1      1.110      1.638
REMARK  Name = 
REMARK  14 active torsions:
REMARK  status: ('A' for Active; 'I' for Inactive)
REMARK    1  A    between atoms: C_1  and  C_2
REMARK    2  A    between atoms: C_2  and  C_3
REMARK    3  A    between atoms: C_3  and  C_4
REMARK    4  A    between atoms: C_4  and  C_5
REMARK    5  A    between atoms: C_5  and  C_6
REMARK    6  A    between atoms: C_6  and  C_7
REMARK    7  A    between atoms: C_7  and  C_8
REMARK    8  A    between atoms: C_8  and  C_9
REMARK    9  A    between atoms: C_9  and  C_10
REMARK   10  A    between atoms: C_10  and  C_11
REMARK   11  A    between atoms: C_11  and  C_12
REMARK   12  A    between atoms: C_12  and  C_13
REMARK   13  A    between atoms: C_13  and  C_14
REMARK   14  A    between atoms: C_16  and  O_17
REMARK                            x       y       z     vdW  Elec       q    Type
REMARK                         _______ _______ _______ _____ _____    ______ ____
ROOT
ATOM      1  C   UNL     1       1.201   4.652  19.807  0.00  0.00    +0.000 C 
ATOM      2  C   UNL     1       0.950   3.213  20.263  0.00  0.00    +0.000 C 
ATOM      3  C   UNL     1       2.170   2.316  20.129  0.00  0.00    +0.000 C 
ATOM      4  C   UNL     1       2.777   2.471  18.740  0.00  0.00    +0.000 C 
ATOM      5  C   UNL     1       3.136   3.925  18.439  0.00  0.00    +0.000 C 
ATOM      6  C   UNL     1       4.379   4.381  19.209  0.00  0.00    +0.000 C 
ATOM      7  C   UNL     1       4.920   5.449  18.291  0.00  0.00    +0.000 C 
ATOM      8  C   UNL     1       4.743   4.787  16.935  0.00  0.00    +0.000 C 
ATOM      9  C   UNL     1       5.842   3.782  16.592  0.00  0.00    +0.000 C 
ATOM     10  C   UNL     1       7.063   4.275  16.293  0.00  0.00    +0.000 C 
ATOM     11  C   UNL     1       7.005   5.261  15.157  0.00  0.00    +0.000 C 
ATOM     12  O   UNL     1       7.983   5.479  14.454  0.00  0.00    +0.000 OA
ATOM     13  C   UNL     1       5.737   6.031  14.996  0.00  0.00    +0.000 C 
ATOM     14  C   UNL     1       4.693   5.812  15.823  0.00  0.00    +0.000 C 
ATOM     15  O   UNL     1       3.516   4.037  17.035  0.00  0.00    +0.000 OA
ATOM     16  O   UNL     1       2.011   4.785  18.634  0.00  0.00    +0.000 OA
ENDROOT
BRANCH   3  17
ATOM     17  O   UNL     1       3.126   2.625  21.137  0.00  0.00    +0.000 OA
ATOM     18  H   UNL     1       3.592   3.438  20.873  0.00  0.00    +0.000 HD
ENDBRANCH   3  17
BRANCH   1  19
ATOM     19  C   UNL     1       1.617   5.616  20.942  0.00  0.00    +0.000 C 
BRANCH  19  20
ATOM     20  C   UNL     1       1.922   7.004  20.364  0.00  0.00    +0.000 C 
BRANCH  20  21
ATOM     21  C   UNL     1       1.272   8.187  21.083  0.00  0.00    +0.000 C 
BRANCH  21  22
ATOM     22  C   UNL     1      -0.233   8.070  21.326  0.00  0.00    +0.000 C 
BRANCH  22  23
ATOM     23  C   UNL     1      -0.831   9.132  22.254  0.00  0.00    +0.000 C 
BRANCH  23  24
ATOM     24  C   UNL     1       0.143  10.202  22.756  0.00  0.00    +0.000 C 
BRANCH  24  25
ATOM     25  C   UNL     1      -0.017  11.473  21.939  0.00  0.00    +0.000 C 
BRANCH  25  26
ATOM     26  C   UNL     1      -1.373  12.147  22.106  0.00  0.00    +0.000 C 
BRANCH  26  27
ATOM     27  C   UNL     1      -1.706  12.839  20.788  0.00  0.00    +0.000 C 
BRANCH  27  28
ATOM     28  C   UNL     1      -2.222  11.874  19.733  0.00  0.00    +0.000 C 
BRANCH  28  29
ATOM     29  C   UNL     1      -1.228  11.797  18.579  0.00  0.00    +0.000 C 
BRANCH  29  31
ATOM     30  C   UNL     1      -1.930   9.891  17.103  0.00  0.00    +0.000 C 
ATOM     31  C   UNL     1      -0.960  10.351  18.178  0.00  0.00    +0.000 C 
ENDBRANCH  29  31
ENDBRANCH  28  29
ENDBRANCH  27  28
ENDBRANCH  26  27
ENDBRANCH  25  26
ENDBRANCH  24  25
ENDBRANCH  23  24
ENDBRANCH  22  23
ENDBRANCH  21  22
ENDBRANCH  20  21
ENDBRANCH  19  20
ENDBRANCH   1  19
TORSDOF 13
ENDMDL
MODEL 5
REMARK VINA RESULT:      -6.1      1.376      2.288
REMARK  Name = 
REMARK  14 active torsions:
REMARK  status: ('A' for Active; 'I' for Inactive)
REMARK    1  A    between atoms: C_1  and  C_2
REMARK    2  A    between atoms: C_2  and  C_3
REMARK    3  A    between atoms: C_3  and  C_4
REMARK    4  A    between atoms: C_4  and  C_5
REMARK    5  A    between atoms: C_5  and  C_6
REMARK    6  A    between atoms: C_6  and  C_7
REMARK    7  A    between atoms: C_7  and  C_8
REMARK    8  A    between atoms: C_8  and  C_9
REMARK    9  A    between atoms: C_9  and  C_10
REMARK   10  A    between atoms: C_10  and  C_11
REMARK   11  A    between atoms: C_11  and  C_12
REMARK   12  A    between atoms: C_12  and  C_13
REMARK   13  A    between atoms: C_13  and  C_14
REMARK   14  A    between atoms: C_16  and  O_17
REMARK                            x       y       z     vdW  Elec       q    Type
REMARK                         _______ _______ _______ _____ _____    ______ ____
ROOT
ATOM      1  C   UNL     1       1.174   4.665  19.786  0.00  0.00    +0.000 C 
ATOM      2  C   UNL     1       0.937   3.246  20.308  0.00  0.00    +0.000 C 
ATOM      3  C   UNL     1       2.169   2.359  20.226  0.00  0.00    +0.000 C 
ATOM      4  C   UNL     1       2.786   2.456  18.836  0.00  0.00    +0.000 C 
ATOM      5  C   UNL     1       3.129   3.898  18.470  0.00  0.00    +0.000 C 
ATOM      6  C   UNL     1       4.360   4.405  19.226  0.00  0.00    +0.000 C 
ATOM      7  C   UNL     1       4.896   5.436  18.263  0.00  0.00    +0.000 C 
ATOM      8  C   UNL     1       4.737   4.708  16.939  0.00  0.00    +0.000 C 
ATOM      9  C   UNL     1       5.852   3.702  16.652  0.00  0.00    +0.000 C 
ATOM     10  C   UNL     1       7.069   4.195  16.339  0.00  0.00    +0.000 C 
ATOM     11  C   UNL     1       7.008   5.126  15.157  0.00  0.00    +0.000 C 
ATOM     12  O   UNL     1       7.990   5.323  14.453  0.00  0.00    +0.000 OA
ATOM     13  C   UNL     1       5.733   5.872  14.950  0.00  0.00    +0.000 C 
ATOM     14  C   UNL     1       4.685   5.679  15.779  0.00  0.00    +0.000 C 
ATOM     15  O   UNL     1       3.519   3.949  17.064  0.00  0.00    +0.000 OA
ATOM     16  O   UNL     1       1.992   4.752  18.615  0.00  0.00    +0.000 OA
ENDROOT
BRANCH   3  17
ATOM     17  O   UNL     1       3.113   2.727  21.226  0.00  0.00    +0.000 OA
ATOM     18  H   UNL     1       3.883   2.137  21.148  0.00  0.00    +0.000 HD
ENDBRANCH   3  17
BRANCH   1  19
ATOM     19  C   UNL     1       1.568   5.686  20.878  0.00  0.00    +0.000 C 
BRANCH  19  20
ATOM     20  C   UNL     1       2.233   6.910  20.233  0.00  0.00    +0.000 C 
BRANCH  20  21
ATOM     21  C   UNL     1       1.603   8.264  20.561  0.00  0.00    +0.000 C 
BRANCH  21  22
ATOM     22  C   UNL     1       0.481   8.240  21.601  0.00  0.00    +0.000 C 
BRANCH  22  23
ATOM     23  C   UNL     1       0.146   9.594  22.233  0.00  0.00    +0.000 C 
BRANCH  23  24
ATOM     24  C   UNL     1      -0.585  10.590  21.328  0.00  0.00    +0.000 C 
BRANCH  24  25
ATOM     25  C   UNL     1       0.396  11.222  20.354  0.00  0.00    +0.000 C 
BRANCH  25  26
ATOM     26  C   UNL     1      -0.157  11.389  18.944  0.00  0.00    +0.000 C 
BRANCH  26  27
ATOM     27  C   UNL     1      -1.166  10.268  18.712  0.00  0.00    +0.000 C 
BRANCH  27  28
ATOM     28  C   UNL     1      -1.881  10.390  17.377  0.00  0.00    +0.000 C 
BRANCH  28  29
ATOM     29  C   UNL     1      -3.380  10.184  17.577  0.00  0.00    +0.000 C 
BRANCH  29  31
ATOM     30  C   UNL     1      -5.583  11.383  17.482  0.00  0.00    +0.000 C 
ATOM     31  C   UNL     1      -4.098  11.513  17.774  0.00  0.00    +0.000 C 
ENDBRANCH  29  31
ENDBRANCH  28  29
ENDBRANCH  27  28
ENDBRANCH  26  27
ENDBRANCH  25  26
ENDBRANCH  24  25
ENDBRANCH  23  24
ENDBRANCH  22  23
ENDBRANCH  21  22
ENDBRANCH  20  21
ENDBRANCH  19  20
ENDBRANCH   1  19
TORSDOF 13
ENDMDL
MODEL 6
REMARK VINA RESULT:      -6.0      4.089     10.231
REMARK  Name = 
REMARK  14 active torsions:
REMARK  status: ('A' for Active; 'I' for Inactive)
REMARK    1  A    between atoms: C_1  and  C_2
REMARK    2  A    between atoms: C_2  and  C_3
REMARK    3  A    between atoms: C_3  and  C_4
REMARK    4  A    between atoms: C_4  and  C_5
REMARK    5  A    between atoms: C_5  and  C_6
REMARK    6  A    between atoms: C_6  and  C_7
REMARK    7  A    between atoms: C_7  and  C_8
REMARK    8  A    between atoms: C_8  and  C_9
REMARK    9  A    between atoms: C_9  and  C_10
REMARK   10  A    between atoms: C_10  and  C_11
REMARK   11  A    between atoms: C_11  and  C_12
REMARK   12  A    between atoms: C_12  and  C_13
REMARK   13  A    between atoms: C_13  and  C_14
REMARK   14  A    between atoms: C_16  and  O_17
REMARK                            x       y       z     vdW  Elec       q    Type
REMARK                         _______ _______ _______ _____ _____    ______ ____
ROOT
ATOM      1  C   UNL     1      -0.566  10.232  18.966  0.00  0.00    +0.000 C 
ATOM      2  C   UNL     1      -1.583  10.163  17.824  0.00  0.00    +0.000 C 
ATOM      3  C   UNL     1      -2.302  11.479  17.575  0.00  0.00    +0.000 C 
ATOM      4  C   UNL     1      -2.827  12.040  18.891  0.00  0.00    +0.000 C 
ATOM      5  C   UNL     1      -1.708  12.217  19.915  0.00  0.00    +0.000 C 
ATOM      6  C   UNL     1      -0.807  13.410  19.581  0.00  0.00    +0.000 C 
ATOM      7  C   UNL     1      -0.317  13.804  20.953  0.00  0.00    +0.000 C 
ATOM      8  C   UNL     1      -1.595  13.684  21.765  0.00  0.00    +0.000 C 
ATOM      9  C   UNL     1      -2.525  14.889  21.632  0.00  0.00    +0.000 C 
ATOM     10  C   UNL     1      -2.144  16.038  22.231  0.00  0.00    +0.000 C 
ATOM     11  C   UNL     1      -1.892  15.843  23.703  0.00  0.00    +0.000 C 
ATOM     12  O   UNL     1      -1.975  16.777  24.490  0.00  0.00    +0.000 OA
ATOM     13  C   UNL     1      -1.437  14.490  24.137  0.00  0.00    +0.000 C 
ATOM     14  C   UNL     1      -1.297  13.494  23.237  0.00  0.00    +0.000 C 
ATOM     15  O   UNL     1      -2.298  12.557  21.206  0.00  0.00    +0.000 OA
ATOM     16  O   UNL     1      -0.980  11.001  20.101  0.00  0.00    +0.000 OA
ENDROOT
BRANCH   3  17
ATOM     17  O   UNL     1      -1.431  12.407  16.940  0.00  0.00    +0.000 OA
ATOM     18  H   UNL     1      -1.976  13.099  16.525  0.00  0.00    +0.000 HD
ENDBRANCH   3  17
BRANCH   1  19
ATOM     19  C   UNL     1       0.878  10.549  18.514  0.00  0.00    +0.000 C 
BRANCH  19  20
ATOM     20  C   UNL     1       1.523   9.296  17.910  0.00  0.00    +0.000 C 
BRANCH  20  21
ATOM     21  C   UNL     1       1.864   8.177  18.894  0.00  0.00    +0.000 C 
BRANCH  21  22
ATOM     22  C   UNL     1       3.129   7.376  18.577  0.00  0.00    +0.000 C 
BRANCH  22  23
ATOM     23  C   UNL     1       2.927   6.169  17.656  0.00  0.00    +0.000 C 
BRANCH  23  24
ATOM     24  C   UNL     1       4.101   5.190  17.575  0.00  0.00    +0.000 C 
BRANCH  24  25
ATOM     25  C   UNL     1       4.447   4.677  18.963  0.00  0.00    +0.000 C 
BRANCH  25  26
ATOM     26  C   UNL     1       4.523   3.159  19.058  0.00  0.00    +0.000 C 
BRANCH  26  27
ATOM     27  C   UNL     1       3.514   2.587  18.067  0.00  0.00    +0.000 C 
BRANCH  27  28
ATOM     28  C   UNL     1       2.335   1.916  18.753  0.00  0.00    +0.000 C 
BRANCH  28  29
ATOM     29  C   UNL     1       1.169   2.896  18.846  0.00  0.00    +0.000 C 
BRANCH  29  31
ATOM     30  C   UNL     1       1.349   4.664  20.618  0.00  0.00    +0.000 C 
ATOM     31  C   UNL     1       0.868   3.260  20.294  0.00  0.00    +0.000 C 
ENDBRANCH  29  31
ENDBRANCH  28  29
ENDBRANCH  27  28
ENDBRANCH  26  27
ENDBRANCH  25  26
ENDBRANCH  24  25
ENDBRANCH  23  24
ENDBRANCH  22  23
ENDBRANCH  21  22
ENDBRANCH  20  21
ENDBRANCH  19  20
ENDBRANCH   1  19
TORSDOF 13
ENDMDL
MODEL 7
REMARK VINA RESULT:      -6.0      5.302      7.941
REMARK  Name = 
REMARK  14 active torsions:
REMARK  status: ('A' for Active; 'I' for Inactive)
REMARK    1  A    between atoms: C_1  and  C_2
REMARK    2  A    between atoms: C_2  and  C_3
REMARK    3  A    between atoms: C_3  and  C_4
REMARK    4  A    between atoms: C_4  and  C_5
REMARK    5  A    between atoms: C_5  and  C_6
REMARK    6  A    between atoms: C_6  and  C_7
REMARK    7  A    between atoms: C_7  and  C_8
REMARK    8  A    between atoms: C_8  and  C_9
REMARK    9  A    between atoms: C_9  and  C_10
REMARK   10  A    between atoms: C_10  and  C_11
REMARK   11  A    between atoms: C_11  and  C_12
REMARK   12  A    between atoms: C_12  and  C_13
REMARK   13  A    between atoms: C_13  and  C_14
REMARK   14  A    between atoms: C_16  and  O_17
REMARK                            x       y       z     vdW  Elec       q    Type
REMARK                         _______ _______ _______ _____ _____    ______ ____
ROOT
ATOM      1  C   UNL     1       7.229   6.134  17.180  0.00  0.00    +0.000 C 
ATOM      2  C   UNL     1       7.326   5.779  15.695  0.00  0.00    +0.000 C 
ATOM      3  C   UNL     1       6.010   5.305  15.100  0.00  0.00    +0.000 C 
ATOM      4  C   UNL     1       5.393   4.236  15.993  0.00  0.00    +0.000 C 
ATOM      5  C   UNL     1       5.194   4.739  17.421  0.00  0.00    +0.000 C 
ATOM      6  C   UNL     1       4.028   5.727  17.525  0.00  0.00    +0.000 C 
ATOM      7  C   UNL     1       3.590   5.519  18.953  0.00  0.00    +0.000 C 
ATOM      8  C   UNL     1       3.661   4.005  19.064  0.00  0.00    +0.000 C 
ATOM      9  C   UNL     1       2.448   3.287  18.474  0.00  0.00    +0.000 C 
ATOM     10  C   UNL     1       1.284   3.373  19.152  0.00  0.00    +0.000 C 
ATOM     11  C   UNL     1       1.427   2.890  20.571  0.00  0.00    +0.000 C 
ATOM     12  O   UNL     1       0.464   2.471  21.199  0.00  0.00    +0.000 OA
ATOM     13  C   UNL     1       2.769   3.043  21.203  0.00  0.00    +0.000 C 
ATOM     14  C   UNL     1       3.800   3.563  20.504  0.00  0.00    +0.000 C 
ATOM     15  O   UNL     1       4.797   3.618  18.267  0.00  0.00    +0.000 OA
ATOM     16  O   UNL     1       6.413   5.255  17.962  0.00  0.00    +0.000 OA
ENDROOT
BRANCH   3  17
ATOM     17  O   UNL     1       5.119   6.401  14.931  0.00  0.00    +0.000 OA
ATOM     18  H   UNL     1       4.427   6.337  15.614  0.00  0.00    +0.000 HD
ENDBRANCH   3  17
BRANCH   1  19
ATOM     19  C   UNL     1       6.950   7.628  17.461  0.00  0.00    +0.000 C 
BRANCH  19  20
ATOM     20  C   UNL     1       8.215   8.301  18.010  0.00  0.00    +0.000 C 
BRANCH  20  21
ATOM     21  C   UNL     1       8.233   9.830  17.965  0.00  0.00    +0.000 C 
BRANCH  21  22
ATOM     22  C   UNL     1       9.488  10.496  18.532  0.00  0.00    +0.000 C 
BRANCH  22  23
ATOM     23  C   UNL     1       9.489  10.709  20.049  0.00  0.00    +0.000 C 
BRANCH  23  24
ATOM     24  C   UNL     1      10.554  11.669  20.585  0.00  0.00    +0.000 C 
BRANCH  24  25
ATOM     25  C   UNL     1       9.898  12.761  21.413  0.00  0.00    +0.000 C 
BRANCH  25  26
ATOM     26  C   UNL     1       8.746  13.463  20.706  0.00  0.00    +0.000 C 
BRANCH  26  27
ATOM     27  C   UNL     1       9.258  14.820  20.234  0.00  0.00    +0.000 C 
BRANCH  27  28
ATOM     28  C   UNL     1       8.925  15.099  18.777  0.00  0.00    +0.000 C 
BRANCH  28  29
ATOM     29  C   UNL     1       9.657  14.101  17.884  0.00  0.00    +0.000 C 
BRANCH  29  31
ATOM     30  C   UNL     1      11.466  15.603  17.003  0.00  0.00    +0.000 C 
ATOM     31  C   UNL     1      11.154  14.384  17.855  0.00  0.00    +0.000 C 
ENDBRANCH  29  31
ENDBRANCH  28  29
ENDBRANCH  27  28
ENDBRANCH  26  27
ENDBRANCH  25  26
ENDBRANCH  24  25
ENDBRANCH  23  24
ENDBRANCH  22  23
ENDBRANCH  21  22
ENDBRANCH  20  21
ENDBRANCH  19  20
ENDBRANCH   1  19
TORSDOF 13
ENDMDL
MODEL 8
REMARK VINA RESULT:      -6.0      4.320      9.086
REMARK  Name = 
REMARK  14 active torsions:
REMARK  status: ('A' for Active; 'I' for Inactive)
REMARK    1  A    between atoms: C_1  and  C_2
REMARK    2  A    between atoms: C_2  and  C_3
REMARK    3  A    between atoms: C_3  and  C_4
REMARK    4  A    between atoms: C_4  and  C_5
REMARK    5  A    between atoms: C_5  and  C_6
REMARK    6  A    between atoms: C_6  and  C_7
REMARK    7  A    between atoms: C_7  and  C_8
REMARK    8  A    between atoms: C_8  and  C_9
REMARK    9  A    between atoms: C_9  and  C_10
REMARK   10  A    between atoms: C_10  and  C_11
REMARK   11  A    between atoms: C_11  and  C_12
REMARK   12  A    between atoms: C_12  and  C_13
REMARK   13  A    between atoms: C_13  and  C_14
REMARK   14  A    between atoms: C_16  and  O_17
REMARK                            x       y       z     vdW  Elec       q    Type
REMARK                         _______ _______ _______ _____ _____    ______ ____
ROOT
ATOM      1  C   UNL     1       0.412  10.562  21.865  0.00  0.00    +0.000 C 
ATOM      2  C   UNL     1      -0.694  10.900  22.867  0.00  0.00    +0.000 C 
ATOM      3  C   UNL     1      -1.432  12.189  22.541  0.00  0.00    +0.000 C 
ATOM      4  C   UNL     1      -0.431  13.303  22.264  0.00  0.00    +0.000 C 
ATOM      5  C   UNL     1       0.534  12.930  21.141  0.00  0.00    +0.000 C 
ATOM      6  C   UNL     1      -0.140  12.975  19.766  0.00  0.00    +0.000 C 
ATOM      7  C   UNL     1       1.035  13.285  18.871  0.00  0.00    +0.000 C 
ATOM      8  C   UNL     1       1.757  14.340  19.691  0.00  0.00    +0.000 C 
ATOM      9  C   UNL     1       1.153  15.738  19.564  0.00  0.00    +0.000 C 
ATOM     10  C   UNL     1       1.335  16.390  18.397  0.00  0.00    +0.000 C 
ATOM     11  C   UNL     1       2.795  16.514  18.047  0.00  0.00    +0.000 C 
ATOM     12  O   UNL     1       3.199  17.408  17.314  0.00  0.00    +0.000 OA
ATOM     13  C   UNL     1       3.701  15.441  18.548  0.00  0.00    +0.000 C 
ATOM     14  C   UNL     1       3.217  14.434  19.306  0.00  0.00    +0.000 C 
ATOM     15  O   UNL     1       1.585  13.939  21.064  0.00  0.00    +0.000 OA
ATOM     16  O   UNL     1       1.178  11.681  21.407  0.00  0.00    +0.000 OA
ENDROOT
BRANCH   3  17
ATOM     17  O   UNL     1      -2.297  11.996  21.427  0.00  0.00    +0.000 OA
ATOM     18  H   UNL     1      -1.868  12.378  20.640  0.00  0.00    +0.000 HD
ENDBRANCH   3  17
BRANCH   1  19
ATOM     19  C   UNL     1      -0.031   9.623  20.721  0.00  0.00    +0.000 C 
BRANCH  19  20
ATOM     20  C   UNL     1       1.193   8.933  20.107  0.00  0.00    +0.000 C 
BRANCH  20  21
ATOM     21  C   UNL     1       1.375   9.109  18.599  0.00  0.00    +0.000 C 
BRANCH  21  22
ATOM     22  C   UNL     1       2.595   8.413  17.992  0.00  0.00    +0.000 C 
BRANCH  22  23
ATOM     23  C   UNL     1       2.618   6.888  18.135  0.00  0.00    +0.000 C 
BRANCH  23  24
ATOM     24  C   UNL     1       4.006   6.250  18.234  0.00  0.00    +0.000 C 
BRANCH  24  25
ATOM     25  C   UNL     1       4.206   5.263  17.096  0.00  0.00    +0.000 C 
BRANCH  25  26
ATOM     26  C   UNL     1       4.110   3.803  17.522  0.00  0.00    +0.000 C 
BRANCH  26  27
ATOM     27  C   UNL     1       4.704   3.696  18.923  0.00  0.00    +0.000 C 
BRANCH  27  28
ATOM     28  C   UNL     1       4.192   2.484  19.685  0.00  0.00    +0.000 C 
BRANCH  28  29
ATOM     29  C   UNL     1       2.694   2.631  19.936  0.00  0.00    +0.000 C 
BRANCH  29  31
ATOM     30  C   UNL     1       1.026   4.412  20.525  0.00  0.00    +0.000 C 
ATOM     31  C   UNL     1       2.399   3.834  20.823  0.00  0.00    +0.000 C 
ENDBRANCH  29  31
ENDBRANCH  28  29
ENDBRANCH  27  28
ENDBRANCH  26  27
ENDBRANCH  25  26
ENDBRANCH  24  25
ENDBRANCH  23  24
ENDBRANCH  22  23
ENDBRANCH  21  22
ENDBRANCH  20  21
ENDBRANCH  19  20
ENDBRANCH   1  19
TORSDOF 13
ENDMDL
MODEL 9
REMARK VINA RESULT:      -6.0      1.213      1.852
REMARK  Name = 
REMARK  14 active torsions:
REMARK  status: ('A' for Active; 'I' for Inactive)
REMARK    1  A    between atoms: C_1  and  C_2
REMARK    2  A    between atoms: C_2  and  C_3
REMARK    3  A    between atoms: C_3  and  C_4
REMARK    4  A    between atoms: C_4  and  C_5
REMARK    5  A    between atoms: C_5  and  C_6
REMARK    6  A    between atoms: C_6  and  C_7
REMARK    7  A    between atoms: C_7  and  C_8
REMARK    8  A    between atoms: C_8  and  C_9
REMARK    9  A    between atoms: C_9  and  C_10
REMARK   10  A    between atoms: C_10  and  C_11
REMARK   11  A    between atoms: C_11  and  C_12
REMARK   12  A    between atoms: C_12  and  C_13
REMARK   13  A    between atoms: C_13  and  C_14
REMARK   14  A    between atoms: C_16  and  O_17
REMARK                            x       y       z     vdW  Elec       q    Type
REMARK                         _______ _______ _______ _____ _____    ______ ____
ROOT
ATOM      1  C   UNL     1       1.340   4.529  19.790  0.00  0.00    +0.000 C 
ATOM      2  C   UNL     1       1.081   3.085  20.225  0.00  0.00    +0.000 C 
ATOM      3  C   UNL     1       2.289   2.178  20.055  0.00  0.00    +0.000 C 
ATOM      4  C   UNL     1       2.874   2.350  18.659  0.00  0.00    +0.000 C 
ATOM      5  C   UNL     1       3.243   3.805  18.377  0.00  0.00    +0.000 C 
ATOM      6  C   UNL     1       4.504   4.235  19.133  0.00  0.00    +0.000 C 
ATOM      7  C   UNL     1       5.041   5.313  18.224  0.00  0.00    +0.000 C 
ATOM      8  C   UNL     1       4.833   4.676  16.861  0.00  0.00    +0.000 C 
ATOM      9  C   UNL     1       5.916   3.667  16.481  0.00  0.00    +0.000 C 
ATOM     10  C   UNL     1       7.137   4.152  16.170  0.00  0.00    +0.000 C 
ATOM     11  C   UNL     1       7.070   5.158  15.052  0.00  0.00    +0.000 C 
ATOM     12  O   UNL     1       8.039   5.378  14.337  0.00  0.00    +0.000 OA
ATOM     13  C   UNL     1       5.808   5.944  14.926  0.00  0.00    +0.000 C 
ATOM     14  C   UNL     1       4.776   5.721  15.767  0.00  0.00    +0.000 C 
ATOM     15  O   UNL     1       3.601   3.938  16.969  0.00  0.00    +0.000 OA
ATOM     16  O   UNL     1       2.131   4.674  18.606  0.00  0.00    +0.000 OA
ENDROOT
BRANCH   3  17
ATOM     17  O   UNL     1       3.265   2.460  21.052  0.00  0.00    +0.000 OA
ATOM     18  H   UNL     1       3.285   3.423  21.193  0.00  0.00    +0.000 HD
ENDBRANCH   3  17
BRANCH   1  19
ATOM     19  C   UNL     1       1.785   5.469  20.934  0.00  0.00    +0.000 C 
BRANCH  19  20
ATOM     20  C   UNL     1       0.861   6.692  20.995  0.00  0.00    +0.000 C 
BRANCH  20  21
ATOM     21  C   UNL     1       1.528   8.047  20.753  0.00  0.00    +0.000 C 
BRANCH  21  22
ATOM     22  C   UNL     1       0.579   9.239  20.619  0.00  0.00    +0.000 C 
BRANCH  22  23
ATOM     23  C   UNL     1       0.628  10.249  21.770  0.00  0.00    +0.000 C 
BRANCH  23  24
ATOM     24  C   UNL     1      -0.252   9.922  22.980  0.00  0.00    +0.000 C 
BRANCH  24  25
ATOM     25  C   UNL     1      -1.341  10.972  23.128  0.00  0.00    +0.000 C 
BRANCH  25  26
ATOM     26  C   UNL     1      -0.978  12.326  22.531  0.00  0.00    +0.000 C 
BRANCH  26  27
ATOM     27  C   UNL     1      -2.203  12.840  21.783  0.00  0.00    +0.000 C 
BRANCH  27  28
ATOM     28  C   UNL     1      -2.235  12.390  20.331  0.00  0.00    +0.000 C 
BRANCH  28  29
ATOM     29  C   UNL     1      -1.174  13.146  19.537  0.00  0.00    +0.000 C 
BRANCH  29  31
ATOM     30  C   UNL     1       1.109  12.459  18.750  0.00  0.00    +0.000 C 
ATOM     31  C   UNL     1      -0.385  12.205  18.636  0.00  0.00    +0.000 C 
ENDBRANCH  29  31
ENDBRANCH  28  29
ENDBRANCH  27  28
ENDBRANCH  26  27
ENDBRANCH  25  26
ENDBRANCH  24  25
ENDBRANCH  23  24
ENDBRANCH  22  23
ENDBRANCH  21  22
ENDBRANCH  20  21
ENDBRANCH  19  20
ENDBRANCH   1  19
TORSDOF 13
ENDMDL
