MODEL 1
REMARK VINA RESULT:      -8.5      0.000      0.000
REMARK  Name = 
REMARK  0 active torsions:
REMARK  status: ('A' for Active; 'I' for Inactive)
REMARK                            x       y       z     vdW  Elec       q    Type
REMARK                         _______ _______ _______ _____ _____    ______ ____
ROOT
ATOM      1  O   UNL     1       0.792   6.893  21.197  0.00  0.00    +0.000 OA
ATOM      2  C   UNL     1       1.547   7.140  20.259  0.00  0.00    +0.000 A 
ATOM      3  C   UNL     1       1.527   8.545  19.779  0.00  0.00    +0.000 A 
ATOM      4  C   UNL     1       0.876   9.525  20.550  0.00  0.00    +0.000 A 
ATOM      5  C   UNL     1       0.817  10.852  20.119  0.00  0.00    +0.000 A 
ATOM      6  C   UNL     1       1.440  11.214  18.932  0.00  0.00    +0.000 A 
ATOM      7 CL   UNL     1       1.381  12.845  18.389  0.00  0.00    +0.000 Cl
ATOM      8  C   UNL     1       2.083  10.252  18.158  0.00  0.00    +0.000 A 
ATOM      9  C   UNL     1       2.092   8.909  18.563  0.00  0.00    +0.000 A 
ATOM     10  S   UNL     1       2.674   7.713  17.418  0.00  0.00    +0.000 S 
ATOM     11  C   UNL     1       3.153   6.351  18.480  0.00  0.00    +0.000 A 
ATOM     12  C   UNL     1       4.098   5.409  18.010  0.00  0.00    +0.000 A 
ATOM     13  N   UNL     1       4.954   5.629  16.947  0.00  0.00    +0.000 N 
ATOM     14  C   UNL     1       5.570   6.932  16.657  0.00  0.00    +0.000 C 
ATOM     15  C   UNL     1       7.105   6.840  16.587  0.00  0.00    +0.000 C 
ATOM     16  N   UNL     1       7.583   5.813  15.650  0.00  0.00    +0.000 NA
ATOM     17  C   UNL     1       7.002   4.512  16.039  0.00  0.00    +0.000 C 
ATOM     18  C   UNL     1       5.457   4.509  16.135  0.00  0.00    +0.000 C 
ATOM     19  N   UNL     1       4.197   4.201  18.609  0.00  0.00    +0.000 NA
ATOM     20  C   UNL     1       3.464   3.892  19.687  0.00  0.00    +0.000 A 
ATOM     21  C   UNL     1       3.579   2.599  20.182  0.00  0.00    +0.000 A 
ATOM     22  C   UNL     1       2.889   2.165  21.313  0.00  0.00    +0.000 A 
ATOM     23  C   UNL     1       2.078   3.054  21.989  0.00  0.00    +0.000 A 
ATOM     24  C   UNL     1       1.940   4.354  21.502  0.00  0.00    +0.000 A 
ATOM     25  C   UNL     1       2.599   4.808  20.318  0.00  0.00    +0.000 A 
ATOM     26  C   UNL     1       2.455   6.083  19.678  0.00  0.00    +0.000 A 
ATOM     27  H   UNL     1       8.599   5.757  15.711  0.00  0.00    +0.000 HD
ENDROOT
TORSDOF 0
ENDMDL
MODEL 2
REMARK VINA RESULT:      -7.6      7.064      9.765
REMARK  Name = 
REMARK  0 active torsions:
REMARK  status: ('A' for Active; 'I' for Inactive)
REMARK                            x       y       z     vdW  Elec       q    Type
REMARK                         _______ _______ _______ _____ _____    ______ ____
ROOT
ATOM      1  O   UNL     1      -6.197  12.747  18.124  0.00  0.00    +0.000 OA
ATOM      2  C   UNL     1      -5.439  12.692  19.090  0.00  0.00    +0.000 A 
ATOM      3  C   UNL     1      -5.985  13.238  20.359  0.00  0.00    +0.000 A 
ATOM      4  C   UNL     1      -7.358  13.533  20.445  0.00  0.00    +0.000 A 
ATOM      5  C   UNL     1      -7.902  14.069  21.614  0.00  0.00    +0.000 A 
ATOM      6  C   UNL     1      -7.084  14.278  22.717  0.00  0.00    +0.000 A 
ATOM      7 CL   UNL     1      -7.740  14.934  24.165  0.00  0.00    +0.000 Cl
ATOM      8  C   UNL     1      -5.724  13.996  22.641  0.00  0.00    +0.000 A 
ATOM      9  C   UNL     1      -5.167  13.512  21.448  0.00  0.00    +0.000 A 
ATOM     10  S   UNL     1      -3.418  13.436  21.333  0.00  0.00    +0.000 S 
ATOM     11  C   UNL     1      -3.159  12.206  20.055  0.00  0.00    +0.000 A 
ATOM     12  C   UNL     1      -1.926  11.514  20.003  0.00  0.00    +0.000 A 
ATOM     13  N   UNL     1      -1.030  11.438  21.053  0.00  0.00    +0.000 N 
ATOM     14  C   UNL     1      -1.438  11.343  22.462  0.00  0.00    +0.000 C 
ATOM     15  C   UNL     1      -0.826  10.112  23.156  0.00  0.00    +0.000 C 
ATOM     16  N   UNL     1       0.636  10.039  23.025  0.00  0.00    +0.000 NA
ATOM     17  C   UNL     1       0.984  10.054  21.590  0.00  0.00    +0.000 C 
ATOM     18  C   UNL     1       0.410  11.260  20.808  0.00  0.00    +0.000 C 
ATOM     19  N   UNL     1      -1.562  10.875  18.867  0.00  0.00    +0.000 NA
ATOM     20  C   UNL     1      -2.372  10.825  17.802  0.00  0.00    +0.000 A 
ATOM     21  C   UNL     1      -1.876  10.215  16.657  0.00  0.00    +0.000 A 
ATOM     22  C   UNL     1      -2.632  10.077  15.493  0.00  0.00    +0.000 A 
ATOM     23  C   UNL     1      -3.932  10.537  15.477  0.00  0.00    +0.000 A 
ATOM     24  C   UNL     1      -4.446  11.163  16.613  0.00  0.00    +0.000 A 
ATOM     25  C   UNL     1      -3.676  11.359  17.800  0.00  0.00    +0.000 A 
ATOM     26  C   UNL     1      -4.068  12.069  18.983  0.00  0.00    +0.000 A 
ATOM     27  H   UNL     1       0.962   9.167  23.439  0.00  0.00    +0.000 HD
ENDROOT
TORSDOF 0
ENDMDL
MODEL 3
REMARK VINA RESULT:      -7.4      5.379      8.282
REMARK  Name = 
REMARK  0 active torsions:
REMARK  status: ('A' for Active; 'I' for Inactive)
REMARK                            x       y       z     vdW  Elec       q    Type
REMARK                         _______ _______ _______ _____ _____    ______ ____
ROOT
ATOM      1  O   UNL     1      -4.533  13.468  19.672  0.00  0.00    +0.000 OA
ATOM      2  C   UNL     1      -3.529  12.988  20.192  0.00  0.00    +0.000 A 
ATOM      3  C   UNL     1      -3.261  13.427  21.585  0.00  0.00    +0.000 A 
ATOM      4  C   UNL     1      -4.259  14.129  22.287  0.00  0.00    +0.000 A 
ATOM      5  C   UNL     1      -4.034  14.579  23.590  0.00  0.00    +0.000 A 
ATOM      6  C   UNL     1      -2.825  14.298  24.212  0.00  0.00    +0.000 A 
ATOM      7 CL   UNL     1      -2.534  14.841  25.818  0.00  0.00    +0.000 Cl
ATOM      8  C   UNL     1      -1.828  13.610  23.526  0.00  0.00    +0.000 A 
ATOM      9  C   UNL     1      -2.033  13.209  22.197  0.00  0.00    +0.000 A 
ATOM     10  S   UNL     1      -0.652  12.594  21.306  0.00  0.00    +0.000 S 
ATOM     11  C   UNL     1      -1.420  11.614  20.015  0.00  0.00    +0.000 A 
ATOM     12  C   UNL     1      -0.674  10.584  19.396  0.00  0.00    +0.000 A 
ATOM     13  N   UNL     1       0.473  10.024  19.929  0.00  0.00    +0.000 N 
ATOM     14  C   UNL     1       0.672   9.798  21.368  0.00  0.00    +0.000 C 
ATOM     15  C   UNL     1       1.003   8.327  21.679  0.00  0.00    +0.000 C 
ATOM     16  N   UNL     1       2.140   7.811  20.903  0.00  0.00    +0.000 NA
ATOM     17  C   UNL     1       1.850   7.986  19.466  0.00  0.00    +0.000 C 
ATOM     18  C   UNL     1       1.505   9.439  19.058  0.00  0.00    +0.000 C 
ATOM     19  N   UNL     1      -1.073  10.091  18.201  0.00  0.00    +0.000 NA
ATOM     20  C   UNL     1      -2.201  10.510  17.613  0.00  0.00    +0.000 A 
ATOM     21  C   UNL     1      -2.483  10.003  16.351  0.00  0.00    +0.000 A 
ATOM     22  C   UNL     1      -3.639  10.341  15.648  0.00  0.00    +0.000 A 
ATOM     23  C   UNL     1      -4.556  11.192  16.231  0.00  0.00    +0.000 A 
ATOM     24  C   UNL     1      -4.286  11.722  17.493  0.00  0.00    +0.000 A 
ATOM     25  C   UNL     1      -3.087  11.427  18.212  0.00  0.00    +0.000 A 
ATOM     26  C   UNL     1      -2.665  11.987  19.464  0.00  0.00    +0.000 A 
ATOM     27  H   UNL     1       2.254   6.818  21.103  0.00  0.00    +0.000 HD
ENDROOT
TORSDOF 0
ENDMDL
MODEL 4
REMARK VINA RESULT:      -6.9      8.022      9.232
REMARK  Name = 
REMARK  0 active torsions:
REMARK  status: ('A' for Active; 'I' for Inactive)
REMARK                            x       y       z     vdW  Elec       q    Type
REMARK                         _______ _______ _______ _____ _____    ______ ____
ROOT
ATOM      1  O   UNL     1      -4.459  12.454  20.658  0.00  0.00    +0.000 OA
ATOM      2  C   UNL     1      -3.371  12.454  20.088  0.00  0.00    +0.000 A 
ATOM      3  C   UNL     1      -3.376  11.919  18.703  0.00  0.00    +0.000 A 
ATOM      4  C   UNL     1      -4.607  11.697  18.059  0.00  0.00    +0.000 A 
ATOM      5  C   UNL     1      -4.653  11.173  16.764  0.00  0.00    +0.000 A 
ATOM      6  C   UNL     1      -3.468  10.904  16.093  0.00  0.00    +0.000 A 
ATOM      7 CL   UNL     1      -3.506  10.263  14.498  0.00  0.00    +0.000 Cl
ATOM      8  C   UNL     1      -2.244  11.114  16.723  0.00  0.00    +0.000 A 
ATOM      9  C   UNL     1      -2.200  11.585  18.043  0.00  0.00    +0.000 A 
ATOM     10  S   UNL     1      -0.651  11.569  18.867  0.00  0.00    +0.000 S 
ATOM     11  C   UNL     1      -0.872  12.803  20.148  0.00  0.00    +0.000 A 
ATOM     12  C   UNL     1       0.267  13.429  20.708  0.00  0.00    +0.000 A 
ATOM     13  N   UNL     1       1.518  13.440  20.118  0.00  0.00    +0.000 N 
ATOM     14  C   UNL     1       1.729  13.536  18.666  0.00  0.00    +0.000 C 
ATOM     15  C   UNL     1       2.639  14.722  18.296  0.00  0.00    +0.000 C 
ATOM     16  N   UNL     1       3.921  14.718  19.015  0.00  0.00    +0.000 NA
ATOM     17  C   UNL     1       3.648  14.706  20.466  0.00  0.00    +0.000 C 
ATOM     18  C   UNL     1       2.738  13.544  20.934  0.00  0.00    +0.000 C 
ATOM     19  N   UNL     1       0.168  14.063  21.898  0.00  0.00    +0.000 NA
ATOM     20  C   UNL     1      -1.004  14.173  22.537  0.00  0.00    +0.000 A 
ATOM     21  C   UNL     1      -0.988  14.773  23.790  0.00  0.00    +0.000 A 
ATOM     22  C   UNL     1      -2.146  14.969  24.542  0.00  0.00    +0.000 A 
ATOM     23  C   UNL     1      -3.362  14.579  24.019  0.00  0.00    +0.000 A 
ATOM     24  C   UNL     1      -3.398  13.964  22.767  0.00  0.00    +0.000 A 
ATOM     25  C   UNL     1      -2.221  13.710  21.999  0.00  0.00    +0.000 A 
ATOM     26  C   UNL     1      -2.132  13.004  20.753  0.00  0.00    +0.000 A 
ATOM     27  H   UNL     1       4.435  15.565  18.778  0.00  0.00    +0.000 HD
ENDROOT
TORSDOF 0
ENDMDL
MODEL 5
REMARK VINA RESULT:      -6.6      6.722      9.843
REMARK  Name = 
REMARK  0 active torsions:
REMARK  status: ('A' for Active; 'I' for Inactive)
REMARK                            x       y       z     vdW  Elec       q    Type
REMARK                         _______ _______ _______ _____ _____    ______ ____
ROOT
ATOM      1  O   UNL     1      -5.662  14.505  22.156  0.00  0.00    +0.000 OA
ATOM      2  C   UNL     1      -4.503  14.118  22.025  0.00  0.00    +0.000 A 
ATOM      3  C   UNL     1      -3.570  14.524  23.107  0.00  0.00    +0.000 A 
ATOM      4  C   UNL     1      -4.092  15.078  24.291  0.00  0.00    +0.000 A 
ATOM      5  C   UNL     1      -3.244  15.493  25.321  0.00  0.00    +0.000 A 
ATOM      6  C   UNL     1      -1.872  15.323  25.188  0.00  0.00    +0.000 A 
ATOM      7 CL   UNL     1      -0.815  15.824  26.448  0.00  0.00    +0.000 Cl
ATOM      8  C   UNL     1      -1.344  14.781  24.019  0.00  0.00    +0.000 A 
ATOM      9  C   UNL     1      -2.193  14.419  22.962  0.00  0.00    +0.000 A 
ATOM     10  S   UNL     1      -1.454  14.003  21.426  0.00  0.00    +0.000 S 
ATOM     11  C   UNL     1      -2.715  13.000  20.640  0.00  0.00    +0.000 A 
ATOM     12  C   UNL     1      -2.338  12.088  19.627  0.00  0.00    +0.000 A 
ATOM     13  N   UNL     1      -1.047  11.637  19.425  0.00  0.00    +0.000 N 
ATOM     14  C   UNL     1      -0.099  11.373  20.517  0.00  0.00    +0.000 C 
ATOM     15  C   UNL     1       0.452   9.936  20.465  0.00  0.00    +0.000 C 
ATOM     16  N   UNL     1       1.039   9.586  19.164  0.00  0.00    +0.000 NA
ATOM     17  C   UNL     1       0.019   9.789  18.116  0.00  0.00    +0.000 C 
ATOM     18  C   UNL     1      -0.594  11.210  18.091  0.00  0.00    +0.000 C 
ATOM     19  N   UNL     1      -3.273  11.606  18.776  0.00  0.00    +0.000 NA
ATOM     20  C   UNL     1      -4.568  11.920  18.908  0.00  0.00    +0.000 A 
ATOM     21  C   UNL     1      -5.439  11.440  17.938  0.00  0.00    +0.000 A 
ATOM     22  C   UNL     1      -6.812  11.677  17.980  0.00  0.00    +0.000 A 
ATOM     23  C   UNL     1      -7.340  12.393  19.035  0.00  0.00    +0.000 A 
ATOM     24  C   UNL     1      -6.481  12.894  20.013  0.00  0.00    +0.000 A 
ATOM     25  C   UNL     1      -5.066  12.705  19.967  0.00  0.00    +0.000 A 
ATOM     26  C   UNL     1      -4.086  13.254  20.860  0.00  0.00    +0.000 A 
ATOM     27  H   UNL     1       1.312   8.604  19.179  0.00  0.00    +0.000 HD
ENDROOT
TORSDOF 0
ENDMDL
MODEL 6
REMARK VINA RESULT:      -6.5      6.860     10.680
REMARK  Name = 
REMARK  0 active torsions:
REMARK  status: ('A' for Active; 'I' for Inactive)
REMARK                            x       y       z     vdW  Elec       q    Type
REMARK                         _______ _______ _______ _____ _____    ______ ____
ROOT
ATOM      1  O   UNL     1      -0.082  12.582  22.668  0.00  0.00    +0.000 OA
ATOM      2  C   UNL     1      -0.814  12.295  21.724  0.00  0.00    +0.000 A 
ATOM      3  C   UNL     1      -0.246  11.332  20.747  0.00  0.00    +0.000 A 
ATOM      4  C   UNL     1       0.933  10.637  21.075  0.00  0.00    +0.000 A 
ATOM      5  C   UNL     1       1.510   9.741  20.172  0.00  0.00    +0.000 A 
ATOM      6  C   UNL     1       0.892   9.507  18.951  0.00  0.00    +0.000 A 
ATOM      7 CL   UNL     1       1.587   8.403  17.830  0.00  0.00    +0.000 Cl
ATOM      8  C   UNL     1      -0.272  10.192  18.614  0.00  0.00    +0.000 A 
ATOM      9  C   UNL     1      -0.819  11.135  19.497  0.00  0.00    +0.000 A 
ATOM     10  S   UNL     1      -2.118  12.155  18.904  0.00  0.00    +0.000 S 
ATOM     11  C   UNL     1      -2.939  12.666  20.414  0.00  0.00    +0.000 A 
ATOM     12  C   UNL     1      -4.289  13.085  20.357  0.00  0.00    +0.000 A 
ATOM     13  N   UNL     1      -5.147  12.806  19.310  0.00  0.00    +0.000 N 
ATOM     14  C   UNL     1      -5.131  11.540  18.562  0.00  0.00    +0.000 C 
ATOM     15  C   UNL     1      -6.509  10.852  18.567  0.00  0.00    +0.000 C 
ATOM     16  N   UNL     1      -7.595  11.725  18.100  0.00  0.00    +0.000 NA
ATOM     17  C   UNL     1      -7.619  12.940  18.939  0.00  0.00    +0.000 C 
ATOM     18  C   UNL     1      -6.272  13.702  18.994  0.00  0.00    +0.000 C 
ATOM     19  N   UNL     1      -4.809  13.812  21.372  0.00  0.00    +0.000 NA
ATOM     20  C   UNL     1      -4.095  14.094  22.469  0.00  0.00    +0.000 A 
ATOM     21  C   UNL     1      -4.690  14.915  23.419  0.00  0.00    +0.000 A 
ATOM     22  C   UNL     1      -4.059  15.258  24.614  0.00  0.00    +0.000 A 
ATOM     23  C   UNL     1      -2.806  14.748  24.884  0.00  0.00    +0.000 A 
ATOM     24  C   UNL     1      -2.185  13.932  23.938  0.00  0.00    +0.000 A 
ATOM     25  C   UNL     1      -2.792  13.605  22.686  0.00  0.00    +0.000 A 
ATOM     26  C   UNL     1      -2.210  12.860  21.607  0.00  0.00    +0.000 A 
ATOM     27  H   UNL     1      -8.482  11.232  18.202  0.00  0.00    +0.000 HD
ENDROOT
TORSDOF 0
ENDMDL
MODEL 7
REMARK VINA RESULT:      -6.4      7.270     10.549
REMARK  Name = 
REMARK  0 active torsions:
REMARK  status: ('A' for Active; 'I' for Inactive)
REMARK                            x       y       z     vdW  Elec       q    Type
REMARK                         _______ _______ _______ _____ _____    ______ ____
ROOT
ATOM      1  O   UNL     1      -0.087  12.669  21.929  0.00  0.00    +0.000 OA
ATOM      2  C   UNL     1      -1.241  13.059  21.762  0.00  0.00    +0.000 A 
ATOM      3  C   UNL     1      -1.690  14.131  22.686  0.00  0.00    +0.000 A 
ATOM      4  C   UNL     1      -0.739  14.789  23.488  0.00  0.00    +0.000 A 
ATOM      5  C   UNL     1      -1.128  15.786  24.386  0.00  0.00    +0.000 A 
ATOM      6  C   UNL     1      -2.464  16.156  24.461  0.00  0.00    +0.000 A 
ATOM      7 CL   UNL     1      -2.958  17.385  25.557  0.00  0.00    +0.000 Cl
ATOM      8  C   UNL     1      -3.414  15.508  23.676  0.00  0.00    +0.000 A 
ATOM      9  C   UNL     1      -3.031  14.467  22.817  0.00  0.00    +0.000 A 
ATOM     10  S   UNL     1      -4.301  13.516  22.068  0.00  0.00    +0.000 S 
ATOM     11  C   UNL     1      -3.483  12.830  20.628  0.00  0.00    +0.000 A 
ATOM     12  C   UNL     1      -4.264  12.414  19.524  0.00  0.00    +0.000 A 
ATOM     13  N   UNL     1      -5.571  12.807  19.301  0.00  0.00    +0.000 N 
ATOM     14  C   UNL     1      -6.078  14.151  19.615  0.00  0.00    +0.000 C 
ATOM     15  C   UNL     1      -6.714  14.827  18.386  0.00  0.00    +0.000 C 
ATOM     16  N   UNL     1      -7.753  14.008  17.746  0.00  0.00    +0.000 NA
ATOM     17  C   UNL     1      -7.167  12.704  17.376  0.00  0.00    +0.000 C 
ATOM     18  C   UNL     1      -6.503  11.948  18.553  0.00  0.00    +0.000 C 
ATOM     19  N   UNL     1      -3.735  11.572  18.607  0.00  0.00    +0.000 NA
ATOM     20  C   UNL     1      -2.459  11.169  18.680  0.00  0.00    +0.000 A 
ATOM     21  C   UNL     1      -2.033  10.242  17.738  0.00  0.00    +0.000 A 
ATOM     22  C   UNL     1      -0.723   9.766  17.693  0.00  0.00    +0.000 A 
ATOM     23  C   UNL     1       0.199  10.248  18.600  0.00  0.00    +0.000 A 
ATOM     24  C   UNL     1      -0.212  11.171  19.563  0.00  0.00    +0.000 A 
ATOM     25  C   UNL     1      -1.559  11.637  19.658  0.00  0.00    +0.000 A 
ATOM     26  C   UNL     1      -2.110  12.504  20.659  0.00  0.00    +0.000 A 
ATOM     27  H   UNL     1      -8.073  14.482  16.902  0.00  0.00    +0.000 HD
ENDROOT
TORSDOF 0
ENDMDL
MODEL 8
REMARK VINA RESULT:      -6.4      8.473     10.050
REMARK  Name = 
REMARK  0 active torsions:
REMARK  status: ('A' for Active; 'I' for Inactive)
REMARK                            x       y       z     vdW  Elec       q    Type
REMARK                         _______ _______ _______ _____ _____    ______ ____
ROOT
ATOM      1  O   UNL     1      -5.120  12.340  20.383  0.00  0.00    +0.000 OA
ATOM      2  C   UNL     1      -3.970  12.496  19.979  0.00  0.00    +0.000 A 
ATOM      3  C   UNL     1      -3.681  11.920  18.642  0.00  0.00    +0.000 A 
ATOM      4  C   UNL     1      -4.749  11.479  17.839  0.00  0.00    +0.000 A 
ATOM      5  C   UNL     1      -4.515  10.910  16.585  0.00  0.00    +0.000 A 
ATOM      6  C   UNL     1      -3.213  10.812  16.111  0.00  0.00    +0.000 A 
ATOM      7 CL   UNL     1      -2.908  10.118  14.567  0.00  0.00    +0.000 Cl
ATOM      8  C   UNL     1      -2.148  11.239  16.898  0.00  0.00    +0.000 A 
ATOM      9  C   UNL     1      -2.380  11.757  18.181  0.00  0.00    +0.000 A 
ATOM     10  S   UNL     1      -0.992  12.020  19.221  0.00  0.00    +0.000 S 
ATOM     11  C   UNL     1      -1.595  13.246  20.382  0.00  0.00    +0.000 A 
ATOM     12  C   UNL     1      -0.665  14.067  21.063  0.00  0.00    +0.000 A 
ATOM     13  N   UNL     1       0.644  14.260  20.663  0.00  0.00    +0.000 N 
ATOM     14  C   UNL     1       1.059  14.338  19.254  0.00  0.00    +0.000 C 
ATOM     15  C   UNL     1       1.820  15.642  18.951  0.00  0.00    +0.000 C 
ATOM     16  N   UNL     1       2.961  15.869  19.849  0.00  0.00    +0.000 NA
ATOM     17  C   UNL     1       2.475  15.865  21.242  0.00  0.00    +0.000 C 
ATOM     18  C   UNL     1       1.694  14.588  21.640  0.00  0.00    +0.000 C 
ATOM     19  N   UNL     1      -1.042  14.719  22.187  0.00  0.00    +0.000 NA
ATOM     20  C   UNL     1      -2.301  14.660  22.641  0.00  0.00    +0.000 A 
ATOM     21  C   UNL     1      -2.570  15.298  23.845  0.00  0.00    +0.000 A 
ATOM     22  C   UNL     1      -3.846  15.330  24.408  0.00  0.00    +0.000 A 
ATOM     23  C   UNL     1      -4.892  14.731  23.737  0.00  0.00    +0.000 A 
ATOM     24  C   UNL     1      -4.641  14.075  22.532  0.00  0.00    +0.000 A 
ATOM     25  C   UNL     1      -3.335  13.988  21.960  0.00  0.00    +0.000 A 
ATOM     26  C   UNL     1      -2.948  13.262  20.784  0.00  0.00    +0.000 A 
ATOM     27  H   UNL     1       3.369  16.780  19.640  0.00  0.00    +0.000 HD
ENDROOT
TORSDOF 0
ENDMDL
MODEL 9
REMARK VINA RESULT:      -6.3      8.421     11.008
REMARK  Name = 
REMARK  0 active torsions:
REMARK  status: ('A' for Active; 'I' for Inactive)
REMARK                            x       y       z     vdW  Elec       q    Type
REMARK                         _______ _______ _______ _____ _____    ______ ____
ROOT
ATOM      1  O   UNL     1      -1.280  11.583  18.022  0.00  0.00    +0.000 OA
ATOM      2  C   UNL     1      -1.358  12.200  19.082  0.00  0.00    +0.000 A 
ATOM      3  C   UNL     1      -0.075  12.734  19.604  0.00  0.00    +0.000 A 
ATOM      4  C   UNL     1       1.060  12.730  18.772  0.00  0.00    +0.000 A 
ATOM      5  C   UNL     1       2.290  13.203  19.236  0.00  0.00    +0.000 A 
ATOM      6  C   UNL     1       2.384  13.716  20.523  0.00  0.00    +0.000 A 
ATOM      7 CL   UNL     1       3.889  14.305  21.108  0.00  0.00    +0.000 Cl
ATOM      8  C   UNL     1       1.270  13.719  21.358  0.00  0.00    +0.000 A 
ATOM      9  C   UNL     1       0.050  13.191  20.910  0.00  0.00    +0.000 A 
ATOM     10  S   UNL     1      -1.231  12.975  22.091  0.00  0.00    +0.000 S 
ATOM     11  C   UNL     1      -2.707  12.961  21.074  0.00  0.00    +0.000 A 
ATOM     12  C   UNL     1      -3.952  13.290  21.661  0.00  0.00    +0.000 A 
ATOM     13  N   UNL     1      -4.094  13.964  22.859  0.00  0.00    +0.000 N 
ATOM     14  C   UNL     1      -3.194  15.041  23.296  0.00  0.00    +0.000 C 
ATOM     15  C   UNL     1      -3.962  16.337  23.619  0.00  0.00    +0.000 C 
ATOM     16  N   UNL     1      -5.054  16.139  24.583  0.00  0.00    +0.000 NA
ATOM     17  C   UNL     1      -5.971  15.110  24.055  0.00  0.00    +0.000 C 
ATOM     18  C   UNL     1      -5.285  13.768  23.702  0.00  0.00    +0.000 C 
ATOM     19  N   UNL     1      -5.101  12.934  21.042  0.00  0.00    +0.000 NA
ATOM     20  C   UNL     1      -5.093  12.331  19.845  0.00  0.00    +0.000 A 
ATOM     21  C   UNL     1      -6.320  11.933  19.329  0.00  0.00    +0.000 A 
ATOM     22  C   UNL     1      -6.446  11.320  18.083  0.00  0.00    +0.000 A 
ATOM     23  C   UNL     1      -5.318  11.120  17.315  0.00  0.00    +0.000 A 
ATOM     24  C   UNL     1      -4.074  11.501  17.820  0.00  0.00    +0.000 A 
ATOM     25  C   UNL     1      -3.915  12.087  19.113  0.00  0.00    +0.000 A 
ATOM     26  C   UNL     1      -2.684  12.427  19.767  0.00  0.00    +0.000 A 
ATOM     27  H   UNL     1      -5.562  17.016  24.691  0.00  0.00    +0.000 HD
ENDROOT
TORSDOF 0
ENDMDL
