MODEL 1
REMARK VINA RESULT:      -7.3      0.000      0.000
REMARK  Name = 
REMARK  6 active torsions:
REMARK  status: ('A' for Active; 'I' for Inactive)
REMARK    1  A    between atoms: C_1  and  O_2
REMARK    2  A    between atoms: O_2  and  C_3
REMARK    3  A    between atoms: C_5  and  C_6
REMARK    4  A    between atoms: N_11  and  C_12
REMARK    5  A    between atoms: C_12  and  C_13
REMARK    6  A    between atoms: C_20  and  O_21
REMARK                            x       y       z     vdW  Elec       q    Type
REMARK                         _______ _______ _______ _____ _____    ______ ____
ROOT
ATOM      1  C   UNL     1       2.960   7.408  18.032  0.00  0.00    +0.000 C 
ATOM      2  C   UNL     1       2.179   8.162  18.820  0.00  0.00    +0.000 C 
ATOM      3  S   UNL     1       1.632   7.777  20.406  0.00  0.00    +0.000 S 
ATOM      4  C   UNL     1       0.715   9.262  20.543  0.00  0.00    +0.000 C 
ATOM      5  O   UNL     1       0.070   9.544  21.542  0.00  0.00    +0.000 OA
ATOM      6  N   UNL     1       0.823   9.998  19.396  0.00  0.00    +0.000 N 
ATOM      7  C   UNL     1       1.630   9.486  18.407  0.00  0.00    +0.000 C 
ATOM      8  O   UNL     1       1.884  10.034  17.343  0.00  0.00    +0.000 OA
ENDROOT
BRANCH   1  11
ATOM      9  C   UNL     1       5.336   4.582  18.885  0.00  0.00    +0.000 A 
ATOM     10  C   UNL     1       4.833   5.847  18.529  0.00  0.00    +0.000 A 
ATOM     11  C   UNL     1       3.457   6.071  18.382  0.00  0.00    +0.000 A 
ATOM     12  C   UNL     1       2.573   5.010  18.569  0.00  0.00    +0.000 A 
ATOM     13  C   UNL     1       3.057   3.749  18.929  0.00  0.00    +0.000 A 
ATOM     14  C   UNL     1       4.430   3.537  19.091  0.00  0.00    +0.000 A 
BRANCH   9  16
ATOM     15  C   UNL     1       7.466   4.750  17.806  0.00  0.00    +0.000 C 
ATOM     16  O   UNL     1       6.703   4.554  18.988  0.00  0.00    +0.000 OA
ENDBRANCH   9  16
BRANCH  14  17
ATOM     17  O   UNL     1       4.849   2.287  19.460  0.00  0.00    +0.000 OA
ATOM     18  H   UNL     1       4.438   2.046  20.305  0.00  0.00    +0.000 HD
ENDBRANCH  14  17
ENDBRANCH   1  11
BRANCH   6  19
ATOM     19  C   UNL     1      -0.010  11.171  19.183  0.00  0.00    +0.000 C 
BRANCH  19  20
ATOM     20  C   UNL     1      -1.206  11.052  18.235  0.00  0.00    +0.000 C 
ATOM     21  N   UNL     1      -1.534  12.108  17.443  0.00  0.00    +0.000 N 
ATOM     22  O   UNL     1      -1.874  10.020  18.170  0.00  0.00    +0.000 OA
ATOM     23  H   UNL     1      -0.849  12.799  17.171  0.00  0.00    +0.000 HD
ATOM     24  H   UNL     1      -2.276  11.919  16.775  0.00  0.00    +0.000 HD
ENDBRANCH  19  20
ENDBRANCH   6  19
TORSDOF 5
ENDMDL
MODEL 2
REMARK VINA RESULT:      -7.2      1.051      2.231
REMARK  Name = 
REMARK  6 active torsions:
REMARK  status: ('A' for Active; 'I' for Inactive)
REMARK    1  A    between atoms: C_1  and  O_2
REMARK    2  A    between atoms: O_2  and  C_3
REMARK    3  A    between atoms: C_5  and  C_6
REMARK    4  A    between atoms: N_11  and  C_12
REMARK    5  A    between atoms: C_12  and  C_13
REMARK    6  A    between atoms: C_20  and  O_21
REMARK                            x       y       z     vdW  Elec       q    Type
REMARK                         _______ _______ _______ _____ _____    ______ ____
ROOT
ATOM      1  C   UNL     1       2.888   7.346  17.945  0.00  0.00    +0.000 C 
ATOM      2  C   UNL     1       2.172   8.135  18.760  0.00  0.00    +0.000 C 
ATOM      3  S   UNL     1       1.601   7.747  20.337  0.00  0.00    +0.000 S 
ATOM      4  C   UNL     1       0.806   9.295  20.524  0.00  0.00    +0.000 C 
ATOM      5  O   UNL     1       0.189   9.597  21.534  0.00  0.00    +0.000 OA
ATOM      6  N   UNL     1       0.970  10.056  19.400  0.00  0.00    +0.000 N 
ATOM      7  C   UNL     1       1.731   9.512  18.391  0.00  0.00    +0.000 C 
ATOM      8  O   UNL     1       2.025  10.070  17.344  0.00  0.00    +0.000 OA
ENDROOT
BRANCH   1  11
ATOM      9  C   UNL     1       2.772   3.567  18.192  0.00  0.00    +0.000 A 
ATOM     10  C   UNL     1       2.417   4.903  17.931  0.00  0.00    +0.000 A 
ATOM     11  C   UNL     1       3.277   5.963  18.251  0.00  0.00    +0.000 A 
ATOM     12  C   UNL     1       4.497   5.686  18.864  0.00  0.00    +0.000 A 
ATOM     13  C   UNL     1       4.867   4.364  19.124  0.00  0.00    +0.000 A 
ATOM     14  C   UNL     1       4.012   3.309  18.785  0.00  0.00    +0.000 A 
BRANCH   9  16
ATOM     15  C   UNL     1       0.803   2.324  18.745  0.00  0.00    +0.000 C 
ATOM     16  O   UNL     1       1.811   2.668  17.806  0.00  0.00    +0.000 OA
ENDBRANCH   9  16
BRANCH  14  17
ATOM     17  O   UNL     1       4.429   2.033  19.048  0.00  0.00    +0.000 OA
ATOM     18  H   UNL     1       4.981   2.032  19.846  0.00  0.00    +0.000 HD
ENDBRANCH  14  17
ENDBRANCH   1  11
BRANCH   6  19
ATOM     19  C   UNL     1       0.233  11.299  19.227  0.00  0.00    +0.000 C 
BRANCH  19  20
ATOM     20  C   UNL     1      -1.032  11.280  18.368  0.00  0.00    +0.000 C 
ATOM     21  N   UNL     1      -1.342  12.372  17.617  0.00  0.00    +0.000 N 
ATOM     22  O   UNL     1      -1.774  10.298  18.336  0.00  0.00    +0.000 OA
ATOM     23  H   UNL     1      -0.632  13.020  17.306  0.00  0.00    +0.000 HD
ATOM     24  H   UNL     1      -2.141  12.247  17.003  0.00  0.00    +0.000 HD
ENDBRANCH  19  20
ENDBRANCH   6  19
TORSDOF 5
ENDMDL
MODEL 3
REMARK VINA RESULT:      -7.0      1.533      2.558
REMARK  Name = 
REMARK  6 active torsions:
REMARK  status: ('A' for Active; 'I' for Inactive)
REMARK    1  A    between atoms: C_1  and  O_2
REMARK    2  A    between atoms: O_2  and  C_3
REMARK    3  A    between atoms: C_5  and  C_6
REMARK    4  A    between atoms: N_11  and  C_12
REMARK    5  A    between atoms: C_12  and  C_13
REMARK    6  A    between atoms: C_20  and  O_21
REMARK                            x       y       z     vdW  Elec       q    Type
REMARK                         _______ _______ _______ _____ _____    ______ ____
ROOT
ATOM      1  C   UNL     1       2.978   6.932  18.091  0.00  0.00    +0.000 C 
ATOM      2  C   UNL     1       2.260   7.753  18.874  0.00  0.00    +0.000 C 
ATOM      3  S   UNL     1       1.818   7.490  20.516  0.00  0.00    +0.000 S 
ATOM      4  C   UNL     1       0.931   8.996  20.608  0.00  0.00    +0.000 C 
ATOM      5  O   UNL     1       0.358   9.359  21.625  0.00  0.00    +0.000 OA
ATOM      6  N   UNL     1       0.970   9.648  19.407  0.00  0.00    +0.000 N 
ATOM      7  C   UNL     1       1.702   9.054  18.405  0.00  0.00    +0.000 C 
ATOM      8  O   UNL     1       1.890   9.521  17.291  0.00  0.00    +0.000 OA
ENDROOT
BRANCH   1  11
ATOM      9  C   UNL     1       3.115   3.208  18.774  0.00  0.00    +0.000 A 
ATOM     10  C   UNL     1       2.653   4.486  18.409  0.00  0.00    +0.000 A 
ATOM     11  C   UNL     1       3.480   5.614  18.502  0.00  0.00    +0.000 A 
ATOM     12  C   UNL     1       4.777   5.467  18.989  0.00  0.00    +0.000 A 
ATOM     13  C   UNL     1       5.252   4.204  19.350  0.00  0.00    +0.000 A 
ATOM     14  C   UNL     1       4.428   3.079  19.238  0.00  0.00    +0.000 A 
BRANCH   9  16
ATOM     15  C   UNL     1       0.807   2.574  18.799  0.00  0.00    +0.000 C 
ATOM     16  O   UNL     1       2.171   2.226  18.611  0.00  0.00    +0.000 OA
ENDBRANCH   9  16
BRANCH  14  17
ATOM     17  O   UNL     1       4.948   1.863  19.590  0.00  0.00    +0.000 OA
ATOM     18  H   UNL     1       4.885   1.752  20.552  0.00  0.00    +0.000 HD
ENDBRANCH  14  17
ENDBRANCH   1  11
BRANCH   6  19
ATOM     19  C   UNL     1       0.139  10.818  19.167  0.00  0.00    +0.000 C 
BRANCH  19  20
ATOM     20  C   UNL     1       0.805  12.196  19.170  0.00  0.00    +0.000 C 
ATOM     21  N   UNL     1       1.463  12.619  18.056  0.00  0.00    +0.000 N 
ATOM     22  O   UNL     1       0.754  12.932  20.156  0.00  0.00    +0.000 OA
ATOM     23  H   UNL     1       1.232  12.266  17.139  0.00  0.00    +0.000 HD
ATOM     24  H   UNL     1       1.793  13.578  18.102  0.00  0.00    +0.000 HD
ENDBRANCH  19  20
ENDBRANCH   6  19
TORSDOF 5
ENDMDL
MODEL 4
REMARK VINA RESULT:      -7.0      1.100      1.289
REMARK  Name = 
REMARK  6 active torsions:
REMARK  status: ('A' for Active; 'I' for Inactive)
REMARK    1  A    between atoms: C_1  and  O_2
REMARK    2  A    between atoms: O_2  and  C_3
REMARK    3  A    between atoms: C_5  and  C_6
REMARK    4  A    between atoms: N_11  and  C_12
REMARK    5  A    between atoms: C_12  and  C_13
REMARK    6  A    between atoms: C_20  and  O_21
REMARK                            x       y       z     vdW  Elec       q    Type
REMARK                         _______ _______ _______ _____ _____    ______ ____
ROOT
ATOM      1  C   UNL     1       2.938   7.178  18.046  0.00  0.00    +0.000 C 
ATOM      2  C   UNL     1       2.198   7.944  18.862  0.00  0.00    +0.000 C 
ATOM      3  S   UNL     1       1.767   7.601  20.493  0.00  0.00    +0.000 S 
ATOM      4  C   UNL     1       0.834   9.074  20.646  0.00  0.00    +0.000 C 
ATOM      5  O   UNL     1       0.253   9.378  21.677  0.00  0.00    +0.000 OA
ATOM      6  N   UNL     1       0.851   9.775  19.473  0.00  0.00    +0.000 N 
ATOM      7  C   UNL     1       1.598   9.245  18.447  0.00  0.00    +0.000 C 
ATOM      8  O   UNL     1       1.769   9.763  17.352  0.00  0.00    +0.000 OA
ENDROOT
BRANCH   1  11
ATOM      9  C   UNL     1       5.415   4.435  18.882  0.00  0.00    +0.000 A 
ATOM     10  C   UNL     1       4.867   5.679  18.521  0.00  0.00    +0.000 A 
ATOM     11  C   UNL     1       3.482   5.861  18.402  0.00  0.00    +0.000 A 
ATOM     12  C   UNL     1       2.634   4.777  18.623  0.00  0.00    +0.000 A 
ATOM     13  C   UNL     1       3.162   3.536  18.988  0.00  0.00    +0.000 A 
ATOM     14  C   UNL     1       4.544   3.366  19.122  0.00  0.00    +0.000 A 
BRANCH   9  16
ATOM     15  C   UNL     1       7.515   4.635  17.751  0.00  0.00    +0.000 C 
ATOM     16  O   UNL     1       6.784   4.448  18.955  0.00  0.00    +0.000 OA
ENDBRANCH   9  16
BRANCH  14  17
ATOM     17  O   UNL     1       5.008   2.135  19.497  0.00  0.00    +0.000 OA
ATOM     18  H   UNL     1       4.909   2.032  20.457  0.00  0.00    +0.000 HD
ENDBRANCH  14  17
ENDBRANCH   1  11
BRANCH   6  19
ATOM     19  C   UNL     1      -0.016  10.928  19.280  0.00  0.00    +0.000 C 
BRANCH  19  20
ATOM     20  C   UNL     1       0.616  12.321  19.280  0.00  0.00    +0.000 C 
ATOM     21  N   UNL     1       1.105  12.829  18.116  0.00  0.00    +0.000 N 
ATOM     22  O   UNL     1       0.687  12.995  20.308  0.00  0.00    +0.000 OA
ATOM     23  H   UNL     1       0.756  12.525  17.218  0.00  0.00    +0.000 HD
ATOM     24  H   UNL     1       1.419  13.793  18.177  0.00  0.00    +0.000 HD
ENDBRANCH  19  20
ENDBRANCH   6  19
TORSDOF 5
ENDMDL
MODEL 5
REMARK VINA RESULT:      -7.0      4.194      6.114
REMARK  Name = 
REMARK  6 active torsions:
REMARK  status: ('A' for Active; 'I' for Inactive)
REMARK    1  A    between atoms: C_1  and  O_2
REMARK    2  A    between atoms: O_2  and  C_3
REMARK    3  A    between atoms: C_5  and  C_6
REMARK    4  A    between atoms: N_11  and  C_12
REMARK    5  A    between atoms: C_12  and  C_13
REMARK    6  A    between atoms: C_20  and  O_21
REMARK                            x       y       z     vdW  Elec       q    Type
REMARK                         _______ _______ _______ _____ _____    ______ ____
ROOT
ATOM      1  C   UNL     1       4.133   3.414  16.668  0.00  0.00    +0.000 C 
ATOM      2  C   UNL     1       3.443   4.035  17.637  0.00  0.00    +0.000 C 
ATOM      3  S   UNL     1       3.590   5.680  18.119  0.00  0.00    +0.000 S 
ATOM      4  C   UNL     1       2.389   5.507  19.380  0.00  0.00    +0.000 C 
ATOM      5  O   UNL     1       2.062   6.435  20.106  0.00  0.00    +0.000 OA
ATOM      6  N   UNL     1       1.922   4.224  19.423  0.00  0.00    +0.000 N 
ATOM      7  C   UNL     1       2.422   3.352  18.484  0.00  0.00    +0.000 C 
ATOM      8  O   UNL     1       2.078   2.187  18.342  0.00  0.00    +0.000 OA
ENDROOT
BRANCH   1  11
ATOM      9  C   UNL     1       7.077   5.595  15.704  0.00  0.00    +0.000 A 
ATOM     10  C   UNL     1       6.040   4.996  16.441  0.00  0.00    +0.000 A 
ATOM     11  C   UNL     1       5.193   4.039  15.866  0.00  0.00    +0.000 A 
ATOM     12  C   UNL     1       5.369   3.694  14.527  0.00  0.00    +0.000 A 
ATOM     13  C   UNL     1       6.398   4.276  13.783  0.00  0.00    +0.000 A 
ATOM     14  C   UNL     1       7.252   5.217  14.368  0.00  0.00    +0.000 A 
BRANCH   9  16
ATOM     15  C   UNL     1       7.287   6.917  17.688  0.00  0.00    +0.000 C 
ATOM     16  O   UNL     1       7.805   6.501  16.432  0.00  0.00    +0.000 OA
ENDBRANCH   9  16
BRANCH  14  17
ATOM     17  O   UNL     1       8.253   5.744  13.599  0.00  0.00    +0.000 OA
ATOM     18  H   UNL     1       9.093   5.316  13.826  0.00  0.00    +0.000 HD
ENDBRANCH  14  17
ENDBRANCH   1  11
BRANCH   6  19
ATOM     19  C   UNL     1       1.070   3.776  20.515  0.00  0.00    +0.000 C 
BRANCH  19  20
ATOM     20  C   UNL     1       1.677   2.868  21.585  0.00  0.00    +0.000 C 
ATOM     21  N   UNL     1       2.986   2.508  21.486  0.00  0.00    +0.000 N 
ATOM     22  O   UNL     1       1.011   2.460  22.537  0.00  0.00    +0.000 OA
ATOM     23  H   UNL     1       3.656   3.076  20.988  0.00  0.00    +0.000 HD
ATOM     24  H   UNL     1       3.340   1.985  22.283  0.00  0.00    +0.000 HD
ENDBRANCH  19  20
ENDBRANCH   6  19
TORSDOF 5
ENDMDL
MODEL 6
REMARK VINA RESULT:      -6.8      3.151      7.479
REMARK  Name = 
REMARK  6 active torsions:
REMARK  status: ('A' for Active; 'I' for Inactive)
REMARK    1  A    between atoms: C_1  and  O_2
REMARK    2  A    between atoms: O_2  and  C_3
REMARK    3  A    between atoms: C_5  and  C_6
REMARK    4  A    between atoms: N_11  and  C_12
REMARK    5  A    between atoms: C_12  and  C_13
REMARK    6  A    between atoms: C_20  and  O_21
REMARK                            x       y       z     vdW  Elec       q    Type
REMARK                         _______ _______ _______ _____ _____    ______ ____
ROOT
ATOM      1  C   UNL     1       3.235   7.754  17.761  0.00  0.00    +0.000 C 
ATOM      2  C   UNL     1       3.544   6.465  17.553  0.00  0.00    +0.000 C 
ATOM      3  S   UNL     1       2.867   5.098  18.348  0.00  0.00    +0.000 S 
ATOM      4  C   UNL     1       3.883   3.976  17.470  0.00  0.00    +0.000 C 
ATOM      5  O   UNL     1       3.829   2.767  17.644  0.00  0.00    +0.000 OA
ATOM      6  N   UNL     1       4.716   4.649  16.621  0.00  0.00    +0.000 N 
ATOM      7  C   UNL     1       4.580   6.017  16.577  0.00  0.00    +0.000 C 
ATOM      8  O   UNL     1       5.201   6.769  15.839  0.00  0.00    +0.000 OA
ENDROOT
BRANCH   1  11
ATOM      9  C   UNL     1       0.482   9.775  19.402  0.00  0.00    +0.000 A 
ATOM     10  C   UNL     1       1.429   9.311  18.470  0.00  0.00    +0.000 A 
ATOM     11  C   UNL     1       2.273   8.231  18.763  0.00  0.00    +0.000 A 
ATOM     12  C   UNL     1       2.186   7.621  20.013  0.00  0.00    +0.000 A 
ATOM     13  C   UNL     1       1.247   8.066  20.947  0.00  0.00    +0.000 A 
ATOM     14  C   UNL     1       0.396   9.134  20.642  0.00  0.00    +0.000 A 
BRANCH   9  16
ATOM     15  C   UNL     1      -1.435  10.551  18.197  0.00  0.00    +0.000 C 
ATOM     16  O   UNL     1      -0.257  10.833  18.940  0.00  0.00    +0.000 OA
ENDBRANCH   9  16
BRANCH  14  17
ATOM     17  O   UNL     1      -0.516   9.519  21.587  0.00  0.00    +0.000 OA
ATOM     18  H   UNL     1      -0.907  10.369  21.329  0.00  0.00    +0.000 HD
ENDBRANCH  14  17
ENDBRANCH   1  11
BRANCH   6  19
ATOM     19  C   UNL     1       5.797   3.958  15.933  0.00  0.00    +0.000 C 
BRANCH  19  20
ATOM     20  C   UNL     1       7.205   4.550  16.013  0.00  0.00    +0.000 C 
ATOM     21  N   UNL     1       7.680   5.278  14.966  0.00  0.00    +0.000 N 
ATOM     22  O   UNL     1       7.916   4.388  17.005  0.00  0.00    +0.000 OA
ATOM     23  H   UNL     1       7.060   5.753  14.326  0.00  0.00    +0.000 HD
ATOM     24  H   UNL     1       8.581   5.716  15.133  0.00  0.00    +0.000 HD
ENDBRANCH  19  20
ENDBRANCH   6  19
TORSDOF 5
ENDMDL
MODEL 7
REMARK VINA RESULT:      -6.8      4.286      6.439
REMARK  Name = 
REMARK  6 active torsions:
REMARK  status: ('A' for Active; 'I' for Inactive)
REMARK    1  A    between atoms: C_1  and  O_2
REMARK    2  A    between atoms: O_2  and  C_3
REMARK    3  A    between atoms: C_5  and  C_6
REMARK    4  A    between atoms: N_11  and  C_12
REMARK    5  A    between atoms: C_12  and  C_13
REMARK    6  A    between atoms: C_20  and  O_21
REMARK                            x       y       z     vdW  Elec       q    Type
REMARK                         _______ _______ _______ _____ _____    ______ ____
ROOT
ATOM      1  C   UNL     1       4.229   3.351  16.670  0.00  0.00    +0.000 C 
ATOM      2  C   UNL     1       3.532   3.989  17.623  0.00  0.00    +0.000 C 
ATOM      3  S   UNL     1       3.697   5.636  18.096  0.00  0.00    +0.000 S 
ATOM      4  C   UNL     1       2.471   5.491  19.337  0.00  0.00    +0.000 C 
ATOM      5  O   UNL     1       2.147   6.429  20.051  0.00  0.00    +0.000 OA
ATOM      6  N   UNL     1       1.983   4.215  19.381  0.00  0.00    +0.000 N 
ATOM      7  C   UNL     1       2.486   3.329  18.457  0.00  0.00    +0.000 C 
ATOM      8  O   UNL     1       2.127   2.169  18.317  0.00  0.00    +0.000 OA
ENDROOT
BRANCH   1  11
ATOM      9  C   UNL     1       6.457   4.231  13.735  0.00  0.00    +0.000 A 
ATOM     10  C   UNL     1       5.443   3.652  14.519  0.00  0.00    +0.000 A 
ATOM     11  C   UNL     1       5.312   3.953  15.882  0.00  0.00    +0.000 A 
ATOM     12  C   UNL     1       6.223   4.827  16.475  0.00  0.00    +0.000 A 
ATOM     13  C   UNL     1       7.232   5.415  15.708  0.00  0.00    +0.000 A 
ATOM     14  C   UNL     1       7.346   5.124  14.344  0.00  0.00    +0.000 A 
BRANCH   9  16
ATOM     15  C   UNL     1       5.257   3.165  11.960  0.00  0.00    +0.000 C 
ATOM     16  O   UNL     1       6.426   3.825  12.426  0.00  0.00    +0.000 OA
ENDBRANCH   9  16
BRANCH  14  17
ATOM     17  O   UNL     1       8.342   5.739  13.636  0.00  0.00    +0.000 OA
ATOM     18  H   UNL     1       8.185   6.696  13.625  0.00  0.00    +0.000 HD
ENDBRANCH  14  17
ENDBRANCH   1  11
BRANCH   6  19
ATOM     19  C   UNL     1       1.106   3.789  20.461  0.00  0.00    +0.000 C 
BRANCH  19  20
ATOM     20  C   UNL     1       1.684   2.887  21.554  0.00  0.00    +0.000 C 
ATOM     21  N   UNL     1       2.978   2.476  21.461  0.00  0.00    +0.000 N 
ATOM     22  O   UNL     1       1.006   2.529  22.517  0.00  0.00    +0.000 OA
ATOM     23  H   UNL     1       3.666   3.006  20.946  0.00  0.00    +0.000 HD
ATOM     24  H   UNL     1       3.315   1.963  22.270  0.00  0.00    +0.000 HD
ENDBRANCH  19  20
ENDBRANCH   6  19
TORSDOF 5
ENDMDL
MODEL 8
REMARK VINA RESULT:      -6.8      2.545      3.741
REMARK  Name = 
REMARK  6 active torsions:
REMARK  status: ('A' for Active; 'I' for Inactive)
REMARK    1  A    between atoms: C_1  and  O_2
REMARK    2  A    between atoms: O_2  and  C_3
REMARK    3  A    between atoms: C_5  and  C_6
REMARK    4  A    between atoms: N_11  and  C_12
REMARK    5  A    between atoms: C_12  and  C_13
REMARK    6  A    between atoms: C_20  and  O_21
REMARK                            x       y       z     vdW  Elec       q    Type
REMARK                         _______ _______ _______ _____ _____    ______ ____
ROOT
ATOM      1  C   UNL     1       3.795   5.540  18.704  0.00  0.00    +0.000 C 
ATOM      2  C   UNL     1       2.973   6.580  18.908  0.00  0.00    +0.000 C 
ATOM      3  S   UNL     1       2.819   7.984  17.924  0.00  0.00    +0.000 S 
ATOM      4  C   UNL     1       1.617   8.696  18.980  0.00  0.00    +0.000 C 
ATOM      5  O   UNL     1       1.110   9.785  18.755  0.00  0.00    +0.000 OA
ATOM      6  N   UNL     1       1.375   7.879  20.048  0.00  0.00    +0.000 N 
ATOM      7  C   UNL     1       2.052   6.682  20.077  0.00  0.00    +0.000 C 
ATOM      8  O   UNL     1       1.918   5.811  20.925  0.00  0.00    +0.000 OA
ENDROOT
BRANCH   1  11
ATOM      9  C   UNL     1       6.820   6.220  16.526  0.00  0.00    +0.000 A 
ATOM     10  C   UNL     1       5.867   6.305  17.557  0.00  0.00    +0.000 A 
ATOM     11  C   UNL     1       4.762   5.443  17.603  0.00  0.00    +0.000 A 
ATOM     12  C   UNL     1       4.595   4.500  16.590  0.00  0.00    +0.000 A 
ATOM     13  C   UNL     1       5.537   4.400  15.563  0.00  0.00    +0.000 A 
ATOM     14  C   UNL     1       6.646   5.251  15.533  0.00  0.00    +0.000 A 
BRANCH   9  16
ATOM     15  C   UNL     1       7.815   8.002  17.778  0.00  0.00    +0.000 C 
ATOM     16  O   UNL     1       7.832   7.137  16.650  0.00  0.00    +0.000 OA
ENDBRANCH   9  16
BRANCH  14  17
ATOM     17  O   UNL     1       7.546   5.100  14.514  0.00  0.00    +0.000 OA
ATOM     18  H   UNL     1       8.085   4.309  14.674  0.00  0.00    +0.000 HD
ENDBRANCH  14  17
ENDBRANCH   1  11
BRANCH   6  19
ATOM     19  C   UNL     1       0.572   8.339  21.171  0.00  0.00    +0.000 C 
BRANCH  19  20
ATOM     20  C   UNL     1       1.049   9.564  21.953  0.00  0.00    +0.000 C 
ATOM     21  N   UNL     1       0.513  10.783  21.670  0.00  0.00    +0.000 N 
ATOM     22  O   UNL     1       1.902   9.472  22.836  0.00  0.00    +0.000 OA
ATOM     23  H   UNL     1      -0.407  10.876  21.263  0.00  0.00    +0.000 HD
ATOM     24  H   UNL     1       0.809  11.528  22.295  0.00  0.00    +0.000 HD
ENDBRANCH  19  20
ENDBRANCH   6  19
TORSDOF 5
ENDMDL
MODEL 9
REMARK VINA RESULT:      -6.8      3.612      7.596
REMARK  Name = 
REMARK  6 active torsions:
REMARK  status: ('A' for Active; 'I' for Inactive)
REMARK    1  A    between atoms: C_1  and  O_2
REMARK    2  A    between atoms: O_2  and  C_3
REMARK    3  A    between atoms: C_5  and  C_6
REMARK    4  A    between atoms: N_11  and  C_12
REMARK    5  A    between atoms: C_12  and  C_13
REMARK    6  A    between atoms: C_20  and  O_21
REMARK                            x       y       z     vdW  Elec       q    Type
REMARK                         _______ _______ _______ _____ _____    ______ ____
ROOT
ATOM      1  C   UNL     1       2.806   6.267  18.023  0.00  0.00    +0.000 C 
ATOM      2  C   UNL     1       4.073   6.150  17.596  0.00  0.00    +0.000 C 
ATOM      3  S   UNL     1       5.287   7.370  17.617  0.00  0.00    +0.000 S 
ATOM      4  C   UNL     1       6.474   6.322  16.871  0.00  0.00    +0.000 C 
ATOM      5  O   UNL     1       7.613   6.691  16.625  0.00  0.00    +0.000 OA
ATOM      6  N   UNL     1       5.930   5.096  16.607  0.00  0.00    +0.000 N 
ATOM      7  C   UNL     1       4.626   4.901  16.998  0.00  0.00    +0.000 C 
ATOM      8  O   UNL     1       4.001   3.855  16.890  0.00  0.00    +0.000 OA
ENDROOT
BRANCH   1  11
ATOM      9  C   UNL     1       1.337   8.780  20.448  0.00  0.00    +0.000 A 
ATOM     10  C   UNL     1       1.886   7.602  19.910  0.00  0.00    +0.000 A 
ATOM     11  C   UNL     1       2.213   7.502  18.551  0.00  0.00    +0.000 A 
ATOM     12  C   UNL     1       1.965   8.588  17.712  0.00  0.00    +0.000 A 
ATOM     13  C   UNL     1       1.426   9.767  18.232  0.00  0.00    +0.000 A 
ATOM     14  C   UNL     1       1.119   9.866  19.593  0.00  0.00    +0.000 A 
BRANCH   9  16
ATOM     15  C   UNL     1      -0.263   8.757  22.228  0.00  0.00    +0.000 C 
ATOM     16  O   UNL     1       1.088   8.695  21.794  0.00  0.00    +0.000 OA
ENDBRANCH   9  16
BRANCH  14  17
ATOM     17  O   UNL     1       0.608  11.049  20.053  0.00  0.00    +0.000 OA
ATOM     18  H   UNL     1       0.550  11.020  21.022  0.00  0.00    +0.000 HD
ENDBRANCH  14  17
ENDBRANCH   1  11
BRANCH   6  19
ATOM     19  C   UNL     1       6.650   4.118  15.803  0.00  0.00    +0.000 C 
BRANCH  19  20
ATOM     20  C   UNL     1       6.766   4.360  14.297  0.00  0.00    +0.000 C 
ATOM     21  N   UNL     1       7.629   5.309  13.841  0.00  0.00    +0.000 N 
ATOM     22  O   UNL     1       6.102   3.712  13.488  0.00  0.00    +0.000 OA
ATOM     23  H   UNL     1       8.438   5.590  14.376  0.00  0.00    +0.000 HD
ATOM     24  H   UNL     1       7.720   5.343  12.830  0.00  0.00    +0.000 HD
ENDBRANCH  19  20
ENDBRANCH   6  19
TORSDOF 5
ENDMDL
