MODEL 1
REMARK VINA RESULT:      -8.0      0.000      0.000
REMARK  Name = 
REMARK  9 active torsions:
REMARK  status: ('A' for Active; 'I' for Inactive)
REMARK    1  A    between atoms: C_1  and  O_2
REMARK    2  A    between atoms: O_2  and  C_3
REMARK    3  A    between atoms: C_4  and  O_5
REMARK    4  A    between atoms: O_5  and  C_6
REMARK    5  A    between atoms: C_6  and  C_7
REMARK    6  A    between atoms: C_7  and  C_8
REMARK    7  A    between atoms: C_8  and  N_9
REMARK    8  A    between atoms: C_18  and  C_19
REMARK    9  A    between atoms: C_29  and  O_30
REMARK                            x       y       z     vdW  Elec       q    Type
REMARK                         _______ _______ _______ _____ _____    ______ ____
ROOT
ATOM      1  C   UNL     1       0.551  11.350  20.661  0.00  0.00    +0.000 A 
ATOM      2  C   UNL     1       0.349  10.579  21.821  0.00  0.00    +0.000 A 
ATOM      3  C   UNL     1       0.697   9.220  21.796  0.00  0.00    +0.000 A 
ATOM      4  C   UNL     1       1.217   8.630  20.657  0.00  0.00    +0.000 A 
ATOM      5  O   UNL     1       1.557   7.311  20.784  0.00  0.00    +0.000 OA
ATOM      6  C   UNL     1       2.152   6.696  19.704  0.00  0.00    +0.000 A 
ATOM      7  C   UNL     1       2.340   7.269  18.511  0.00  0.00    +0.000 A 
ATOM      8  C   UNL     1       1.922   8.668  18.328  0.00  0.00    +0.000 A 
ATOM      9  O   UNL     1       2.045   9.241  17.248  0.00  0.00    +0.000 OA
ATOM     10  C   UNL     1       1.373   9.368  19.498  0.00  0.00    +0.000 A 
ATOM     11  C   UNL     1       1.032  10.729  19.488  0.00  0.00    +0.000 A 
ENDROOT
BRANCH   6  12
ATOM     12  C   UNL     1       2.584   5.327  19.985  0.00  0.00    +0.000 A 
ATOM     13  C   UNL     1       1.920   4.569  20.958  0.00  0.00    +0.000 A 
ATOM     14  C   UNL     1       2.332   3.262  21.230  0.00  0.00    +0.000 A 
ATOM     15  C   UNL     1       3.402   2.709  20.528  0.00  0.00    +0.000 A 
ATOM     16  C   UNL     1       4.056   3.455  19.547  0.00  0.00    +0.000 A 
ATOM     17  C   UNL     1       3.647   4.760  19.274  0.00  0.00    +0.000 A 
ENDBRANCH   6  12
BRANCH   1  19
ATOM     18  C   UNL     1       1.284  13.562  21.067  0.00  0.00    +0.000 C 
ATOM     19  O   UNL     1       0.275  12.695  20.560  0.00  0.00    +0.000 OA
ENDBRANCH   1  19
BRANCH  11  20
ATOM     20  O   UNL     1       1.187  11.490  18.352  0.00  0.00    +0.000 OA
ATOM     21  H   UNL     1       2.118  11.798  18.301  0.00  0.00    +0.000 HD
ENDBRANCH  11  20
BRANCH   2  22
ATOM     22  O   UNL     1      -0.205  11.166  22.942  0.00  0.00    +0.000 OA
BRANCH  22  23
ATOM     23  C   UNL     1      -1.633  11.130  22.981  0.00  0.00    +0.000 C 
BRANCH  23  24
ATOM     24  C   UNL     1      -2.241  12.514  23.147  0.00  0.00    +0.000 C 
BRANCH  24  25
ATOM     25  C   UNL     1      -3.285  12.761  22.041  0.00  0.00    +0.000 C 
BRANCH  25  26
ATOM     26  N   UNL     1      -4.663  12.418  22.444  0.00  0.00    +0.000 NA
ATOM     27  C   UNL     1      -5.089  13.169  23.636  0.00  0.00    +0.000 C 
ATOM     28  C   UNL     1      -6.480  12.739  24.098  0.00  0.00    +0.000 C 
ATOM     29  C   UNL     1      -7.505  12.888  22.984  0.00  0.00    +0.000 C 
ATOM     30  C   UNL     1      -7.023  12.182  21.722  0.00  0.00    +0.000 C 
ATOM     31  C   UNL     1      -5.609  12.627  21.335  0.00  0.00    +0.000 C 
ENDBRANCH  25  26
ENDBRANCH  24  25
ENDBRANCH  23  24
ENDBRANCH  22  23
ENDBRANCH   2  22
TORSDOF 8
ENDMDL
MODEL 2
REMARK VINA RESULT:      -7.7      0.632      1.175
REMARK  Name = 
REMARK  9 active torsions:
REMARK  status: ('A' for Active; 'I' for Inactive)
REMARK    1  A    between atoms: C_1  and  O_2
REMARK    2  A    between atoms: O_2  and  C_3
REMARK    3  A    between atoms: C_4  and  O_5
REMARK    4  A    between atoms: O_5  and  C_6
REMARK    5  A    between atoms: C_6  and  C_7
REMARK    6  A    between atoms: C_7  and  C_8
REMARK    7  A    between atoms: C_8  and  N_9
REMARK    8  A    between atoms: C_18  and  C_19
REMARK    9  A    between atoms: C_29  and  O_30
REMARK                            x       y       z     vdW  Elec       q    Type
REMARK                         _______ _______ _______ _____ _____    ______ ____
ROOT
ATOM      1  C   UNL     1       0.648  11.375  20.546  0.00  0.00    +0.000 A 
ATOM      2  C   UNL     1       0.434  10.642  21.728  0.00  0.00    +0.000 A 
ATOM      3  C   UNL     1       0.750   9.275  21.740  0.00  0.00    +0.000 A 
ATOM      4  C   UNL     1       1.250   8.641  20.616  0.00  0.00    +0.000 A 
ATOM      5  O   UNL     1       1.559   7.318  20.778  0.00  0.00    +0.000 OA
ATOM      6  C   UNL     1       2.134   6.659  19.714  0.00  0.00    +0.000 A 
ATOM      7  C   UNL     1       2.330   7.193  18.504  0.00  0.00    +0.000 A 
ATOM      8  C   UNL     1       1.944   8.597  18.284  0.00  0.00    +0.000 A 
ATOM      9  O   UNL     1       2.076   9.136  17.187  0.00  0.00    +0.000 OA
ATOM     10  C   UNL     1       1.417   9.342  19.436  0.00  0.00    +0.000 A 
ATOM     11  C   UNL     1       1.109  10.709  19.389  0.00  0.00    +0.000 A 
ENDROOT
BRANCH   6  12
ATOM     12  C   UNL     1       2.536   5.288  20.032  0.00  0.00    +0.000 A 
ATOM     13  C   UNL     1       3.612   4.700  19.355  0.00  0.00    +0.000 A 
ATOM     14  C   UNL     1       3.997   3.392  19.654  0.00  0.00    +0.000 A 
ATOM     15  C   UNL     1       3.313   2.671  20.631  0.00  0.00    +0.000 A 
ATOM     16  C   UNL     1       2.250   3.258  21.318  0.00  0.00    +0.000 A 
ATOM     17  C   UNL     1       1.864   4.565  21.022  0.00  0.00    +0.000 A 
ENDBRANCH   6  12
BRANCH   1  19
ATOM     18  C   UNL     1      -0.859  13.055  19.838  0.00  0.00    +0.000 C 
ATOM     19  O   UNL     1       0.403  12.722  20.408  0.00  0.00    +0.000 OA
ENDBRANCH   1  19
BRANCH  11  20
ATOM     20  O   UNL     1       1.276  11.435  18.231  0.00  0.00    +0.000 OA
ATOM     21  H   UNL     1       0.927  10.911  17.476  0.00  0.00    +0.000 HD
ENDBRANCH  11  20
BRANCH   2  22
ATOM     22  O   UNL     1      -0.100  11.273  22.834  0.00  0.00    +0.000 OA
BRANCH  22  23
ATOM     23  C   UNL     1      -1.517  11.136  22.964  0.00  0.00    +0.000 C 
BRANCH  23  24
ATOM     24  C   UNL     1      -2.221  12.480  23.059  0.00  0.00    +0.000 C 
BRANCH  24  25
ATOM     25  C   UNL     1      -3.453  12.360  23.976  0.00  0.00    +0.000 C 
BRANCH  25  26
ATOM     26  N   UNL     1      -4.728  12.257  23.241  0.00  0.00    +0.000 NA
ATOM     27  C   UNL     1      -5.831  12.911  23.961  0.00  0.00    +0.000 C 
ATOM     28  C   UNL     1      -7.162  12.719  23.237  0.00  0.00    +0.000 C 
ATOM     29  C   UNL     1      -7.092  13.224  21.803  0.00  0.00    +0.000 C 
ATOM     30  C   UNL     1      -5.897  12.609  21.082  0.00  0.00    +0.000 C 
ATOM     31  C   UNL     1      -4.602  12.802  21.879  0.00  0.00    +0.000 C 
ENDBRANCH  25  26
ENDBRANCH  24  25
ENDBRANCH  23  24
ENDBRANCH  22  23
ENDBRANCH   2  22
TORSDOF 8
ENDMDL
MODEL 3
REMARK VINA RESULT:      -7.5      1.806      2.329
REMARK  Name = 
REMARK  9 active torsions:
REMARK  status: ('A' for Active; 'I' for Inactive)
REMARK    1  A    between atoms: C_1  and  O_2
REMARK    2  A    between atoms: O_2  and  C_3
REMARK    3  A    between atoms: C_4  and  O_5
REMARK    4  A    between atoms: O_5  and  C_6
REMARK    5  A    between atoms: C_6  and  C_7
REMARK    6  A    between atoms: C_7  and  C_8
REMARK    7  A    between atoms: C_8  and  N_9
REMARK    8  A    between atoms: C_18  and  C_19
REMARK    9  A    between atoms: C_29  and  O_30
REMARK                            x       y       z     vdW  Elec       q    Type
REMARK                         _______ _______ _______ _____ _____    ______ ____
ROOT
ATOM      1  C   UNL     1       0.710  11.238  20.561  0.00  0.00    +0.000 A 
ATOM      2  C   UNL     1       0.491  10.493  21.735  0.00  0.00    +0.000 A 
ATOM      3  C   UNL     1       0.813   9.128  21.737  0.00  0.00    +0.000 A 
ATOM      4  C   UNL     1       1.324   8.506  20.610  0.00  0.00    +0.000 A 
ATOM      5  O   UNL     1       1.638   7.184  20.763  0.00  0.00    +0.000 OA
ATOM      6  C   UNL     1       2.223   6.536  19.697  0.00  0.00    +0.000 A 
ATOM      7  C   UNL     1       2.425   7.082  18.494  0.00  0.00    +0.000 A 
ATOM      8  C   UNL     1       2.033   8.486  18.283  0.00  0.00    +0.000 A 
ATOM      9  O   UNL     1       2.170   9.035  17.192  0.00  0.00    +0.000 OA
ATOM     10  C   UNL     1       1.495   9.218  19.438  0.00  0.00    +0.000 A 
ATOM     11  C   UNL     1       1.181  10.585  19.401  0.00  0.00    +0.000 A 
ENDROOT
BRANCH   6  12
ATOM     12  C   UNL     1       2.629   5.165  20.005  0.00  0.00    +0.000 A 
ATOM     13  C   UNL     1       1.949   4.439  20.992  0.00  0.00    +0.000 A 
ATOM     14  C   UNL     1       2.336   3.131  21.290  0.00  0.00    +0.000 A 
ATOM     15  C   UNL     1       3.395   2.543  20.600  0.00  0.00    +0.000 A 
ATOM     16  C   UNL     1       4.064   3.257  19.607  0.00  0.00    +0.000 A 
ATOM     17  C   UNL     1       3.681   4.564  19.307  0.00  0.00    +0.000 A 
ENDBRANCH   6  12
BRANCH   1  19
ATOM     18  C   UNL     1       1.493  13.443  20.906  0.00  0.00    +0.000 C 
ATOM     19  O   UNL     1       0.459  12.585  20.433  0.00  0.00    +0.000 OA
ENDBRANCH   1  19
BRANCH  11  20
ATOM     20  O   UNL     1       1.352  11.321  18.251  0.00  0.00    +0.000 OA
ATOM     21  H   UNL     1       2.088  10.929  17.730  0.00  0.00    +0.000 HD
ENDBRANCH  11  20
BRANCH   2  22
ATOM     22  O   UNL     1      -0.054  11.112  22.843  0.00  0.00    +0.000 OA
BRANCH  22  23
ATOM     23  C   UNL     1      -1.462  10.918  22.994  0.00  0.00    +0.000 C 
BRANCH  23  24
ATOM     24  C   UNL     1      -2.239  12.220  22.892  0.00  0.00    +0.000 C 
BRANCH  24  25
ATOM     25  C   UNL     1      -1.358  13.392  23.364  0.00  0.00    +0.000 C 
BRANCH  25  26
ATOM     26  N   UNL     1      -2.060  14.337  24.254  0.00  0.00    +0.000 NA
ATOM     27  C   UNL     1      -1.194  15.455  24.660  0.00  0.00    +0.000 C 
ATOM     28  C   UNL     1      -1.902  16.376  25.652  0.00  0.00    +0.000 C 
ATOM     29  C   UNL     1      -3.213  16.900  25.085  0.00  0.00    +0.000 C 
ATOM     30  C   UNL     1      -4.074  15.745  24.586  0.00  0.00    +0.000 C 
ATOM     31  C   UNL     1      -3.295  14.838  23.627  0.00  0.00    +0.000 C 
ENDBRANCH  25  26
ENDBRANCH  24  25
ENDBRANCH  23  24
ENDBRANCH  22  23
ENDBRANCH   2  22
TORSDOF 8
ENDMDL
MODEL 4
REMARK VINA RESULT:      -7.3      2.234      3.634
REMARK  Name = 
REMARK  9 active torsions:
REMARK  status: ('A' for Active; 'I' for Inactive)
REMARK    1  A    between atoms: C_1  and  O_2
REMARK    2  A    between atoms: O_2  and  C_3
REMARK    3  A    between atoms: C_4  and  O_5
REMARK    4  A    between atoms: O_5  and  C_6
REMARK    5  A    between atoms: C_6  and  C_7
REMARK    6  A    between atoms: C_7  and  C_8
REMARK    7  A    between atoms: C_8  and  N_9
REMARK    8  A    between atoms: C_18  and  C_19
REMARK    9  A    between atoms: C_29  and  O_30
REMARK                            x       y       z     vdW  Elec       q    Type
REMARK                         _______ _______ _______ _____ _____    ______ ____
ROOT
ATOM      1  C   UNL     1      -1.573  11.835  20.907  0.00  0.00    +0.000 A 
ATOM      2  C   UNL     1      -1.520  11.510  19.538  0.00  0.00    +0.000 A 
ATOM      3  C   UNL     1      -0.668  10.476  19.123  0.00  0.00    +0.000 A 
ATOM      4  C   UNL     1       0.123   9.788  20.026  0.00  0.00    +0.000 A 
ATOM      5  O   UNL     1       0.872   8.773  19.495  0.00  0.00    +0.000 OA
ATOM      6  C   UNL     1       1.617   8.005  20.362  0.00  0.00    +0.000 A 
ATOM      7  C   UNL     1       1.733   8.234  21.674  0.00  0.00    +0.000 A 
ATOM      8  C   UNL     1       0.989   9.362  22.260  0.00  0.00    +0.000 A 
ATOM      9  O   UNL     1       1.075   9.638  23.455  0.00  0.00    +0.000 OA
ATOM     10  C   UNL     1       0.115  10.133  21.365  0.00  0.00    +0.000 A 
ATOM     11  C   UNL     1      -0.724  11.163  21.814  0.00  0.00    +0.000 A 
ENDROOT
BRANCH   6  12
ATOM     12  C   UNL     1       2.282   6.876  19.710  0.00  0.00    +0.000 A 
ATOM     13  C   UNL     1       2.934   7.062  18.484  0.00  0.00    +0.000 A 
ATOM     14  C   UNL     1       3.567   5.986  17.858  0.00  0.00    +0.000 A 
ATOM     15  C   UNL     1       3.555   4.727  18.456  0.00  0.00    +0.000 A 
ATOM     16  C   UNL     1       2.920   4.542  19.683  0.00  0.00    +0.000 A 
ATOM     17  C   UNL     1       2.287   5.614  20.312  0.00  0.00    +0.000 A 
ENDBRANCH   6  12
BRANCH   1  19
ATOM     18  C   UNL     1      -1.871  14.135  21.368  0.00  0.00    +0.000 C 
ATOM     19  O   UNL     1      -2.382  12.809  21.447  0.00  0.00    +0.000 OA
ENDBRANCH   1  19
BRANCH  11  20
ATOM     20  O   UNL     1      -0.761  11.520  23.142  0.00  0.00    +0.000 OA
ATOM     21  H   UNL     1      -0.857  12.496  23.205  0.00  0.00    +0.000 HD
ENDBRANCH  11  20
BRANCH   2  22
ATOM     22  O   UNL     1      -2.285  12.226  18.638  0.00  0.00    +0.000 OA
BRANCH  22  23
ATOM     23  C   UNL     1      -2.401  11.618  17.349  0.00  0.00    +0.000 C 
BRANCH  23  24
ATOM     24  C   UNL     1      -3.699  10.841  17.193  0.00  0.00    +0.000 C 
BRANCH  24  25
ATOM     25  C   UNL     1      -4.893  11.741  17.562  0.00  0.00    +0.000 C 
BRANCH  25  26
ATOM     26  N   UNL     1      -5.479  11.432  18.881  0.00  0.00    +0.000 NA
ATOM     27  C   UNL     1      -5.644  12.640  19.704  0.00  0.00    +0.000 C 
ATOM     28  C   UNL     1      -6.163  12.298  21.099  0.00  0.00    +0.000 C 
ATOM     29  C   UNL     1      -7.470  11.521  21.029  0.00  0.00    +0.000 C 
ATOM     30  C   UNL     1      -7.322  10.316  20.107  0.00  0.00    +0.000 C 
ATOM     31  C   UNL     1      -6.760  10.721  18.740  0.00  0.00    +0.000 C 
ENDBRANCH  25  26
ENDBRANCH  24  25
ENDBRANCH  23  24
ENDBRANCH  22  23
ENDBRANCH   2  22
TORSDOF 8
ENDMDL
MODEL 5
REMARK VINA RESULT:      -7.3      0.672      1.430
REMARK  Name = 
REMARK  9 active torsions:
REMARK  status: ('A' for Active; 'I' for Inactive)
REMARK    1  A    between atoms: C_1  and  O_2
REMARK    2  A    between atoms: O_2  and  C_3
REMARK    3  A    between atoms: C_4  and  O_5
REMARK    4  A    between atoms: O_5  and  C_6
REMARK    5  A    between atoms: C_6  and  C_7
REMARK    6  A    between atoms: C_7  and  C_8
REMARK    7  A    between atoms: C_8  and  N_9
REMARK    8  A    between atoms: C_18  and  C_19
REMARK    9  A    between atoms: C_29  and  O_30
REMARK                            x       y       z     vdW  Elec       q    Type
REMARK                         _______ _______ _______ _____ _____    ______ ____
ROOT
ATOM      1  C   UNL     1       0.839  11.393  20.174  0.00  0.00    +0.000 A 
ATOM      2  C   UNL     1       0.508  10.727  21.369  0.00  0.00    +0.000 A 
ATOM      3  C   UNL     1       0.768   9.352  21.469  0.00  0.00    +0.000 A 
ATOM      4  C   UNL     1       1.325   8.646  20.416  0.00  0.00    +0.000 A 
ATOM      5  O   UNL     1       1.568   7.323  20.663  0.00  0.00    +0.000 OA
ATOM      6  C   UNL     1       2.194   6.591  19.677  0.00  0.00    +0.000 A 
ATOM      7  C   UNL     1       2.501   7.058  18.463  0.00  0.00    +0.000 A 
ATOM      8  C   UNL     1       2.188   8.462  18.149  0.00  0.00    +0.000 A 
ATOM      9  O   UNL     1       2.423   8.942  17.042  0.00  0.00    +0.000 OA
ATOM     10  C   UNL     1       1.607   9.282  19.221  0.00  0.00    +0.000 A 
ATOM     11  C   UNL     1       1.358  10.655  19.088  0.00  0.00    +0.000 A 
ENDROOT
BRANCH   6  12
ATOM     12  C   UNL     1       2.516   5.224  20.087  0.00  0.00    +0.000 A 
ATOM     13  C   UNL     1       3.555   4.531  19.455  0.00  0.00    +0.000 A 
ATOM     14  C   UNL     1       3.864   3.225  19.842  0.00  0.00    +0.000 A 
ATOM     15  C   UNL     1       3.141   2.612  20.864  0.00  0.00    +0.000 A 
ATOM     16  C   UNL     1       2.115   3.305  21.507  0.00  0.00    +0.000 A 
ATOM     17  C   UNL     1       1.804   4.610  21.122  0.00  0.00    +0.000 A 
ENDBRANCH   6  12
BRANCH   1  19
ATOM     18  C   UNL     1      -0.605  13.103  19.408  0.00  0.00    +0.000 C 
ATOM     19  O   UNL     1       0.659  12.740  19.956  0.00  0.00    +0.000 OA
ENDBRANCH   1  19
BRANCH  11  20
ATOM     20  O   UNL     1       1.639  11.316  17.914  0.00  0.00    +0.000 OA
ATOM     21  H   UNL     1       1.463  10.712  17.160  0.00  0.00    +0.000 HD
ENDBRANCH  11  20
BRANCH   2  22
ATOM     22  O   UNL     1      -0.081  11.431  22.401  0.00  0.00    +0.000 OA
BRANCH  22  23
ATOM     23  C   UNL     1      -1.398  10.988  22.739  0.00  0.00    +0.000 C 
BRANCH  23  24
ATOM     24  C   UNL     1      -2.225  12.082  23.394  0.00  0.00    +0.000 C 
BRANCH  24  25
ATOM     25  C   UNL     1      -2.770  13.039  22.318  0.00  0.00    +0.000 C 
BRANCH  25  26
ATOM     26  N   UNL     1      -4.223  13.279  22.423  0.00  0.00    +0.000 NA
ATOM     27  C   UNL     1      -4.971  12.586  21.362  0.00  0.00    +0.000 C 
ATOM     28  C   UNL     1      -6.461  12.915  21.425  0.00  0.00    +0.000 C 
ATOM     29  C   UNL     1      -7.046  12.583  22.790  0.00  0.00    +0.000 C 
ATOM     30  C   UNL     1      -6.219  13.232  23.894  0.00  0.00    +0.000 C 
ATOM     31  C   UNL     1      -4.730  12.896  23.751  0.00  0.00    +0.000 C 
ENDBRANCH  25  26
ENDBRANCH  24  25
ENDBRANCH  23  24
ENDBRANCH  22  23
ENDBRANCH   2  22
TORSDOF 8
ENDMDL
MODEL 6
REMARK VINA RESULT:      -7.3      4.148      6.388
REMARK  Name = 
REMARK  9 active torsions:
REMARK  status: ('A' for Active; 'I' for Inactive)
REMARK    1  A    between atoms: C_1  and  O_2
REMARK    2  A    between atoms: O_2  and  C_3
REMARK    3  A    between atoms: C_4  and  O_5
REMARK    4  A    between atoms: O_5  and  C_6
REMARK    5  A    between atoms: C_6  and  C_7
REMARK    6  A    between atoms: C_7  and  C_8
REMARK    7  A    between atoms: C_8  and  N_9
REMARK    8  A    between atoms: C_18  and  C_19
REMARK    9  A    between atoms: C_29  and  O_30
REMARK                            x       y       z     vdW  Elec       q    Type
REMARK                         _______ _______ _______ _____ _____    ______ ____
ROOT
ATOM      1  C   UNL     1       2.378   6.613  19.473  0.00  0.00    +0.000 A 
ATOM      2  C   UNL     1       2.683   7.626  18.544  0.00  0.00    +0.000 A 
ATOM      3  C   UNL     1       3.511   7.316  17.456  0.00  0.00    +0.000 A 
ATOM      4  C   UNL     1       4.039   6.047  17.290  0.00  0.00    +0.000 A 
ATOM      5  O   UNL     1       4.792   5.868  16.162  0.00  0.00    +0.000 OA
ATOM      6  C   UNL     1       5.275   4.604  15.907  0.00  0.00    +0.000 A 
ATOM      7  C   UNL     1       5.138   3.558  16.729  0.00  0.00    +0.000 A 
ATOM      8  C   UNL     1       4.390   3.741  17.983  0.00  0.00    +0.000 A 
ATOM      9  O   UNL     1       4.251   2.824  18.790  0.00  0.00    +0.000 OA
ATOM     10  C   UNL     1       3.786   5.059  18.223  0.00  0.00    +0.000 A 
ATOM     11  C   UNL     1       2.963   5.336  19.325  0.00  0.00    +0.000 A 
ENDROOT
BRANCH   6  12
ATOM     12  C   UNL     1       5.961   4.495  14.619  0.00  0.00    +0.000 A 
ATOM     13  C   UNL     1       5.456   3.643  13.628  0.00  0.00    +0.000 A 
ATOM     14  C   UNL     1       6.109   3.535  12.399  0.00  0.00    +0.000 A 
ATOM     15  C   UNL     1       7.262   4.280  12.154  0.00  0.00    +0.000 A 
ATOM     16  C   UNL     1       7.759   5.141  13.133  0.00  0.00    +0.000 A 
ATOM     17  C   UNL     1       7.109   5.251  14.362  0.00  0.00    +0.000 A 
ENDBRANCH   6  12
BRANCH   1  19
ATOM     18  C   UNL     1       1.713   8.015  21.258  0.00  0.00    +0.000 C 
ATOM     19  O   UNL     1       1.562   6.778  20.568  0.00  0.00    +0.000 OA
ENDBRANCH   1  19
BRANCH  11  20
ATOM     20  O   UNL     1       2.685   4.369  20.264  0.00  0.00    +0.000 OA
ATOM     21  H   UNL     1       3.128   4.610  21.108  0.00  0.00    +0.000 HD
ENDBRANCH  11  20
BRANCH   2  22
ATOM     22  O   UNL     1       2.183   8.899  18.736  0.00  0.00    +0.000 OA
BRANCH  22  23
ATOM     23  C   UNL     1       1.085   9.235  17.886  0.00  0.00    +0.000 C 
BRANCH  23  24
ATOM     24  C   UNL     1       0.423  10.544  18.285  0.00  0.00    +0.000 C 
BRANCH  24  25
ATOM     25  C   UNL     1      -0.833  10.258  19.129  0.00  0.00    +0.000 C 
BRANCH  25  26
ATOM     26  N   UNL     1      -2.084  10.270  18.347  0.00  0.00    +0.000 NA
ATOM     27  C   UNL     1      -2.790  11.556  18.461  0.00  0.00    +0.000 C 
ATOM     28  C   UNL     1      -4.128  11.525  17.724  0.00  0.00    +0.000 C 
ATOM     29  C   UNL     1      -3.946  11.149  16.261  0.00  0.00    +0.000 C 
ATOM     30  C   UNL     1      -3.140   9.860  16.141  0.00  0.00    +0.000 C 
ATOM     31  C   UNL     1      -1.831   9.941  16.934  0.00  0.00    +0.000 C 
ENDBRANCH  25  26
ENDBRANCH  24  25
ENDBRANCH  23  24
ENDBRANCH  22  23
ENDBRANCH   2  22
TORSDOF 8
ENDMDL
MODEL 7
REMARK VINA RESULT:      -7.3      1.127      1.603
REMARK  Name = 
REMARK  9 active torsions:
REMARK  status: ('A' for Active; 'I' for Inactive)
REMARK    1  A    between atoms: C_1  and  O_2
REMARK    2  A    between atoms: O_2  and  C_3
REMARK    3  A    between atoms: C_4  and  O_5
REMARK    4  A    between atoms: O_5  and  C_6
REMARK    5  A    between atoms: C_6  and  C_7
REMARK    6  A    between atoms: C_7  and  C_8
REMARK    7  A    between atoms: C_8  and  N_9
REMARK    8  A    between atoms: C_18  and  C_19
REMARK    9  A    between atoms: C_29  and  O_30
REMARK                            x       y       z     vdW  Elec       q    Type
REMARK                         _______ _______ _______ _____ _____    ______ ____
ROOT
ATOM      1  C   UNL     1       0.719  11.223  20.532  0.00  0.00    +0.000 A 
ATOM      2  C   UNL     1       0.497  10.491  21.713  0.00  0.00    +0.000 A 
ATOM      3  C   UNL     1       0.816   9.125  21.730  0.00  0.00    +0.000 A 
ATOM      4  C   UNL     1       1.326   8.490  20.611  0.00  0.00    +0.000 A 
ATOM      5  O   UNL     1       1.638   7.168  20.778  0.00  0.00    +0.000 OA
ATOM      6  C   UNL     1       2.222   6.509  19.720  0.00  0.00    +0.000 A 
ATOM      7  C   UNL     1       2.426   7.041  18.510  0.00  0.00    +0.000 A 
ATOM      8  C   UNL     1       2.037   8.443  18.284  0.00  0.00    +0.000 A 
ATOM      9  O   UNL     1       2.176   8.981  17.188  0.00  0.00    +0.000 OA
ATOM     10  C   UNL     1       1.501   9.189  19.431  0.00  0.00    +0.000 A 
ATOM     11  C   UNL     1       1.189  10.556  19.379  0.00  0.00    +0.000 A 
ENDROOT
BRANCH   6  12
ATOM     12  C   UNL     1       2.624   5.139  20.042  0.00  0.00    +0.000 A 
ATOM     13  C   UNL     1       1.948   4.429  21.042  0.00  0.00    +0.000 A 
ATOM     14  C   UNL     1       2.332   3.123  21.355  0.00  0.00    +0.000 A 
ATOM     15  C   UNL     1       3.385   2.523  20.666  0.00  0.00    +0.000 A 
ATOM     16  C   UNL     1       4.050   3.221  19.659  0.00  0.00    +0.000 A 
ATOM     17  C   UNL     1       3.670   4.526  19.345  0.00  0.00    +0.000 A 
ENDBRANCH   6  12
BRANCH   1  19
ATOM     18  C   UNL     1       1.504  13.430  20.859  0.00  0.00    +0.000 C 
ATOM     19  O   UNL     1       0.471  12.569  20.389  0.00  0.00    +0.000 OA
ENDBRANCH   1  19
BRANCH  11  20
ATOM     20  O   UNL     1       1.363  11.279  18.221  0.00  0.00    +0.000 OA
ATOM     21  H   UNL     1       1.873  12.093  18.430  0.00  0.00    +0.000 HD
ENDBRANCH  11  20
BRANCH   2  22
ATOM     22  O   UNL     1      -0.047  11.123  22.814  0.00  0.00    +0.000 OA
BRANCH  22  23
ATOM     23  C   UNL     1      -1.475  11.179  22.815  0.00  0.00    +0.000 C 
BRANCH  23  24
ATOM     24  C   UNL     1      -1.997  12.607  22.817  0.00  0.00    +0.000 C 
BRANCH  24  25
ATOM     25  C   UNL     1      -3.534  12.600  22.720  0.00  0.00    +0.000 C 
BRANCH  25  26
ATOM     26  N   UNL     1      -4.142  13.933  22.903  0.00  0.00    +0.000 NA
ATOM     27  C   UNL     1      -5.424  13.857  23.621  0.00  0.00    +0.000 C 
ATOM     28  C   UNL     1      -6.088  15.228  23.723  0.00  0.00    +0.000 C 
ATOM     29  C   UNL     1      -5.168  16.242  24.388  0.00  0.00    +0.000 C 
ATOM     30  C   UNL     1      -3.809  16.259  23.696  0.00  0.00    +0.000 C 
ATOM     31  C   UNL     1      -3.217  14.849  23.589  0.00  0.00    +0.000 C 
ENDBRANCH  25  26
ENDBRANCH  24  25
ENDBRANCH  23  24
ENDBRANCH  22  23
ENDBRANCH   2  22
TORSDOF 8
ENDMDL
MODEL 8
REMARK VINA RESULT:      -7.2      1.121      1.811
REMARK  Name = 
REMARK  9 active torsions:
REMARK  status: ('A' for Active; 'I' for Inactive)
REMARK    1  A    between atoms: C_1  and  O_2
REMARK    2  A    between atoms: O_2  and  C_3
REMARK    3  A    between atoms: C_4  and  O_5
REMARK    4  A    between atoms: O_5  and  C_6
REMARK    5  A    between atoms: C_6  and  C_7
REMARK    6  A    between atoms: C_7  and  C_8
REMARK    7  A    between atoms: C_8  and  N_9
REMARK    8  A    between atoms: C_18  and  C_19
REMARK    9  A    between atoms: C_29  and  O_30
REMARK                            x       y       z     vdW  Elec       q    Type
REMARK                         _______ _______ _______ _____ _____    ______ ____
ROOT
ATOM      1  C   UNL     1       0.680  11.278  20.565  0.00  0.00    +0.000 A 
ATOM      2  C   UNL     1       0.456  10.538  21.740  0.00  0.00    +0.000 A 
ATOM      3  C   UNL     1       0.774   9.172  21.747  0.00  0.00    +0.000 A 
ATOM      4  C   UNL     1       1.285   8.545  20.624  0.00  0.00    +0.000 A 
ATOM      5  O   UNL     1       1.595   7.222  20.782  0.00  0.00    +0.000 OA
ATOM      6  C   UNL     1       2.180   6.569  19.719  0.00  0.00    +0.000 A 
ATOM      7  C   UNL     1       2.387   7.111  18.514  0.00  0.00    +0.000 A 
ATOM      8  C   UNL     1       2.000   8.515  18.298  0.00  0.00    +0.000 A 
ATOM      9  O   UNL     1       2.142   9.061  17.206  0.00  0.00    +0.000 OA
ATOM     10  C   UNL     1       1.462   9.253  19.449  0.00  0.00    +0.000 A 
ATOM     11  C   UNL     1       1.152  10.620  19.408  0.00  0.00    +0.000 A 
ENDROOT
BRANCH   6  12
ATOM     12  C   UNL     1       2.581   5.197  20.032  0.00  0.00    +0.000 A 
ATOM     13  C   UNL     1       3.638   4.601  19.333  0.00  0.00    +0.000 A 
ATOM     14  C   UNL     1       4.022   3.291  19.628  0.00  0.00    +0.000 A 
ATOM     15  C   UNL     1       3.356   2.577  20.623  0.00  0.00    +0.000 A 
ATOM     16  C   UNL     1       2.313   3.173  21.332  0.00  0.00    +0.000 A 
ATOM     17  C   UNL     1       1.927   4.481  21.040  0.00  0.00    +0.000 A 
ENDBRANCH   6  12
BRANCH   1  19
ATOM     18  C   UNL     1      -0.838  12.961  19.887  0.00  0.00    +0.000 C 
ATOM     19  O   UNL     1       0.434  12.626  20.432  0.00  0.00    +0.000 OA
ENDBRANCH   1  19
BRANCH  11  20
ATOM     20  O   UNL     1       1.329  11.352  18.256  0.00  0.00    +0.000 OA
ATOM     21  H   UNL     1       2.030  10.928  17.715  0.00  0.00    +0.000 HD
ENDBRANCH  11  20
BRANCH   2  22
ATOM     22  O   UNL     1      -0.089  11.162  22.845  0.00  0.00    +0.000 OA
BRANCH  22  23
ATOM     23  C   UNL     1      -1.517  11.120  22.900  0.00  0.00    +0.000 C 
BRANCH  23  24
ATOM     24  C   UNL     1      -2.121  12.467  23.264  0.00  0.00    +0.000 C 
BRANCH  24  25
ATOM     25  C   UNL     1      -3.607  12.498  22.863  0.00  0.00    +0.000 C 
BRANCH  25  26
ATOM     26  N   UNL     1      -4.213  13.842  22.947  0.00  0.00    +0.000 NA
ATOM     27  C   UNL     1      -5.677  13.792  22.816  0.00  0.00    +0.000 C 
ATOM     28  C   UNL     1      -6.284  15.194  22.812  0.00  0.00    +0.000 C 
ATOM     29  C   UNL     1      -5.889  15.973  24.058  0.00  0.00    +0.000 C 
ATOM     30  C   UNL     1      -4.376  15.951  24.240  0.00  0.00    +0.000 C 
ATOM     31  C   UNL     1      -3.826  14.521  24.195  0.00  0.00    +0.000 C 
ENDBRANCH  25  26
ENDBRANCH  24  25
ENDBRANCH  23  24
ENDBRANCH  22  23
ENDBRANCH   2  22
TORSDOF 8
ENDMDL
MODEL 9
REMARK VINA RESULT:      -7.2      4.099      6.380
REMARK  Name = 
REMARK  9 active torsions:
REMARK  status: ('A' for Active; 'I' for Inactive)
REMARK    1  A    between atoms: C_1  and  O_2
REMARK    2  A    between atoms: O_2  and  C_3
REMARK    3  A    between atoms: C_4  and  O_5
REMARK    4  A    between atoms: O_5  and  C_6
REMARK    5  A    between atoms: C_6  and  C_7
REMARK    6  A    between atoms: C_7  and  C_8
REMARK    7  A    between atoms: C_8  and  N_9
REMARK    8  A    between atoms: C_18  and  C_19
REMARK    9  A    between atoms: C_29  and  O_30
REMARK                            x       y       z     vdW  Elec       q    Type
REMARK                         _______ _______ _______ _____ _____    ______ ____
ROOT
ATOM      1  C   UNL     1       2.387   6.884  19.363  0.00  0.00    +0.000 A 
ATOM      2  C   UNL     1       2.307   7.673  18.199  0.00  0.00    +0.000 A 
ATOM      3  C   UNL     1       3.139   7.359  17.114  0.00  0.00    +0.000 A 
ATOM      4  C   UNL     1       4.037   6.307  17.175  0.00  0.00    +0.000 A 
ATOM      5  O   UNL     1       4.754   6.082  16.031  0.00  0.00    +0.000 OA
ATOM      6  C   UNL     1       5.604   4.999  16.010  0.00  0.00    +0.000 A 
ATOM      7  C   UNL     1       5.847   4.202  17.057  0.00  0.00    +0.000 A 
ATOM      8  C   UNL     1       5.139   4.464  18.320  0.00  0.00    +0.000 A 
ATOM      9  O   UNL     1       5.339   3.783  19.323  0.00  0.00    +0.000 OA
ATOM     10  C   UNL     1       4.157   5.558  18.331  0.00  0.00    +0.000 A 
ATOM     11  C   UNL     1       3.342   5.846  19.435  0.00  0.00    +0.000 A 
ENDROOT
BRANCH   6  12
ATOM     12  C   UNL     1       6.227   4.777  14.705  0.00  0.00    +0.000 A 
ATOM     13  C   UNL     1       5.672   3.851  13.813  0.00  0.00    +0.000 A 
ATOM     14  C   UNL     1       6.266   3.635  12.568  0.00  0.00    +0.000 A 
ATOM     15  C   UNL     1       7.409   4.348  12.208  0.00  0.00    +0.000 A 
ATOM     16  C   UNL     1       7.955   5.282  13.087  0.00  0.00    +0.000 A 
ATOM     17  C   UNL     1       7.365   5.500  14.333  0.00  0.00    +0.000 A 
ENDBRANCH   6  12
BRANCH   1  19
ATOM     18  C   UNL     1       1.875   8.264  21.214  0.00  0.00    +0.000 C 
ATOM     19  O   UNL     1       1.613   7.069  20.485  0.00  0.00    +0.000 OA
ENDBRANCH   1  19
BRANCH  11  20
ATOM     20  O   UNL     1       3.432   5.110  20.594  0.00  0.00    +0.000 OA
ATOM     21  H   UNL     1       3.802   5.681  21.304  0.00  0.00    +0.000 HD
ENDBRANCH  11  20
BRANCH   2  22
ATOM     22  O   UNL     1       1.436   8.743  18.160  0.00  0.00    +0.000 OA
BRANCH  22  23
ATOM     23  C   UNL     1       2.074  10.022  18.161  0.00  0.00    +0.000 C 
BRANCH  23  24
ATOM     24  C   UNL     1       1.136  11.136  18.596  0.00  0.00    +0.000 C 
BRANCH  24  25
ATOM     25  C   UNL     1      -0.230  10.543  18.989  0.00  0.00    +0.000 C 
BRANCH  25  26
ATOM     26  N   UNL     1      -1.328  10.944  18.087  0.00  0.00    +0.000 NA
ATOM     27  C   UNL     1      -1.682   9.872  17.143  0.00  0.00    +0.000 C 
ATOM     28  C   UNL     1      -2.754  10.329  16.156  0.00  0.00    +0.000 C 
ATOM     29  C   UNL     1      -3.995  10.831  16.878  0.00  0.00    +0.000 C 
ATOM     30  C   UNL     1      -3.617  11.881  17.916  0.00  0.00    +0.000 C 
ATOM     31  C   UNL     1      -2.512  11.376  18.849  0.00  0.00    +0.000 C 
ENDBRANCH  25  26
ENDBRANCH  24  25
ENDBRANCH  23  24
ENDBRANCH  22  23
ENDBRANCH   2  22
TORSDOF 8
ENDMDL
