MODEL 1
REMARK VINA RESULT:      -7.8      0.000      0.000
REMARK  Name = 
REMARK  6 active torsions:
REMARK  status: ('A' for Active; 'I' for Inactive)
REMARK    1  A    between atoms: C_1  and  C_2
REMARK    2  A    between atoms: C_5  and  C_6
REMARK    3  A    between atoms: C_9  and  C_10
REMARK    4  A    between atoms: C_10  and  C_11
REMARK    5  A    between atoms: C_11  and  C_12
REMARK    6  A    between atoms: N_15  and  C_16
REMARK                            x       y       z     vdW  Elec       q    Type
REMARK                         _______ _______ _______ _____ _____    ______ ____
ROOT
ATOM      1  C   UNL     1       7.441   6.098  16.934  0.00  0.00    +0.000 A 
ATOM      2  N   UNL     1       7.583   5.576  18.166  0.00  0.00    +0.000 NA
ATOM      3  O   UNL     1       8.034   6.647  18.935  0.00  0.00    +0.000 OA
ATOM      4  C   UNL     1       8.137   7.711  18.091  0.00  0.00    +0.000 A 
ATOM      5  N   UNL     1       7.790   7.435  16.857  0.00  0.00    +0.000 NA
ENDROOT
BRANCH   1  10
ATOM      6  C   UNL     1       5.733   3.265  12.321  0.00  0.00    +0.000 C 
ATOM      7  C   UNL     1       6.117   3.998  13.564  0.00  0.00    +0.000 A 
ATOM      8  C   UNL     1       5.350   3.930  14.716  0.00  0.00    +0.000 A 
ATOM      9  C   UNL     1       5.772   4.630  15.841  0.00  0.00    +0.000 A 
ATOM     10  C   UNL     1       6.949   5.365  15.773  0.00  0.00    +0.000 A 
ATOM     11  N   UNL     1       7.677   5.410  14.636  0.00  0.00    +0.000 NA
ATOM     12  N   UNL     1       7.258   4.720  13.525  0.00  0.00    +0.000 NA
ENDBRANCH   1  10
BRANCH   4  13
ATOM     13  C   UNL     1       8.558   9.006  18.671  0.00  0.00    +0.000 C 
BRANCH  13  14
ATOM     14  C   UNL     1       8.374  10.171  17.698  0.00  0.00    +0.000 C 
BRANCH  14  15
ATOM     15  C   UNL     1       9.133  11.436  18.138  0.00  0.00    +0.000 C 
ATOM     16  C   UNL     1       8.504  12.723  17.583  0.00  0.00    +0.000 C 
ATOM     17  C   UNL     1       9.329  13.955  17.952  0.00  0.00    +0.000 C 
ATOM     18  N   UNL     1      10.715  13.824  17.488  0.00  0.00    +0.000 NA
ATOM     19  C   UNL     1      11.474  15.032  17.813  0.00  0.00    +0.000 C 
ATOM     20  C   UNL     1      11.361  12.638  18.067  0.00  0.00    +0.000 C 
ATOM     21  C   UNL     1      10.602  11.361  17.698  0.00  0.00    +0.000 C 
ENDBRANCH  14  15
ENDBRANCH  13  14
ENDBRANCH   4  13
TORSDOF 4
ENDMDL
MODEL 2
REMARK VINA RESULT:      -7.6      2.438      3.381
REMARK  Name = 
REMARK  6 active torsions:
REMARK  status: ('A' for Active; 'I' for Inactive)
REMARK    1  A    between atoms: C_1  and  C_2
REMARK    2  A    between atoms: C_5  and  C_6
REMARK    3  A    between atoms: C_9  and  C_10
REMARK    4  A    between atoms: C_10  and  C_11
REMARK    5  A    between atoms: C_11  and  C_12
REMARK    6  A    between atoms: N_15  and  C_16
REMARK                            x       y       z     vdW  Elec       q    Type
REMARK                         _______ _______ _______ _____ _____    ______ ____
ROOT
ATOM      1  C   UNL     1       6.437   5.964  17.379  0.00  0.00    +0.000 A 
ATOM      2  N   UNL     1       7.315   5.853  16.367  0.00  0.00    +0.000 NA
ATOM      3  O   UNL     1       8.003   7.065  16.384  0.00  0.00    +0.000 OA
ATOM      4  C   UNL     1       7.464   7.798  17.396  0.00  0.00    +0.000 A 
ATOM      5  N   UNL     1       6.503   7.179  18.038  0.00  0.00    +0.000 NA
ENDROOT
BRANCH   1  10
ATOM      6  C   UNL     1       2.909   1.898  19.184  0.00  0.00    +0.000 C 
ATOM      7  C   UNL     1       3.802   2.969  18.646  0.00  0.00    +0.000 A 
ATOM      8  C   UNL     1       3.491   3.660  17.486  0.00  0.00    +0.000 A 
ATOM      9  C   UNL     1       4.363   4.651  17.046  0.00  0.00    +0.000 A 
ATOM     10  C   UNL     1       5.505   4.919  17.789  0.00  0.00    +0.000 A 
ATOM     11  N   UNL     1       5.779   4.230  18.919  0.00  0.00    +0.000 NA
ATOM     12  N   UNL     1       4.919   3.250  19.350  0.00  0.00    +0.000 NA
ENDBRANCH   1  10
BRANCH   4  13
ATOM     13  C   UNL     1       8.053   9.130  17.664  0.00  0.00    +0.000 C 
BRANCH  13  14
ATOM     14  C   UNL     1       8.855   9.165  18.965  0.00  0.00    +0.000 C 
BRANCH  14  15
ATOM     15  C   UNL     1       9.585  10.504  19.175  0.00  0.00    +0.000 C 
ATOM     16  C   UNL     1       9.454  11.027  20.613  0.00  0.00    +0.000 C 
ATOM     17  C   UNL     1      10.103  12.401  20.772  0.00  0.00    +0.000 C 
ATOM     18  N   UNL     1       9.538  13.368  19.824  0.00  0.00    +0.000 NA
ATOM     19  C   UNL     1      10.143  14.685  20.023  0.00  0.00    +0.000 C 
ATOM     20  C   UNL     1       9.720  12.922  18.436  0.00  0.00    +0.000 C 
ATOM     21  C   UNL     1       9.054  11.565  18.201  0.00  0.00    +0.000 C 
ENDBRANCH  14  15
ENDBRANCH  13  14
ENDBRANCH   4  13
TORSDOF 4
ENDMDL
MODEL 3
REMARK VINA RESULT:      -7.4      2.674      3.633
REMARK  Name = 
REMARK  6 active torsions:
REMARK  status: ('A' for Active; 'I' for Inactive)
REMARK    1  A    between atoms: C_1  and  C_2
REMARK    2  A    between atoms: C_5  and  C_6
REMARK    3  A    between atoms: C_9  and  C_10
REMARK    4  A    between atoms: C_10  and  C_11
REMARK    5  A    between atoms: C_11  and  C_12
REMARK    6  A    between atoms: N_15  and  C_16
REMARK                            x       y       z     vdW  Elec       q    Type
REMARK                         _______ _______ _______ _____ _____    ______ ____
ROOT
ATOM      1  C   UNL     1       6.035   5.549  18.481  0.00  0.00    +0.000 A 
ATOM      2  N   UNL     1       7.061   5.327  19.321  0.00  0.00    +0.000 NA
ATOM      3  O   UNL     1       7.993   6.306  18.979  0.00  0.00    +0.000 OA
ATOM      4  C   UNL     1       7.447   7.016  17.954  0.00  0.00    +0.000 A 
ATOM      5  N   UNL     1       6.253   6.598  17.606  0.00  0.00    +0.000 NA
ENDROOT
BRANCH   1  10
ATOM      6  C   UNL     1       1.110   2.729  18.652  0.00  0.00    +0.000 C 
ATOM      7  C   UNL     1       2.422   3.437  18.546  0.00  0.00    +0.000 A 
ATOM      8  C   UNL     1       3.174   3.402  17.383  0.00  0.00    +0.000 A 
ATOM      9  C   UNL     1       4.382   4.091  17.349  0.00  0.00    +0.000 A 
ATOM     10  C   UNL     1       4.787   4.794  18.477  0.00  0.00    +0.000 A 
ATOM     11  N   UNL     1       4.029   4.811  19.596  0.00  0.00    +0.000 NA
ATOM     12  N   UNL     1       2.838   4.129  19.628  0.00  0.00    +0.000 NA
ENDBRANCH   1  10
BRANCH   4  13
ATOM     13  C   UNL     1       8.223   8.160  17.426  0.00  0.00    +0.000 C 
BRANCH  13  14
ATOM     14  C   UNL     1       7.897   9.470  18.144  0.00  0.00    +0.000 C 
BRANCH  14  15
ATOM     15  C   UNL     1       9.128  10.382  18.299  0.00  0.00    +0.000 C 
ATOM     16  C   UNL     1       9.580  10.518  19.761  0.00  0.00    +0.000 C 
ATOM     17  C   UNL     1      10.740  11.503  19.900  0.00  0.00    +0.000 C 
ATOM     18  N   UNL     1      10.389  12.817  19.350  0.00  0.00    +0.000 NA
ATOM     19  C   UNL     1      11.498  13.755  19.533  0.00  0.00    +0.000 C 
ATOM     20  C   UNL     1      10.025  12.721  17.930  0.00  0.00    +0.000 C 
ATOM     21  C   UNL     1       8.838  11.777  17.728  0.00  0.00    +0.000 C 
ENDBRANCH  14  15
ENDBRANCH  13  14
ENDBRANCH   4  13
TORSDOF 4
ENDMDL
MODEL 4
REMARK VINA RESULT:      -7.4      2.606      3.505
REMARK  Name = 
REMARK  6 active torsions:
REMARK  status: ('A' for Active; 'I' for Inactive)
REMARK    1  A    between atoms: C_1  and  C_2
REMARK    2  A    between atoms: C_5  and  C_6
REMARK    3  A    between atoms: C_9  and  C_10
REMARK    4  A    between atoms: C_10  and  C_11
REMARK    5  A    between atoms: C_11  and  C_12
REMARK    6  A    between atoms: N_15  and  C_16
REMARK                            x       y       z     vdW  Elec       q    Type
REMARK                         _______ _______ _______ _____ _____    ______ ____
ROOT
ATOM      1  C   UNL     1       6.061   5.551  18.372  0.00  0.00    +0.000 A 
ATOM      2  N   UNL     1       7.187   5.263  19.048  0.00  0.00    +0.000 NA
ATOM      3  O   UNL     1       8.010   6.362  18.814  0.00  0.00    +0.000 OA
ATOM      4  C   UNL     1       7.309   7.203  18.005  0.00  0.00    +0.000 A 
ATOM      5  N   UNL     1       6.113   6.760  17.700  0.00  0.00    +0.000 NA
ENDROOT
BRANCH   1  10
ATOM      6  C   UNL     1       1.400   2.312  18.487  0.00  0.00    +0.000 C 
ATOM      7  C   UNL     1       2.629   3.154  18.385  0.00  0.00    +0.000 A 
ATOM      8  C   UNL     1       3.108   3.598  17.163  0.00  0.00    +0.000 A 
ATOM      9  C   UNL     1       4.253   4.386  17.141  0.00  0.00    +0.000 A 
ATOM     10  C   UNL     1       4.870   4.708  18.343  0.00  0.00    +0.000 A 
ATOM     11  N   UNL     1       4.378   4.263  19.520  0.00  0.00    +0.000 NA
ATOM     12  N   UNL     1       3.248   3.482  19.540  0.00  0.00    +0.000 NA
ENDBRANCH   1  10
BRANCH   4  13
ATOM     13  C   UNL     1       7.947   8.487  17.635  0.00  0.00    +0.000 C 
BRANCH  13  14
ATOM     14  C   UNL     1       8.912   8.992  18.709  0.00  0.00    +0.000 C 
BRANCH  14  15
ATOM     15  C   UNL     1       8.968  10.528  18.779  0.00  0.00    +0.000 C 
ATOM     16  C   UNL     1       9.989  11.126  17.798  0.00  0.00    +0.000 C 
ATOM     17  C   UNL     1      10.096  12.642  17.955  0.00  0.00    +0.000 C 
ATOM     18  N   UNL     1      10.438  13.010  19.333  0.00  0.00    +0.000 NA
ATOM     19  C   UNL     1      10.578  14.462  19.450  0.00  0.00    +0.000 C 
ATOM     20  C   UNL     1       9.433  12.512  20.282  0.00  0.00    +0.000 C 
ATOM     21  C   UNL     1       9.307  10.989  20.203  0.00  0.00    +0.000 C 
ENDBRANCH  14  15
ENDBRANCH  13  14
ENDBRANCH   4  13
TORSDOF 4
ENDMDL
MODEL 5
REMARK VINA RESULT:      -7.4      5.528      6.352
REMARK  Name = 
REMARK  6 active torsions:
REMARK  status: ('A' for Active; 'I' for Inactive)
REMARK    1  A    between atoms: C_1  and  C_2
REMARK    2  A    between atoms: C_5  and  C_6
REMARK    3  A    between atoms: C_9  and  C_10
REMARK    4  A    between atoms: C_10  and  C_11
REMARK    5  A    between atoms: C_11  and  C_12
REMARK    6  A    between atoms: N_15  and  C_16
REMARK                            x       y       z     vdW  Elec       q    Type
REMARK                         _______ _______ _______ _____ _____    ______ ____
ROOT
ATOM      1  C   UNL     1       5.895   4.924  17.489  0.00  0.00    +0.000 A 
ATOM      2  N   UNL     1       6.749   5.185  18.495  0.00  0.00    +0.000 NA
ATOM      3  O   UNL     1       5.954   5.117  19.637  0.00  0.00    +0.000 OA
ATOM      4  C   UNL     1       4.692   4.835  19.211  0.00  0.00    +0.000 A 
ATOM      5  N   UNL     1       4.595   4.708  17.910  0.00  0.00    +0.000 NA
ENDROOT
BRANCH   1  10
ATOM      6  C   UNL     1       7.562   4.690  12.067  0.00  0.00    +0.000 C 
ATOM      7  C   UNL     1       7.061   4.721  13.474  0.00  0.00    +0.000 A 
ATOM      8  C   UNL     1       5.928   4.022  13.859  0.00  0.00    +0.000 A 
ATOM      9  C   UNL     1       5.522   4.088  15.188  0.00  0.00    +0.000 A 
ATOM     10  C   UNL     1       6.270   4.843  16.082  0.00  0.00    +0.000 A 
ATOM     11  N   UNL     1       7.372   5.512  15.677  0.00  0.00    +0.000 NA
ATOM     12  N   UNL     1       7.770   5.448  14.364  0.00  0.00    +0.000 NA
ENDBRANCH   1  10
BRANCH   4  13
ATOM     13  C   UNL     1       3.645   4.661  20.244  0.00  0.00    +0.000 C 
BRANCH  13  14
ATOM     14  C   UNL     1       2.312   5.290  19.837  0.00  0.00    +0.000 C 
BRANCH  14  15
ATOM     15  C   UNL     1       2.392   6.822  19.715  0.00  0.00    +0.000 C 
ATOM     16  C   UNL     1       1.347   7.538  20.584  0.00  0.00    +0.000 C 
ATOM     17  C   UNL     1       1.382   9.050  20.373  0.00  0.00    +0.000 C 
ATOM     18  N   UNL     1       1.190   9.393  18.959  0.00  0.00    +0.000 NA
ATOM     19  C   UNL     1       1.184  10.847  18.787  0.00  0.00    +0.000 C 
ATOM     20  C   UNL     1       2.225   8.780  18.117  0.00  0.00    +0.000 C 
ATOM     21  C   UNL     1       2.215   7.255  18.253  0.00  0.00    +0.000 C 
ENDBRANCH  14  15
ENDBRANCH  13  14
ENDBRANCH   4  13
TORSDOF 4
ENDMDL
MODEL 6
REMARK VINA RESULT:      -7.3      0.935      1.188
REMARK  Name = 
REMARK  6 active torsions:
REMARK  status: ('A' for Active; 'I' for Inactive)
REMARK    1  A    between atoms: C_1  and  C_2
REMARK    2  A    between atoms: C_5  and  C_6
REMARK    3  A    between atoms: C_9  and  C_10
REMARK    4  A    between atoms: C_10  and  C_11
REMARK    5  A    between atoms: C_11  and  C_12
REMARK    6  A    between atoms: N_15  and  C_16
REMARK                            x       y       z     vdW  Elec       q    Type
REMARK                         _______ _______ _______ _____ _____    ______ ____
ROOT
ATOM      1  C   UNL     1       7.422   6.298  17.148  0.00  0.00    +0.000 A 
ATOM      2  N   UNL     1       7.701   5.729  18.334  0.00  0.00    +0.000 NA
ATOM      3  O   UNL     1       8.180   6.783  19.109  0.00  0.00    +0.000 OA
ATOM      4  C   UNL     1       8.159   7.887  18.313  0.00  0.00    +0.000 A 
ATOM      5  N   UNL     1       7.707   7.652  17.105  0.00  0.00    +0.000 NA
ENDROOT
BRANCH   1  10
ATOM      6  C   UNL     1       5.412   3.551  12.605  0.00  0.00    +0.000 C 
ATOM      7  C   UNL     1       5.874   4.274  13.828  0.00  0.00    +0.000 A 
ATOM      8  C   UNL     1       5.072   4.389  14.952  0.00  0.00    +0.000 A 
ATOM      9  C   UNL     1       5.568   5.068  16.059  0.00  0.00    +0.000 A 
ATOM     10  C   UNL     1       6.851   5.598  16.003  0.00  0.00    +0.000 A 
ATOM     11  N   UNL     1       7.611   5.467  14.894  0.00  0.00    +0.000 NA
ATOM     12  N   UNL     1       7.118   4.798  13.800  0.00  0.00    +0.000 NA
ENDBRANCH   1  10
BRANCH   4  13
ATOM     13  C   UNL     1       8.581   9.172  18.915  0.00  0.00    +0.000 C 
BRANCH  13  14
ATOM     14  C   UNL     1       8.903  10.233  17.862  0.00  0.00    +0.000 C 
BRANCH  14  15
ATOM     15  C   UNL     1      10.113  11.103  18.249  0.00  0.00    +0.000 C 
ATOM     16  C   UNL     1      10.045  11.592  19.704  0.00  0.00    +0.000 C 
ATOM     17  C   UNL     1      11.204  12.531  20.034  0.00  0.00    +0.000 C 
ATOM     18  N   UNL     1      11.242  13.673  19.114  0.00  0.00    +0.000 NA
ATOM     19  C   UNL     1      12.332  14.579  19.476  0.00  0.00    +0.000 C 
ATOM     20  C   UNL     1      11.383  13.229  17.721  0.00  0.00    +0.000 C 
ATOM     21  C   UNL     1      10.225  12.315  17.314  0.00  0.00    +0.000 C 
ENDBRANCH  14  15
ENDBRANCH  13  14
ENDBRANCH   4  13
TORSDOF 4
ENDMDL
MODEL 7
REMARK VINA RESULT:      -7.2      2.814      3.433
REMARK  Name = 
REMARK  6 active torsions:
REMARK  status: ('A' for Active; 'I' for Inactive)
REMARK    1  A    between atoms: C_1  and  C_2
REMARK    2  A    between atoms: C_5  and  C_6
REMARK    3  A    between atoms: C_9  and  C_10
REMARK    4  A    between atoms: C_10  and  C_11
REMARK    5  A    between atoms: C_11  and  C_12
REMARK    6  A    between atoms: N_15  and  C_16
REMARK                            x       y       z     vdW  Elec       q    Type
REMARK                         _______ _______ _______ _____ _____    ______ ____
ROOT
ATOM      1  C   UNL     1       5.855   5.847  17.368  0.00  0.00    +0.000 A 
ATOM      2  N   UNL     1       6.496   5.868  16.186  0.00  0.00    +0.000 NA
ATOM      3  O   UNL     1       7.541   6.768  16.386  0.00  0.00    +0.000 OA
ATOM      4  C   UNL     1       7.423   7.216  17.665  0.00  0.00    +0.000 A 
ATOM      5  N   UNL     1       6.412   6.691  18.313  0.00  0.00    +0.000 NA
ENDROOT
BRANCH   1  10
ATOM      6  C   UNL     1       1.414   2.457  18.376  0.00  0.00    +0.000 C 
ATOM      7  C   UNL     1       2.564   3.388  18.168  0.00  0.00    +0.000 A 
ATOM      8  C   UNL     1       2.943   4.304  19.137  0.00  0.00    +0.000 A 
ATOM      9  C   UNL     1       4.028   5.135  18.882  0.00  0.00    +0.000 A 
ATOM     10  C   UNL     1       4.698   5.012  17.671  0.00  0.00    +0.000 A 
ATOM     11  N   UNL     1       4.307   4.107  16.747  0.00  0.00    +0.000 NA
ATOM     12  N   UNL     1       3.233   3.289  17.000  0.00  0.00    +0.000 NA
ENDBRANCH   1  10
BRANCH   4  13
ATOM     13  C   UNL     1       8.451   8.163  18.156  0.00  0.00    +0.000 C 
BRANCH  13  14
ATOM     14  C   UNL     1       8.086   9.621  17.874  0.00  0.00    +0.000 C 
BRANCH  14  15
ATOM     15  C   UNL     1       9.200  10.600  18.284  0.00  0.00    +0.000 C 
ATOM     16  C   UNL     1       9.441  10.616  19.801  0.00  0.00    +0.000 C 
ATOM     17  C   UNL     1      10.482  11.664  20.193  0.00  0.00    +0.000 C 
ATOM     18  N   UNL     1      10.093  12.999  19.725  0.00  0.00    +0.000 NA
ATOM     19  C   UNL     1      11.082  13.992  20.148  0.00  0.00    +0.000 C 
ATOM     20  C   UNL     1       9.931  13.025  18.265  0.00  0.00    +0.000 C 
ATOM     21  C   UNL     1       8.867  12.022  17.811  0.00  0.00    +0.000 C 
ENDBRANCH  14  15
ENDBRANCH  13  14
ENDBRANCH   4  13
TORSDOF 4
ENDMDL
MODEL 8
REMARK VINA RESULT:      -7.0      2.798      8.874
REMARK  Name = 
REMARK  6 active torsions:
REMARK  status: ('A' for Active; 'I' for Inactive)
REMARK    1  A    between atoms: C_1  and  C_2
REMARK    2  A    between atoms: C_5  and  C_6
REMARK    3  A    between atoms: C_9  and  C_10
REMARK    4  A    between atoms: C_10  and  C_11
REMARK    5  A    between atoms: C_11  and  C_12
REMARK    6  A    between atoms: N_15  and  C_16
REMARK                            x       y       z     vdW  Elec       q    Type
REMARK                         _______ _______ _______ _____ _____    ______ ____
ROOT
ATOM      1  C   UNL     1       8.346   8.990  18.198  0.00  0.00    +0.000 A 
ATOM      2  N   UNL     1       7.502   8.862  17.158  0.00  0.00    +0.000 NA
ATOM      3  O   UNL     1       7.155   7.513  17.172  0.00  0.00    +0.000 OA
ATOM      4  C   UNL     1       7.833   6.951  18.209  0.00  0.00    +0.000 A 
ATOM      5  N   UNL     1       8.578   7.804  18.871  0.00  0.00    +0.000 NA
ENDROOT
BRANCH   1  10
ATOM      6  C   UNL     1      10.596  13.984  19.691  0.00  0.00    +0.000 C 
ATOM      7  C   UNL     1      10.042  12.639  19.351  0.00  0.00    +0.000 A 
ATOM      8  C   UNL     1      10.211  11.549  20.190  0.00  0.00    +0.000 A 
ATOM      9  C   UNL     1       9.661  10.327  19.816  0.00  0.00    +0.000 A 
ATOM     10  C   UNL     1       8.958  10.245  18.621  0.00  0.00    +0.000 A 
ATOM     11  N   UNL     1       8.809  11.326  17.824  0.00  0.00    +0.000 NA
ATOM     12  N   UNL     1       9.354  12.531  18.194  0.00  0.00    +0.000 NA
ENDBRANCH   1  10
BRANCH   4  13
ATOM     13  C   UNL     1       7.605   5.513  18.478  0.00  0.00    +0.000 C 
BRANCH  13  14
ATOM     14  C   UNL     1       6.670   4.868  17.454  0.00  0.00    +0.000 C 
BRANCH  14  15
ATOM     15  C   UNL     1       5.436   4.218  18.105  0.00  0.00    +0.000 C 
ATOM     16  C   UNL     1       4.399   3.755  17.070  0.00  0.00    +0.000 C 
ATOM     17  C   UNL     1       3.143   3.203  17.743  0.00  0.00    +0.000 C 
ATOM     18  N   UNL     1       2.550   4.191  18.651  0.00  0.00    +0.000 NA
ATOM     19  C   UNL     1       1.326   3.658  19.250  0.00  0.00    +0.000 C 
ATOM     20  C   UNL     1       3.501   4.593  19.696  0.00  0.00    +0.000 C 
ATOM     21  C   UNL     1       4.769   5.194  19.085  0.00  0.00    +0.000 C 
ENDBRANCH  14  15
ENDBRANCH  13  14
ENDBRANCH   4  13
TORSDOF 4
ENDMDL
MODEL 9
REMARK VINA RESULT:      -7.0      2.553      3.108
REMARK  Name = 
REMARK  6 active torsions:
REMARK  status: ('A' for Active; 'I' for Inactive)
REMARK    1  A    between atoms: C_1  and  C_2
REMARK    2  A    between atoms: C_5  and  C_6
REMARK    3  A    between atoms: C_9  and  C_10
REMARK    4  A    between atoms: C_10  and  C_11
REMARK    5  A    between atoms: C_11  and  C_12
REMARK    6  A    between atoms: N_15  and  C_16
REMARK                            x       y       z     vdW  Elec       q    Type
REMARK                         _______ _______ _______ _____ _____    ______ ____
ROOT
ATOM      1  C   UNL     1       6.450   6.313  18.193  0.00  0.00    +0.000 A 
ATOM      2  N   UNL     1       7.558   5.986  18.882  0.00  0.00    +0.000 NA
ATOM      3  O   UNL     1       8.402   7.079  18.702  0.00  0.00    +0.000 OA
ATOM      4  C   UNL     1       7.730   7.957  17.908  0.00  0.00    +0.000 A 
ATOM      5  N   UNL     1       6.535   7.543  17.565  0.00  0.00    +0.000 NA
ENDROOT
BRANCH   1  10
ATOM      6  C   UNL     1       1.659   3.295  17.793  0.00  0.00    +0.000 C 
ATOM      7  C   UNL     1       2.954   4.029  17.919  0.00  0.00    +0.000 A 
ATOM      8  C   UNL     1       4.157   3.360  18.072  0.00  0.00    +0.000 A 
ATOM      9  C   UNL     1       5.327   4.106  18.175  0.00  0.00    +0.000 A 
ATOM     10  C   UNL     1       5.249   5.491  18.112  0.00  0.00    +0.000 A 
ATOM     11  N   UNL     1       4.060   6.115  17.959  0.00  0.00    +0.000 NA
ATOM     12  N   UNL     1       2.905   5.377  17.861  0.00  0.00    +0.000 NA
ENDBRANCH   1  10
BRANCH   4  13
ATOM     13  C   UNL     1       8.395   9.243  17.595  0.00  0.00    +0.000 C 
BRANCH  13  14
ATOM     14  C   UNL     1       8.973   9.921  18.838  0.00  0.00    +0.000 C 
BRANCH  14  15
ATOM     15  C   UNL     1       9.939  11.068  18.491  0.00  0.00    +0.000 C 
ATOM     16  C   UNL     1      10.746  11.546  19.708  0.00  0.00    +0.000 C 
ATOM     17  C   UNL     1      11.625  12.747  19.362  0.00  0.00    +0.000 C 
ATOM     18  N   UNL     1      10.827  13.849  18.814  0.00  0.00    +0.000 NA
ATOM     19  C   UNL     1      11.683  15.002  18.530  0.00  0.00    +0.000 C 
ATOM     20  C   UNL     1      10.105  13.434  17.604  0.00  0.00    +0.000 C 
ATOM     21  C   UNL     1       9.172  12.256  17.895  0.00  0.00    +0.000 C 
ENDBRANCH  14  15
ENDBRANCH  13  14
ENDBRANCH   4  13
TORSDOF 4
ENDMDL
