MODEL 1
REMARK VINA RESULT:      -8.0      0.000      0.000
REMARK  Name = 
REMARK  5 active torsions:
REMARK  status: ('A' for Active; 'I' for Inactive)
REMARK    1  A    between atoms: C_2  and  C_5
REMARK    2  A    between atoms: N_3  and  O_4
REMARK    3  A    between atoms: N_9  and  C_10
REMARK    4  A    between atoms: C_13  and  N_14
REMARK    5  A    between atoms: C_17  and  C_18
REMARK                            x       y       z     vdW  Elec       q    Type
REMARK                         _______ _______ _______ _____ _____    ______ ____
ROOT
ATOM      1  C   UNL     1       0.418   9.929  20.205  0.00  0.00    +0.000 A 
ATOM      2  C   UNL     1       1.134   8.911  20.780  0.00  0.00    +0.000 A 
ATOM      3  N   UNL     1       1.897   8.055  20.069  0.00  0.00    +0.000 NA
ATOM      4  C   UNL     1       1.992   8.251  18.741  0.00  0.00    +0.000 A 
ATOM      5  N   UNL     1       2.789   7.402  17.979  0.00  0.00    +0.000 N 
ATOM      6  N   UNL     1       1.366   9.249  18.097  0.00  0.00    +0.000 NA
ATOM      7  C   UNL     1       0.579  10.059  18.843  0.00  0.00    +0.000 A 
ATOM      8  H   UNL     1       2.877   7.734  17.030  0.00  0.00    +0.000 HD
ENDROOT
BRANCH   5   9
ATOM      9  C   UNL     1       3.052   6.044  18.199  0.00  0.00    +0.000 A 
ATOM     10  C   UNL     1       4.288   5.507  17.826  0.00  0.00    +0.000 A 
ATOM     11  C   UNL     1       4.608   4.183  18.138  0.00  0.00    +0.000 A 
ATOM     12  C   UNL     1       3.669   3.383  18.806  0.00  0.00    +0.000 A 
ATOM     13  C   UNL     1       2.403   3.864  19.148  0.00  0.00    +0.000 A 
ATOM     14  C   UNL     1       2.125   5.208  18.845  0.00  0.00    +0.000 A 
BRANCH  13  15
ATOM     15  C   UNL     1       1.310   3.048  19.783  0.00  0.00    +0.000 C 
ATOM     16  F   UNL     1       0.757   2.090  19.000  0.00  0.00    +0.000 F 
ATOM     17  F   UNL     1       1.724   2.423  20.919  0.00  0.00    +0.000 F 
ATOM     18  F   UNL     1       0.266   3.840  20.164  0.00  0.00    +0.000 F 
ENDBRANCH  13  15
BRANCH  12  19
ATOM     19  N   UNL     1       4.090   2.044  19.177  0.00  0.00    +0.000 N 
ATOM     20  O   UNL     1       3.753   1.125  18.422  0.00  0.00    +0.000 OA
ATOM     21  O   UNL     1       4.790   1.943  20.192  0.00  0.00    +0.000 OA
ENDBRANCH  12  19
ENDBRANCH   5   9
BRANCH   1  23
ATOM     22  O   UNL     1      -1.156  11.642  20.499  0.00  0.00    +0.000 OA
ATOM     23  C   UNL     1      -0.407  10.822  21.023  0.00  0.00    +0.000 C 
ATOM     24  N   UNL     1      -0.258  10.720  22.388  0.00  0.00    +0.000 N 
ATOM     25  H   UNL     1       0.577  10.349  22.831  0.00  0.00    +0.000 HD
BRANCH  24  26
ATOM     26  O   UNL     1      -0.973  11.682  23.141  0.00  0.00    +0.000 OA
ATOM     27  H   UNL     1      -1.856  11.683  22.702  0.00  0.00    +0.000 HD
ENDBRANCH  24  26
ENDBRANCH   1  23
TORSDOF 5
ENDMDL
MODEL 2
REMARK VINA RESULT:      -7.9      0.099      1.011
REMARK  Name = 
REMARK  5 active torsions:
REMARK  status: ('A' for Active; 'I' for Inactive)
REMARK    1  A    between atoms: C_2  and  C_5
REMARK    2  A    between atoms: N_3  and  O_4
REMARK    3  A    between atoms: N_9  and  C_10
REMARK    4  A    between atoms: C_13  and  N_14
REMARK    5  A    between atoms: C_17  and  C_18
REMARK                            x       y       z     vdW  Elec       q    Type
REMARK                         _______ _______ _______ _____ _____    ______ ____
ROOT
ATOM      1  C   UNL     1       0.405   9.970  20.243  0.00  0.00    +0.000 A 
ATOM      2  C   UNL     1       1.119   8.948  20.814  0.00  0.00    +0.000 A 
ATOM      3  N   UNL     1       1.885   8.098  20.100  0.00  0.00    +0.000 NA
ATOM      4  C   UNL     1       1.985   8.302  18.773  0.00  0.00    +0.000 A 
ATOM      5  N   UNL     1       2.785   7.459  18.008  0.00  0.00    +0.000 N 
ATOM      6  N   UNL     1       1.360   9.304  18.133  0.00  0.00    +0.000 NA
ATOM      7  C   UNL     1       0.570  10.109  18.883  0.00  0.00    +0.000 A 
ATOM      8  H   UNL     1       2.876   7.798  17.061  0.00  0.00    +0.000 HD
ENDROOT
BRANCH   5   9
ATOM      9  C   UNL     1       3.048   6.100  18.220  0.00  0.00    +0.000 A 
ATOM     10  C   UNL     1       4.252   5.547  17.771  0.00  0.00    +0.000 A 
ATOM     11  C   UNL     1       4.579   4.222  18.070  0.00  0.00    +0.000 A 
ATOM     12  C   UNL     1       3.678   3.437  18.805  0.00  0.00    +0.000 A 
ATOM     13  C   UNL     1       2.442   3.933  19.225  0.00  0.00    +0.000 A 
ATOM     14  C   UNL     1       2.158   5.278  18.932  0.00  0.00    +0.000 A 
BRANCH  13  15
ATOM     15  C   UNL     1       1.385   3.133  19.937  0.00  0.00    +0.000 C 
ATOM     16  F   UNL     1       1.775   2.535  21.090  0.00  0.00    +0.000 F 
ATOM     17  F   UNL     1       0.290   3.879  20.243  0.00  0.00    +0.000 F 
ATOM     18  F   UNL     1       0.925   2.117  19.151  0.00  0.00    +0.000 F 
ENDBRANCH  13  15
BRANCH  12  19
ATOM     19  N   UNL     1       4.109   2.096  19.157  0.00  0.00    +0.000 N 
ATOM     20  O   UNL     1       4.744   1.974  20.210  0.00  0.00    +0.000 OA
ATOM     21  O   UNL     1       3.763   1.184  18.397  0.00  0.00    +0.000 OA
ENDBRANCH  12  19
ENDBRANCH   5   9
BRANCH   1  23
ATOM     22  O   UNL     1      -1.167  11.683  20.543  0.00  0.00    +0.000 OA
ATOM     23  C   UNL     1      -0.424  10.857  21.064  0.00  0.00    +0.000 C 
ATOM     24  N   UNL     1      -0.285  10.740  22.429  0.00  0.00    +0.000 N 
ATOM     25  H   UNL     1       0.545  10.363  22.874  0.00  0.00    +0.000 HD
BRANCH  24  26
ATOM     26  O   UNL     1      -1.003  11.696  23.186  0.00  0.00    +0.000 OA
ATOM     27  H   UNL     1      -1.734  11.947  22.575  0.00  0.00    +0.000 HD
ENDBRANCH  24  26
ENDBRANCH   1  23
TORSDOF 5
ENDMDL
MODEL 3
REMARK VINA RESULT:      -7.9      0.896      1.298
REMARK  Name = 
REMARK  5 active torsions:
REMARK  status: ('A' for Active; 'I' for Inactive)
REMARK    1  A    between atoms: C_2  and  C_5
REMARK    2  A    between atoms: N_3  and  O_4
REMARK    3  A    between atoms: N_9  and  C_10
REMARK    4  A    between atoms: C_13  and  N_14
REMARK    5  A    between atoms: C_17  and  C_18
REMARK                            x       y       z     vdW  Elec       q    Type
REMARK                         _______ _______ _______ _____ _____    ______ ____
ROOT
ATOM      1  C   UNL     1       0.462  10.008  19.538  0.00  0.00    +0.000 A 
ATOM      2  C   UNL     1       1.056   8.991  20.241  0.00  0.00    +0.000 A 
ATOM      3  N   UNL     1       1.896   8.099  19.677  0.00  0.00    +0.000 NA
ATOM      4  C   UNL     1       2.197   8.254  18.374  0.00  0.00    +0.000 A 
ATOM      5  N   UNL     1       3.078   7.366  17.764  0.00  0.00    +0.000 N 
ATOM      6  N   UNL     1       1.702   9.246  17.617  0.00  0.00    +0.000 NA
ATOM      7  C   UNL     1       0.832  10.095  18.214  0.00  0.00    +0.000 A 
ATOM      8  H   UNL     1       3.317   7.669  16.831  0.00  0.00    +0.000 HD
ENDROOT
BRANCH   5   9
ATOM      9  C   UNL     1       3.269   6.010  18.056  0.00  0.00    +0.000 A 
ATOM     10  C   UNL     1       4.469   5.385  17.699  0.00  0.00    +0.000 A 
ATOM     11  C   UNL     1       4.720   4.065  18.079  0.00  0.00    +0.000 A 
ATOM     12  C   UNL     1       3.750   3.356  18.803  0.00  0.00    +0.000 A 
ATOM     13  C   UNL     1       2.517   3.924  19.133  0.00  0.00    +0.000 A 
ATOM     14  C   UNL     1       2.309   5.264  18.759  0.00  0.00    +0.000 A 
BRANCH  13  15
ATOM     15  C   UNL     1       1.391   3.207  19.826  0.00  0.00    +0.000 C 
ATOM     16  F   UNL     1       1.739   2.471  20.910  0.00  0.00    +0.000 F 
ATOM     17  F   UNL     1       0.412   4.057  20.238  0.00  0.00    +0.000 F 
ATOM     18  F   UNL     1       0.778   2.326  18.983  0.00  0.00    +0.000 F 
ENDBRANCH  13  15
BRANCH  12  19
ATOM     19  N   UNL     1       4.102   2.019  19.242  0.00  0.00    +0.000 N 
ATOM     20  O   UNL     1       3.691   1.079  18.552  0.00  0.00    +0.000 OA
ATOM     21  O   UNL     1       4.824   1.935  20.244  0.00  0.00    +0.000 OA
ENDBRANCH  12  19
ENDBRANCH   5   9
BRANCH   1  23
ATOM     22  O   UNL     1      -0.315  11.224  21.385  0.00  0.00    +0.000 OA
ATOM     23  C   UNL     1      -0.454  10.942  20.198  0.00  0.00    +0.000 C 
ATOM     24  N   UNL     1      -1.486  11.437  19.434  0.00  0.00    +0.000 N 
ATOM     25  H   UNL     1      -1.844  10.965  18.609  0.00  0.00    +0.000 HD
BRANCH  24  26
ATOM     26  O   UNL     1      -2.421  12.233  20.136  0.00  0.00    +0.000 OA
ATOM     27  H   UNL     1      -2.313  13.115  19.709  0.00  0.00    +0.000 HD
ENDBRANCH  24  26
ENDBRANCH   1  23
TORSDOF 5
ENDMDL
MODEL 4
REMARK VINA RESULT:      -7.9      3.694      8.147
REMARK  Name = 
REMARK  5 active torsions:
REMARK  status: ('A' for Active; 'I' for Inactive)
REMARK    1  A    between atoms: C_2  and  C_5
REMARK    2  A    between atoms: N_3  and  O_4
REMARK    3  A    between atoms: N_9  and  C_10
REMARK    4  A    between atoms: C_13  and  N_14
REMARK    5  A    between atoms: C_17  and  C_18
REMARK                            x       y       z     vdW  Elec       q    Type
REMARK                         _______ _______ _______ _____ _____    ______ ____
ROOT
ATOM      1  C   UNL     1       5.568   5.015  15.704  0.00  0.00    +0.000 A 
ATOM      2  C   UNL     1       5.450   6.329  16.081  0.00  0.00    +0.000 A 
ATOM      3  N   UNL     1       4.649   6.736  17.087  0.00  0.00    +0.000 NA
ATOM      4  C   UNL     1       3.979   5.795  17.779  0.00  0.00    +0.000 A 
ATOM      5  N   UNL     1       3.162   6.177  18.839  0.00  0.00    +0.000 N 
ATOM      6  N   UNL     1       4.068   4.482  17.513  0.00  0.00    +0.000 NA
ATOM      7  C   UNL     1       4.852   4.122  16.469  0.00  0.00    +0.000 A 
ATOM      8  H   UNL     1       2.825   5.374  19.350  0.00  0.00    +0.000 HD
ENDROOT
BRANCH   5   9
ATOM      9  C   UNL     1       2.433   7.365  18.976  0.00  0.00    +0.000 A 
ATOM     10  C   UNL     1       2.190   8.164  17.854  0.00  0.00    +0.000 A 
ATOM     11  C   UNL     1       1.373   9.293  17.952  0.00  0.00    +0.000 A 
ATOM     12  C   UNL     1       0.814   9.638  19.192  0.00  0.00    +0.000 A 
ATOM     13  C   UNL     1       1.075   8.898  20.348  0.00  0.00    +0.000 A 
ATOM     14  C   UNL     1       1.879   7.752  20.207  0.00  0.00    +0.000 A 
BRANCH  13  15
ATOM     15  C   UNL     1       0.590   9.248  21.728  0.00  0.00    +0.000 C 
ATOM     16  F   UNL     1       0.461  10.572  21.989  0.00  0.00    +0.000 F 
ATOM     17  F   UNL     1      -0.613   8.682  22.014  0.00  0.00    +0.000 F 
ATOM     18  F   UNL     1       1.447   8.782  22.683  0.00  0.00    +0.000 F 
ENDBRANCH  13  15
BRANCH  12  19
ATOM     19  N   UNL     1      -0.093  10.770  19.214  0.00  0.00    +0.000 N 
ATOM     20  O   UNL     1       0.420  11.895  19.210  0.00  0.00    +0.000 OA
ATOM     21  O   UNL     1      -1.302  10.513  19.187  0.00  0.00    +0.000 OA
ENDBRANCH  12  19
ENDBRANCH   5   9
BRANCH   1  23
ATOM     22  O   UNL     1       7.493   5.228  14.384  0.00  0.00    +0.000 OA
ATOM     23  C   UNL     1       6.442   4.629  14.593  0.00  0.00    +0.000 C 
ATOM     24  N   UNL     1       5.999   3.604  13.788  0.00  0.00    +0.000 N 
ATOM     25  H   UNL     1       5.020   3.351  13.696  0.00  0.00    +0.000 HD
BRANCH  24  26
ATOM     26  O   UNL     1       6.805   3.344  12.654  0.00  0.00    +0.000 OA
ATOM     27  H   UNL     1       7.300   2.536  12.925  0.00  0.00    +0.000 HD
ENDBRANCH  24  26
ENDBRANCH   1  23
TORSDOF 5
ENDMDL
MODEL 5
REMARK VINA RESULT:      -7.7      3.740      8.142
REMARK  Name = 
REMARK  5 active torsions:
REMARK  status: ('A' for Active; 'I' for Inactive)
REMARK    1  A    between atoms: C_2  and  C_5
REMARK    2  A    between atoms: N_3  and  O_4
REMARK    3  A    between atoms: N_9  and  C_10
REMARK    4  A    between atoms: C_13  and  N_14
REMARK    5  A    between atoms: C_17  and  C_18
REMARK                            x       y       z     vdW  Elec       q    Type
REMARK                         _______ _______ _______ _____ _____    ______ ____
ROOT
ATOM      1  C   UNL     1       5.597   5.026  15.696  0.00  0.00    +0.000 A 
ATOM      2  C   UNL     1       5.457   6.348  16.033  0.00  0.00    +0.000 A 
ATOM      3  N   UNL     1       4.665   6.770  17.041  0.00  0.00    +0.000 NA
ATOM      4  C   UNL     1       4.027   5.838  17.773  0.00  0.00    +0.000 A 
ATOM      5  N   UNL     1       3.220   6.236  18.835  0.00  0.00    +0.000 N 
ATOM      6  N   UNL     1       4.141   4.519  17.548  0.00  0.00    +0.000 NA
ATOM      7  C   UNL     1       4.914   4.143  16.502  0.00  0.00    +0.000 A 
ATOM      8  H   UNL     1       2.910   5.443  19.377  0.00  0.00    +0.000 HD
ENDROOT
BRANCH   5   9
ATOM      9  C   UNL     1       2.468   7.411  18.948  0.00  0.00    +0.000 A 
ATOM     10  C   UNL     1       2.210   8.183  17.810  0.00  0.00    +0.000 A 
ATOM     11  C   UNL     1       1.370   9.297  17.884  0.00  0.00    +0.000 A 
ATOM     12  C   UNL     1       0.805   9.656  19.117  0.00  0.00    +0.000 A 
ATOM     13  C   UNL     1       1.081   8.946  20.288  0.00  0.00    +0.000 A 
ATOM     14  C   UNL     1       1.907   7.814  20.171  0.00  0.00    +0.000 A 
BRANCH  13  15
ATOM     15  C   UNL     1       0.589   9.316  21.661  0.00  0.00    +0.000 C 
ATOM     16  F   UNL     1       1.233   8.725  22.697  0.00  0.00    +0.000 F 
ATOM     17  F   UNL     1       0.647  10.656  21.888  0.00  0.00    +0.000 F 
ATOM     18  F   UNL     1      -0.723   8.976  21.820  0.00  0.00    +0.000 F 
ENDBRANCH  13  15
BRANCH  12  19
ATOM     19  N   UNL     1      -0.124  10.771  19.116  0.00  0.00    +0.000 N 
ATOM     20  O   UNL     1      -1.328  10.492  19.122  0.00  0.00    +0.000 OA
ATOM     21  O   UNL     1       0.369  11.904  19.156  0.00  0.00    +0.000 OA
ENDBRANCH  12  19
ENDBRANCH   5   9
BRANCH   1  23
ATOM     22  O   UNL     1       7.493   5.240  14.333  0.00  0.00    +0.000 OA
ATOM     23  C   UNL     1       6.461   4.623  14.583  0.00  0.00    +0.000 C 
ATOM     24  N   UNL     1       6.029   3.561  13.821  0.00  0.00    +0.000 N 
ATOM     25  H   UNL     1       5.055   3.281  13.757  0.00  0.00    +0.000 HD
BRANCH  24  26
ATOM     26  O   UNL     1       6.821   3.282  12.682  0.00  0.00    +0.000 OA
ATOM     27  H   UNL     1       6.150   2.986  12.024  0.00  0.00    +0.000 HD
ENDBRANCH  24  26
ENDBRANCH   1  23
TORSDOF 5
ENDMDL
MODEL 6
REMARK VINA RESULT:      -7.7      0.931      1.038
REMARK  Name = 
REMARK  5 active torsions:
REMARK  status: ('A' for Active; 'I' for Inactive)
REMARK    1  A    between atoms: C_2  and  C_5
REMARK    2  A    between atoms: N_3  and  O_4
REMARK    3  A    between atoms: N_9  and  C_10
REMARK    4  A    between atoms: C_13  and  N_14
REMARK    5  A    between atoms: C_17  and  C_18
REMARK                            x       y       z     vdW  Elec       q    Type
REMARK                         _______ _______ _______ _____ _____    ______ ____
ROOT
ATOM      1  C   UNL     1       0.166   9.980  21.157  0.00  0.00    +0.000 A 
ATOM      2  C   UNL     1       1.016   8.972  21.533  0.00  0.00    +0.000 A 
ATOM      3  N   UNL     1       1.714   8.230  20.649  0.00  0.00    +0.000 NA
ATOM      4  C   UNL     1       1.603   8.536  19.343  0.00  0.00    +0.000 A 
ATOM      5  N   UNL     1       2.327   7.808  18.405  0.00  0.00    +0.000 N 
ATOM      6  N   UNL     1       0.833   9.536  18.884  0.00  0.00    +0.000 NA
ATOM      7  C   UNL     1       0.118  10.228  19.803  0.00  0.00    +0.000 A 
ATOM      8  H   UNL     1       2.256   8.220  17.486  0.00  0.00    +0.000 HD
ENDROOT
BRANCH   5   9
ATOM      9  C   UNL     1       2.697   6.458  18.465  0.00  0.00    +0.000 A 
ATOM     10  C   UNL     1       3.844   6.022  17.794  0.00  0.00    +0.000 A 
ATOM     11  C   UNL     1       4.288   4.705  17.933  0.00  0.00    +0.000 A 
ATOM     12  C   UNL     1       3.561   3.810  18.732  0.00  0.00    +0.000 A 
ATOM     13  C   UNL     1       2.381   4.190  19.376  0.00  0.00    +0.000 A 
ATOM     14  C   UNL     1       1.979   5.530  19.237  0.00  0.00    +0.000 A 
BRANCH  13  15
ATOM     15  C   UNL     1       1.497   3.272  20.176  0.00  0.00    +0.000 C 
ATOM     16  F   UNL     1       1.014   2.193  19.513  0.00  0.00    +0.000 F 
ATOM     17  F   UNL     1       2.119   2.793  21.287  0.00  0.00    +0.000 F 
ATOM     18  F   UNL     1       0.392   3.930  20.633  0.00  0.00    +0.000 F 
ENDBRANCH  13  15
BRANCH  12  19
ATOM     19  N   UNL     1       4.117   2.481  18.906  0.00  0.00    +0.000 N 
ATOM     20  O   UNL     1       3.780   1.624  18.082  0.00  0.00    +0.000 OA
ATOM     21  O   UNL     1       4.918   2.332  19.836  0.00  0.00    +0.000 OA
ENDBRANCH  12  19
ENDBRANCH   5   9
BRANCH   1  23
ATOM     22  O   UNL     1      -0.368  10.587  23.357  0.00  0.00    +0.000 OA
ATOM     23  C   UNL     1      -0.580  10.746  22.159  0.00  0.00    +0.000 C 
ATOM     24  N   UNL     1      -1.546  11.605  21.684  0.00  0.00    +0.000 N 
ATOM     25  H   UNL     1      -1.994  11.494  20.780  0.00  0.00    +0.000 HD
BRANCH  24  26
ATOM     26  O   UNL     1      -2.331  12.231  22.681  0.00  0.00    +0.000 OA
ATOM     27  H   UNL     1      -2.692  11.463  23.182  0.00  0.00    +0.000 HD
ENDBRANCH  24  26
ENDBRANCH   1  23
TORSDOF 5
ENDMDL
MODEL 7
REMARK VINA RESULT:      -7.5      1.931      2.765
REMARK  Name = 
REMARK  5 active torsions:
REMARK  status: ('A' for Active; 'I' for Inactive)
REMARK    1  A    between atoms: C_2  and  C_5
REMARK    2  A    between atoms: N_3  and  O_4
REMARK    3  A    between atoms: N_9  and  C_10
REMARK    4  A    between atoms: C_13  and  N_14
REMARK    5  A    between atoms: C_17  and  C_18
REMARK                            x       y       z     vdW  Elec       q    Type
REMARK                         _______ _______ _______ _____ _____    ______ ____
ROOT
ATOM      1  C   UNL     1      -0.347  11.580  20.505  0.00  0.00    +0.000 A 
ATOM      2  C   UNL     1      -0.714  10.417  19.877  0.00  0.00    +0.000 A 
ATOM      3  N   UNL     1      -0.083   9.242  20.077  0.00  0.00    +0.000 NA
ATOM      4  C   UNL     1       0.921   9.211  20.974  0.00  0.00    +0.000 A 
ATOM      5  N   UNL     1       1.579   8.011  21.223  0.00  0.00    +0.000 N 
ATOM      6  N   UNL     1       1.319  10.287  21.671  0.00  0.00    +0.000 NA
ATOM      7  C   UNL     1       0.684  11.454  21.409  0.00  0.00    +0.000 A 
ATOM      8  H   UNL     1       2.215   8.096  22.003  0.00  0.00    +0.000 HD
ENDROOT
BRANCH   5   9
ATOM      9  C   UNL     1       1.815   6.959  20.329  0.00  0.00    +0.000 A 
ATOM     10  C   UNL     1       2.431   7.218  19.100  0.00  0.00    +0.000 A 
ATOM     11  C   UNL     1       2.772   6.167  18.244  0.00  0.00    +0.000 A 
ATOM     12  C   UNL     1       2.471   4.848  18.613  0.00  0.00    +0.000 A 
ATOM     13  C   UNL     1       1.808   4.551  19.806  0.00  0.00    +0.000 A 
ATOM     14  C   UNL     1       1.504   5.629  20.656  0.00  0.00    +0.000 A 
BRANCH  13  15
ATOM     15  C   UNL     1       1.370   3.176  20.233  0.00  0.00    +0.000 C 
ATOM     16  F   UNL     1       0.894   3.076  21.499  0.00  0.00    +0.000 F 
ATOM     17  F   UNL     1       0.407   2.664  19.420  0.00  0.00    +0.000 F 
ATOM     18  F   UNL     1       2.406   2.290  20.173  0.00  0.00    +0.000 F 
ENDBRANCH  13  15
BRANCH  12  19
ATOM     19  N   UNL     1       2.926   3.795  17.724  0.00  0.00    +0.000 N 
ATOM     20  O   UNL     1       2.111   3.377  16.893  0.00  0.00    +0.000 OA
ATOM     21  O   UNL     1       4.105   3.440  17.841  0.00  0.00    +0.000 OA
ENDBRANCH  12  19
ENDBRANCH   5   9
BRANCH   1  23
ATOM     22  O   UNL     1      -2.209  12.998  20.640  0.00  0.00    +0.000 OA
ATOM     23  C   UNL     1      -1.060  12.833  20.240  0.00  0.00    +0.000 C 
ATOM     24  N   UNL     1      -0.392  13.775  19.491  0.00  0.00    +0.000 N 
ATOM     25  H   UNL     1       0.364  13.546  18.853  0.00  0.00    +0.000 HD
BRANCH  24  26
ATOM     26  O   UNL     1      -1.155  14.916  19.149  0.00  0.00    +0.000 OA
ATOM     27  H   UNL     1      -1.345  15.318  20.029  0.00  0.00    +0.000 HD
ENDBRANCH  24  26
ENDBRANCH   1  23
TORSDOF 5
ENDMDL
MODEL 8
REMARK VINA RESULT:      -7.4      3.608      8.097
REMARK  Name = 
REMARK  5 active torsions:
REMARK  status: ('A' for Active; 'I' for Inactive)
REMARK    1  A    between atoms: C_2  and  C_5
REMARK    2  A    between atoms: N_3  and  O_4
REMARK    3  A    between atoms: N_9  and  C_10
REMARK    4  A    between atoms: C_13  and  N_14
REMARK    5  A    between atoms: C_17  and  C_18
REMARK                            x       y       z     vdW  Elec       q    Type
REMARK                         _______ _______ _______ _____ _____    ______ ____
ROOT
ATOM      1  C   UNL     1       5.494   5.167  15.710  0.00  0.00    +0.000 A 
ATOM      2  C   UNL     1       5.415   6.456  16.173  0.00  0.00    +0.000 A 
ATOM      3  N   UNL     1       4.577   6.832  17.161  0.00  0.00    +0.000 NA
ATOM      4  C   UNL     1       3.825   5.880  17.746  0.00  0.00    +0.000 A 
ATOM      5  N   UNL     1       2.967   6.228  18.784  0.00  0.00    +0.000 N 
ATOM      6  N   UNL     1       3.869   4.586  17.392  0.00  0.00    +0.000 NA
ATOM      7  C   UNL     1       4.694   4.260  16.369  0.00  0.00    +0.000 A 
ATOM      8  H   UNL     1       2.564   5.410  19.217  0.00  0.00    +0.000 HD
ENDROOT
BRANCH   5   9
ATOM      9  C   UNL     1       2.287   7.439  18.967  0.00  0.00    +0.000 A 
ATOM     10  C   UNL     1       2.037   8.268  17.868  0.00  0.00    +0.000 A 
ATOM     11  C   UNL     1       1.266   9.423  18.014  0.00  0.00    +0.000 A 
ATOM     12  C   UNL     1       0.761   9.764  19.277  0.00  0.00    +0.000 A 
ATOM     13  C   UNL     1       1.032   8.993  20.410  0.00  0.00    +0.000 A 
ATOM     14  C   UNL     1       1.788   7.822  20.222  0.00  0.00    +0.000 A 
BRANCH  13  15
ATOM     15  C   UNL     1       0.605   9.335  21.812  0.00  0.00    +0.000 C 
ATOM     16  F   UNL     1       1.380   8.831  22.804  0.00  0.00    +0.000 F 
ATOM     17  F   UNL     1       0.540  10.678  22.020  0.00  0.00    +0.000 F 
ATOM     18  F   UNL     1      -0.650   8.865  22.071  0.00  0.00    +0.000 F 
ENDBRANCH  13  15
BRANCH  12  19
ATOM     19  N   UNL     1      -0.103  10.928  19.349  0.00  0.00    +0.000 N 
ATOM     20  O   UNL     1       0.449  12.034  19.323  0.00  0.00    +0.000 OA
ATOM     21  O   UNL     1      -1.321  10.714  19.383  0.00  0.00    +0.000 OA
ENDBRANCH  12  19
ENDBRANCH   5   9
BRANCH   1  23
ATOM     22  O   UNL     1       6.233   3.803  13.952  0.00  0.00    +0.000 OA
ATOM     23  C   UNL     1       6.412   4.815  14.623  0.00  0.00    +0.000 C 
ATOM     24  N   UNL     1       7.493   5.647  14.436  0.00  0.00    +0.000 N 
ATOM     25  H   UNL     1       7.870   6.244  15.166  0.00  0.00    +0.000 HD
BRANCH  24  26
ATOM     26  O   UNL     1       8.424   5.208  13.465  0.00  0.00    +0.000 OA
ATOM     27  H   UNL     1       8.921   6.034  13.257  0.00  0.00    +0.000 HD
ENDBRANCH  24  26
ENDBRANCH   1  23
TORSDOF 5
ENDMDL
MODEL 9
REMARK VINA RESULT:      -7.4      3.630      4.272
REMARK  Name = 
REMARK  5 active torsions:
REMARK  status: ('A' for Active; 'I' for Inactive)
REMARK    1  A    between atoms: C_2  and  C_5
REMARK    2  A    between atoms: N_3  and  O_4
REMARK    3  A    between atoms: N_9  and  C_10
REMARK    4  A    between atoms: C_13  and  N_14
REMARK    5  A    between atoms: C_17  and  C_18
REMARK                            x       y       z     vdW  Elec       q    Type
REMARK                         _______ _______ _______ _____ _____    ______ ____
ROOT
ATOM      1  C   UNL     1       0.892   9.753  19.900  0.00  0.00    +0.000 A 
ATOM      2  C   UNL     1       1.396   9.288  18.712  0.00  0.00    +0.000 A 
ATOM      3  N   UNL     1       2.023   8.100  18.595  0.00  0.00    +0.000 NA
ATOM      4  C   UNL     1       2.108   7.321  19.689  0.00  0.00    +0.000 A 
ATOM      5  N   UNL     1       2.727   6.078  19.599  0.00  0.00    +0.000 N 
ATOM      6  N   UNL     1       1.602   7.671  20.883  0.00  0.00    +0.000 NA
ATOM      7  C   UNL     1       1.017   8.889  20.965  0.00  0.00    +0.000 A 
ATOM      8  H   UNL     1       2.607   5.546  20.449  0.00  0.00    +0.000 HD
ENDROOT
BRANCH   5   9
ATOM      9  C   UNL     1       3.790   5.707  18.767  0.00  0.00    +0.000 A 
ATOM     10  C   UNL     1       3.529   5.245  17.472  0.00  0.00    +0.000 A 
ATOM     11  C   UNL     1       4.580   4.975  16.592  0.00  0.00    +0.000 A 
ATOM     12  C   UNL     1       5.904   5.146  17.021  0.00  0.00    +0.000 A 
ATOM     13  C   UNL     1       6.209   5.554  18.322  0.00  0.00    +0.000 A 
ATOM     14  C   UNL     1       5.128   5.843  19.172  0.00  0.00    +0.000 A 
BRANCH  13  15
ATOM     15  C   UNL     1       7.598   5.676  18.887  0.00  0.00    +0.000 C 
ATOM     16  F   UNL     1       8.274   6.802  18.554  0.00  0.00    +0.000 F 
ATOM     17  F   UNL     1       7.611   5.608  20.246  0.00  0.00    +0.000 F 
ATOM     18  F   UNL     1       8.392   4.649  18.465  0.00  0.00    +0.000 F 
ENDBRANCH  13  15
BRANCH  12  19
ATOM     19  N   UNL     1       6.949   4.932  16.036  0.00  0.00    +0.000 N 
ATOM     20  O   UNL     1       7.096   3.777  15.622  0.00  0.00    +0.000 OA
ATOM     21  O   UNL     1       7.571   5.933  15.661  0.00  0.00    +0.000 OA
ENDBRANCH  12  19
ENDBRANCH   5   9
BRANCH   1  23
ATOM     22  O   UNL     1       0.811  12.030  20.453  0.00  0.00    +0.000 OA
ATOM     23  C   UNL     1       0.231  11.059  19.974  0.00  0.00    +0.000 C 
ATOM     24  N   UNL     1      -1.069  11.118  19.527  0.00  0.00    +0.000 N 
ATOM     25  H   UNL     1      -1.681  10.309  19.483  0.00  0.00    +0.000 HD
BRANCH  24  26
ATOM     26  O   UNL     1      -1.716  12.361  19.732  0.00  0.00    +0.000 OA
ATOM     27  H   UNL     1      -1.769  12.414  20.715  0.00  0.00    +0.000 HD
ENDBRANCH  24  26
ENDBRANCH   1  23
TORSDOF 5
ENDMDL
