MODEL 1
REMARK VINA RESULT:     -10.1      0.000      0.000
REMARK  Name = 
REMARK  3 active torsions:
REMARK  status: ('A' for Active; 'I' for Inactive)
REMARK    1  A    between atoms: N_1  and  C_2
REMARK    2  A    between atoms: C_7  and  N_8
REMARK    3  A    between atoms: N_8  and  C_9
REMARK                            x       y       z     vdW  Elec       q    Type
REMARK                         _______ _______ _______ _____ _____    ______ ____
ROOT
ATOM      1  C   UNL     1       5.523   5.424  16.076  0.00  0.00    +0.000 A 
ATOM      2  C   UNL     1       5.215   6.736  16.451  0.00  0.00    +0.000 A 
ATOM      3  C   UNL     1       4.185   6.983  17.368  0.00  0.00    +0.000 A 
ATOM      4  C   UNL     1       3.417   5.924  17.851  0.00  0.00    +0.000 A 
ATOM      5  C   UNL     1       2.595   6.148  19.096  0.00  0.00    +0.000 A 
ATOM      6  O   UNL     1       2.420   7.278  19.545  0.00  0.00    +0.000 OA
ATOM      7  C   UNL     1       2.090   4.975  19.884  0.00  0.00    +0.000 A 
ATOM      8  C   UNL     1       2.645   4.699  21.126  0.00  0.00    +0.000 A 
ATOM      9  C   UNL     1       2.297   3.515  21.784  0.00  0.00    +0.000 A 
ATOM     10  C   UNL     1       1.316   2.667  21.256  0.00  0.00    +0.000 A 
ATOM     11  C   UNL     1       0.765   2.927  20.004  0.00  0.00    +0.000 A 
ATOM     12  C   UNL     1       1.239   4.021  19.281  0.00  0.00    +0.000 A 
ATOM     13  C   UNL     1       1.322   3.927  17.811  0.00  0.00    +0.000 A 
ATOM     14  C   UNL     1       2.590   3.555  17.527  0.00  0.00    +0.000 A 
ATOM     15  C   UNL     1       3.535   4.655  17.250  0.00  0.00    +0.000 A 
ATOM     16  C   UNL     1       4.640   4.399  16.437  0.00  0.00    +0.000 A 
ENDROOT
BRANCH   1  17
ATOM     17  N   UNL     1       6.671   5.144  15.304  0.00  0.00    +0.000 N 
ATOM     18  H   UNL     1       7.391   4.644  15.823  0.00  0.00    +0.000 HD
BRANCH  17  24
ATOM     19  C   UNL     1       7.641   5.073  13.066  0.00  0.00    +0.000 A 
ATOM     20  C   UNL     1       7.689   4.531  11.778  0.00  0.00    +0.000 A 
ATOM     21  C   UNL     1       6.739   3.593  11.368  0.00  0.00    +0.000 A 
ATOM     22  C   UNL     1       5.774   3.140  12.265  0.00  0.00    +0.000 A 
ATOM     23  C   UNL     1       5.741   3.645  13.566  0.00  0.00    +0.000 A 
ATOM     24  C   UNL     1       6.653   4.633  13.970  0.00  0.00    +0.000 A 
BRANCH  19  25
ATOM     25  N   UNL     1       8.690   5.900  13.524  0.00  0.00    +0.000 N 
ATOM     26  H   UNL     1       9.532   5.815  12.964  0.00  0.00    +0.000 HD
ATOM     27  H   UNL     1       8.364   6.863  13.592  0.00  0.00    +0.000 HD
ENDBRANCH  19  25
ENDBRANCH  17  24
ENDBRANCH   1  17
TORSDOF 3
ENDMDL
MODEL 2
REMARK VINA RESULT:      -8.8      1.716      2.280
REMARK  Name = 
REMARK  3 active torsions:
REMARK  status: ('A' for Active; 'I' for Inactive)
REMARK    1  A    between atoms: N_1  and  C_2
REMARK    2  A    between atoms: C_7  and  N_8
REMARK    3  A    between atoms: N_8  and  C_9
REMARK                            x       y       z     vdW  Elec       q    Type
REMARK                         _______ _______ _______ _____ _____    ______ ____
ROOT
ATOM      1  C   UNL     1       6.350   5.342  16.401  0.00  0.00    +0.000 A 
ATOM      2  C   UNL     1       7.141   4.634  17.312  0.00  0.00    +0.000 A 
ATOM      3  C   UNL     1       6.567   4.083  18.464  0.00  0.00    +0.000 A 
ATOM      4  C   UNL     1       5.218   4.304  18.742  0.00  0.00    +0.000 A 
ATOM      5  C   UNL     1       4.540   3.408  19.747  0.00  0.00    +0.000 A 
ATOM      6  O   UNL     1       5.193   2.659  20.471  0.00  0.00    +0.000 OA
ATOM      7  C   UNL     1       3.043   3.319  19.786  0.00  0.00    +0.000 A 
ATOM      8  C   UNL     1       2.418   2.157  19.353  0.00  0.00    +0.000 A 
ATOM      9  C   UNL     1       1.025   2.135  19.229  0.00  0.00    +0.000 A 
ATOM     10  C   UNL     1       0.254   3.228  19.641  0.00  0.00    +0.000 A 
ATOM     11  C   UNL     1       0.871   4.402  20.062  0.00  0.00    +0.000 A 
ATOM     12  C   UNL     1       2.264   4.474  20.027  0.00  0.00    +0.000 A 
ATOM     13  C   UNL     1       2.907   5.760  19.698  0.00  0.00    +0.000 A 
ATOM     14  C   UNL     1       3.161   5.729  18.371  0.00  0.00    +0.000 A 
ATOM     15  C   UNL     1       4.504   5.255  17.986  0.00  0.00    +0.000 A 
ATOM     16  C   UNL     1       5.048   5.695  16.777  0.00  0.00    +0.000 A 
ENDROOT
BRANCH   1  17
ATOM     17  N   UNL     1       6.868   5.741  15.151  0.00  0.00    +0.000 N 
ATOM     18  H   UNL     1       7.820   6.099  15.207  0.00  0.00    +0.000 HD
BRANCH  17  24
ATOM     19  C   UNL     1       7.707   5.195  12.925  0.00  0.00    +0.000 A 
ATOM     20  C   UNL     1       7.654   4.422  11.761  0.00  0.00    +0.000 A 
ATOM     21  C   UNL     1       6.635   3.484  11.580  0.00  0.00    +0.000 A 
ATOM     22  C   UNL     1       5.700   3.266  12.589  0.00  0.00    +0.000 A 
ATOM     23  C   UNL     1       5.766   4.005  13.771  0.00  0.00    +0.000 A 
ATOM     24  C   UNL     1       6.749   4.993  13.940  0.00  0.00    +0.000 A 
BRANCH  19  25
ATOM     25  N   UNL     1       8.821   6.027  13.170  0.00  0.00    +0.000 N 
ATOM     26  H   UNL     1       9.452   6.085  12.378  0.00  0.00    +0.000 HD
ATOM     27  H   UNL     1       8.504   6.945  13.481  0.00  0.00    +0.000 HD
ENDBRANCH  19  25
ENDBRANCH  17  24
ENDBRANCH   1  17
TORSDOF 3
ENDMDL
MODEL 3
REMARK VINA RESULT:      -8.5      4.983      7.776
REMARK  Name = 
REMARK  3 active torsions:
REMARK  status: ('A' for Active; 'I' for Inactive)
REMARK    1  A    between atoms: N_1  and  C_2
REMARK    2  A    between atoms: C_7  and  N_8
REMARK    3  A    between atoms: N_8  and  C_9
REMARK                            x       y       z     vdW  Elec       q    Type
REMARK                         _______ _______ _______ _____ _____    ______ ____
ROOT
ATOM      1  C   UNL     1       1.080   9.616  18.740  0.00  0.00    +0.000 A 
ATOM      2  C   UNL     1       2.125   9.497  17.818  0.00  0.00    +0.000 A 
ATOM      3  C   UNL     1       2.821   8.288  17.695  0.00  0.00    +0.000 A 
ATOM      4  C   UNL     1       2.521   7.225  18.546  0.00  0.00    +0.000 A 
ATOM      5  C   UNL     1       2.990   5.845  18.157  0.00  0.00    +0.000 A 
ATOM      6  O   UNL     1       3.803   5.685  17.249  0.00  0.00    +0.000 OA
ATOM      7  C   UNL     1       2.368   4.634  18.786  0.00  0.00    +0.000 A 
ATOM      8  C   UNL     1       1.539   3.820  18.026  0.00  0.00    +0.000 A 
ATOM      9  C   UNL     1       0.826   2.793  18.652  0.00  0.00    +0.000 A 
ATOM     10  C   UNL     1       1.026   2.508  20.008  0.00  0.00    +0.000 A 
ATOM     11  C   UNL     1       1.843   3.328  20.782  0.00  0.00    +0.000 A 
ATOM     12  C   UNL     1       2.420   4.449  20.187  0.00  0.00    +0.000 A 
ATOM     13  C   UNL     1       2.597   5.674  20.989  0.00  0.00    +0.000 A 
ATOM     14  C   UNL     1       1.520   6.451  20.737  0.00  0.00    +0.000 A 
ATOM     15  C   UNL     1       1.684   7.444  19.658  0.00  0.00    +0.000 A 
ATOM     16  C   UNL     1       0.908   8.604  19.693  0.00  0.00    +0.000 A 
ENDROOT
BRANCH   1  17
ATOM     17  N   UNL     1       0.249  10.757  18.749  0.00  0.00    +0.000 N 
ATOM     18  H   UNL     1       0.687  11.575  18.326  0.00  0.00    +0.000 HD
BRANCH  17  24
ATOM     19  C   UNL     1      -1.993  11.678  19.038  0.00  0.00    +0.000 A 
ATOM     20  C   UNL     1      -3.335  11.754  18.654  0.00  0.00    +0.000 A 
ATOM     21  C   UNL     1      -3.839  10.901  17.670  0.00  0.00    +0.000 A 
ATOM     22  C   UNL     1      -2.990  10.012  17.015  0.00  0.00    +0.000 A 
ATOM     23  C   UNL     1      -1.639   9.955  17.363  0.00  0.00    +0.000 A 
ATOM     24  C   UNL     1      -1.134  10.764  18.392  0.00  0.00    +0.000 A 
BRANCH  19  25
ATOM     25  N   UNL     1      -1.454  12.642  19.918  0.00  0.00    +0.000 N 
ATOM     26  H   UNL     1      -1.020  13.420  19.433  0.00  0.00    +0.000 HD
ATOM     27  H   UNL     1      -2.170  12.946  20.576  0.00  0.00    +0.000 HD
ENDBRANCH  19  25
ENDBRANCH  17  24
ENDBRANCH   1  17
TORSDOF 3
ENDMDL
MODEL 4
REMARK VINA RESULT:      -8.3      0.803      1.445
REMARK  Name = 
REMARK  3 active torsions:
REMARK  status: ('A' for Active; 'I' for Inactive)
REMARK    1  A    between atoms: N_1  and  C_2
REMARK    2  A    between atoms: C_7  and  N_8
REMARK    3  A    between atoms: N_8  and  C_9
REMARK                            x       y       z     vdW  Elec       q    Type
REMARK                         _______ _______ _______ _____ _____    ______ ____
ROOT
ATOM      1  C   UNL     1       5.867   5.030  16.206  0.00  0.00    +0.000 A 
ATOM      2  C   UNL     1       5.582   6.372  16.478  0.00  0.00    +0.000 A 
ATOM      3  C   UNL     1       4.495   6.709  17.294  0.00  0.00    +0.000 A 
ATOM      4  C   UNL     1       3.650   5.709  17.774  0.00  0.00    +0.000 A 
ATOM      5  C   UNL     1       2.743   6.036  18.934  0.00  0.00    +0.000 A 
ATOM      6  O   UNL     1       2.578   7.198  19.301  0.00  0.00    +0.000 OA
ATOM      7  C   UNL     1       2.133   4.933  19.746  0.00  0.00    +0.000 A 
ATOM      8  C   UNL     1       2.578   4.714  21.043  0.00  0.00    +0.000 A 
ATOM      9  C   UNL     1       2.133   3.585  21.738  0.00  0.00    +0.000 A 
ATOM     10  C   UNL     1       1.165   2.740  21.184  0.00  0.00    +0.000 A 
ATOM     11  C   UNL     1       0.724   2.942  19.879  0.00  0.00    +0.000 A 
ATOM     12  C   UNL     1       1.295   3.973  19.133  0.00  0.00    +0.000 A 
ATOM     13  C   UNL     1       1.489   3.786  17.683  0.00  0.00    +0.000 A 
ATOM     14  C   UNL     1       2.760   3.354  17.523  0.00  0.00    +0.000 A 
ATOM     15  C   UNL     1       3.765   4.402  17.260  0.00  0.00    +0.000 A 
ATOM     16  C   UNL     1       4.919   4.059  16.554  0.00  0.00    +0.000 A 
ENDROOT
BRANCH   1  17
ATOM     17  N   UNL     1       7.060   4.664  15.546  0.00  0.00    +0.000 N 
ATOM     18  H   UNL     1       7.426   3.763  15.851  0.00  0.00    +0.000 HD
BRANCH  17  24
ATOM     19  C   UNL     1       6.668   3.843  13.281  0.00  0.00    +0.000 A 
ATOM     20  C   UNL     1       6.812   3.978  11.897  0.00  0.00    +0.000 A 
ATOM     21  C   UNL     1       7.596   5.002  11.363  0.00  0.00    +0.000 A 
ATOM     22  C   UNL     1       8.188   5.940  12.206  0.00  0.00    +0.000 A 
ATOM     23  C   UNL     1       8.019   5.838  13.588  0.00  0.00    +0.000 A 
ATOM     24  C   UNL     1       7.283   4.777  14.140  0.00  0.00    +0.000 A 
BRANCH  19  25
ATOM     25  N   UNL     1       5.753   2.905  13.808  0.00  0.00    +0.000 N 
ATOM     26  H   UNL     1       4.786   3.182  13.679  0.00  0.00    +0.000 HD
ATOM     27  H   UNL     1       5.948   1.981  13.423  0.00  0.00    +0.000 HD
ENDBRANCH  19  25
ENDBRANCH  17  24
ENDBRANCH   1  17
TORSDOF 3
ENDMDL
MODEL 5
REMARK VINA RESULT:      -8.2      4.137      6.535
REMARK  Name = 
REMARK  3 active torsions:
REMARK  status: ('A' for Active; 'I' for Inactive)
REMARK    1  A    between atoms: N_1  and  C_2
REMARK    2  A    between atoms: C_7  and  N_8
REMARK    3  A    between atoms: N_8  and  C_9
REMARK                            x       y       z     vdW  Elec       q    Type
REMARK                         _______ _______ _______ _____ _____    ______ ____
ROOT
ATOM      1  C   UNL     1       2.954   6.778  18.458  0.00  0.00    +0.000 A 
ATOM      2  C   UNL     1       2.594   6.572  19.794  0.00  0.00    +0.000 A 
ATOM      3  C   UNL     1       1.773   7.496  20.452  0.00  0.00    +0.000 A 
ATOM      4  C   UNL     1       1.374   8.661  19.797  0.00  0.00    +0.000 A 
ATOM      5  C   UNL     1       0.208   9.432  20.361  0.00  0.00    +0.000 A 
ATOM      6  O   UNL     1      -0.236   9.184  21.481  0.00  0.00    +0.000 OA
ATOM      7  C   UNL     1      -0.519  10.428  19.506  0.00  0.00    +0.000 A 
ATOM      8  C   UNL     1      -1.804  10.141  19.066  0.00  0.00    +0.000 A 
ATOM      9  C   UNL     1      -2.413  10.987  18.134  0.00  0.00    +0.000 A 
ATOM     10  C   UNL     1      -1.789  12.173  17.730  0.00  0.00    +0.000 A 
ATOM     11  C   UNL     1      -0.495  12.462  18.154  0.00  0.00    +0.000 A 
ATOM     12  C   UNL     1       0.170  11.532  18.952  0.00  0.00    +0.000 A 
ATOM     13  C   UNL     1       1.627  11.363  18.793  0.00  0.00    +0.000 A 
ATOM     14  C   UNL     1       1.798  10.327  17.942  0.00  0.00    +0.000 A 
ATOM     15  C   UNL     1       1.975   9.003  18.570  0.00  0.00    +0.000 A 
ATOM     16  C   UNL     1       2.687   8.023  17.876  0.00  0.00    +0.000 A 
ENDROOT
BRANCH   1  17
ATOM     17  N   UNL     1       3.621   5.772  17.726  0.00  0.00    +0.000 N 
ATOM     18  H   UNL     1       4.609   5.973  17.578  0.00  0.00    +0.000 HD
BRANCH  17  24
ATOM     19  C   UNL     1       4.499   3.701  18.673  0.00  0.00    +0.000 A 
ATOM     20  C   UNL     1       4.354   2.344  18.972  0.00  0.00    +0.000 A 
ATOM     21  C   UNL     1       3.236   1.636  18.526  0.00  0.00    +0.000 A 
ATOM     22  C   UNL     1       2.223   2.296  17.834  0.00  0.00    +0.000 A 
ATOM     23  C   UNL     1       2.339   3.660  17.564  0.00  0.00    +0.000 A 
ATOM     24  C   UNL     1       3.486   4.369  17.954  0.00  0.00    +0.000 A 
BRANCH  19  25
ATOM     25  N   UNL     1       5.549   4.445  19.255  0.00  0.00    +0.000 N 
ATOM     26  H   UNL     1       6.460   4.022  19.108  0.00  0.00    +0.000 HD
ATOM     27  H   UNL     1       5.512   5.409  18.927  0.00  0.00    +0.000 HD
ENDBRANCH  19  25
ENDBRANCH  17  24
ENDBRANCH   1  17
TORSDOF 3
ENDMDL
MODEL 6
REMARK VINA RESULT:      -8.1      5.102      7.906
REMARK  Name = 
REMARK  3 active torsions:
REMARK  status: ('A' for Active; 'I' for Inactive)
REMARK    1  A    between atoms: N_1  and  C_2
REMARK    2  A    between atoms: C_7  and  N_8
REMARK    3  A    between atoms: N_8  and  C_9
REMARK                            x       y       z     vdW  Elec       q    Type
REMARK                         _______ _______ _______ _____ _____    ______ ____
ROOT
ATOM      1  C   UNL     1       1.060   9.711  18.810  0.00  0.00    +0.000 A 
ATOM      2  C   UNL     1       2.095   9.601  17.876  0.00  0.00    +0.000 A 
ATOM      3  C   UNL     1       2.788   8.393  17.731  0.00  0.00    +0.000 A 
ATOM      4  C   UNL     1       2.495   7.319  18.572  0.00  0.00    +0.000 A 
ATOM      5  C   UNL     1       2.957   5.944  18.161  0.00  0.00    +0.000 A 
ATOM      6  O   UNL     1       3.760   5.793  17.242  0.00  0.00    +0.000 OA
ATOM      7  C   UNL     1       2.339   4.727  18.781  0.00  0.00    +0.000 A 
ATOM      8  C   UNL     1       1.501   3.924  18.020  0.00  0.00    +0.000 A 
ATOM      9  C   UNL     1       0.792   2.890  18.641  0.00  0.00    +0.000 A 
ATOM     10  C   UNL     1       1.005   2.588  19.991  0.00  0.00    +0.000 A 
ATOM     11  C   UNL     1       1.832   3.396  20.767  0.00  0.00    +0.000 A 
ATOM     12  C   UNL     1       2.406   4.524  20.179  0.00  0.00    +0.000 A 
ATOM     13  C   UNL     1       2.593   5.739  20.994  0.00  0.00    +0.000 A 
ATOM     14  C   UNL     1       1.515   6.521  20.763  0.00  0.00    +0.000 A 
ATOM     15  C   UNL     1       1.670   7.527  19.695  0.00  0.00    +0.000 A 
ATOM     16  C   UNL     1       0.896   8.688  19.752  0.00  0.00    +0.000 A 
ENDROOT
BRANCH   1  17
ATOM     17  N   UNL     1       0.232  10.854  18.841  0.00  0.00    +0.000 N 
ATOM     18  H   UNL     1      -0.670  10.683  19.282  0.00  0.00    +0.000 HD
BRANCH  17  24
ATOM     19  C   UNL     1       0.098  13.273  18.544  0.00  0.00    +0.000 A 
ATOM     20  C   UNL     1       0.448  14.567  18.939  0.00  0.00    +0.000 A 
ATOM     21  C   UNL     1       1.383  14.770  19.955  0.00  0.00    +0.000 A 
ATOM     22  C   UNL     1       1.927  13.679  20.630  0.00  0.00    +0.000 A 
ATOM     23  C   UNL     1       1.555  12.382  20.271  0.00  0.00    +0.000 A 
ATOM     24  C   UNL     1       0.662  12.165  19.211  0.00  0.00    +0.000 A 
BRANCH  19  25
ATOM     25  N   UNL     1      -0.958  13.074  17.628  0.00  0.00    +0.000 N 
ATOM     26  H   UNL     1      -1.866  13.024  18.077  0.00  0.00    +0.000 HD
ATOM     27  H   UNL     1      -0.923  13.789  16.902  0.00  0.00    +0.000 HD
ENDBRANCH  19  25
ENDBRANCH  17  24
ENDBRANCH   1  17
TORSDOF 3
ENDMDL
MODEL 7
REMARK VINA RESULT:      -8.0      3.945      5.905
REMARK  Name = 
REMARK  3 active torsions:
REMARK  status: ('A' for Active; 'I' for Inactive)
REMARK    1  A    between atoms: N_1  and  C_2
REMARK    2  A    between atoms: C_7  and  N_8
REMARK    3  A    between atoms: N_8  and  C_9
REMARK                            x       y       z     vdW  Elec       q    Type
REMARK                         _______ _______ _______ _____ _____    ______ ____
ROOT
ATOM      1  C   UNL     1       2.798   6.293  18.546  0.00  0.00    +0.000 A 
ATOM      2  C   UNL     1       2.518   6.181  19.912  0.00  0.00    +0.000 A 
ATOM      3  C   UNL     1       1.824   7.201  20.574  0.00  0.00    +0.000 A 
ATOM      4  C   UNL     1       1.477   8.365  19.887  0.00  0.00    +0.000 A 
ATOM      5  C   UNL     1       0.421   9.259  20.486  0.00  0.00    +0.000 A 
ATOM      6  O   UNL     1       0.038   9.101  21.644  0.00  0.00    +0.000 OA
ATOM      7  C   UNL     1      -0.279  10.273  19.630  0.00  0.00    +0.000 A 
ATOM      8  C   UNL     1      -1.611  10.077  19.292  0.00  0.00    +0.000 A 
ATOM      9  C   UNL     1      -2.212  10.928  18.360  0.00  0.00    +0.000 A 
ATOM     10  C   UNL     1      -1.522  12.036  17.854  0.00  0.00    +0.000 A 
ATOM     11  C   UNL     1      -0.182  12.233  18.175  0.00  0.00    +0.000 A 
ATOM     12  C   UNL     1       0.459  11.286  18.975  0.00  0.00    +0.000 A 
ATOM     13  C   UNL     1       1.882  10.986  18.729  0.00  0.00    +0.000 A 
ATOM     14  C   UNL     1       1.906   9.901  17.924  0.00  0.00    +0.000 A 
ATOM     15  C   UNL     1       2.017   8.597  18.607  0.00  0.00    +0.000 A 
ATOM     16  C   UNL     1       2.595   7.528  17.920  0.00  0.00    +0.000 A 
ENDROOT
BRANCH   1  17
ATOM     17  N   UNL     1       3.327   5.201  17.825  0.00  0.00    +0.000 N 
ATOM     18  H   UNL     1       2.676   4.821  17.139  0.00  0.00    +0.000 HD
BRANCH  17  24
ATOM     19  C   UNL     1       5.659   4.499  17.985  0.00  0.00    +0.000 A 
ATOM     20  C   UNL     1       6.932   4.374  17.422  0.00  0.00    +0.000 A 
ATOM     21  C   UNL     1       7.212   4.929  16.172  0.00  0.00    +0.000 A 
ATOM     22  C   UNL     1       6.202   5.556  15.445  0.00  0.00    +0.000 A 
ATOM     23  C   UNL     1       4.916   5.652  15.981  0.00  0.00    +0.000 A 
ATOM     24  C   UNL     1       4.639   5.152  17.262  0.00  0.00    +0.000 A 
BRANCH  19  25
ATOM     25  N   UNL     1       5.340   3.806  19.174  0.00  0.00    +0.000 N 
ATOM     26  H   UNL     1       4.346   3.806  19.376  0.00  0.00    +0.000 HD
ATOM     27  H   UNL     1       5.729   2.864  19.138  0.00  0.00    +0.000 HD
ENDBRANCH  19  25
ENDBRANCH  17  24
ENDBRANCH   1  17
TORSDOF 3
ENDMDL
MODEL 8
REMARK VINA RESULT:      -8.0      4.297      7.337
REMARK  Name = 
REMARK  3 active torsions:
REMARK  status: ('A' for Active; 'I' for Inactive)
REMARK    1  A    between atoms: N_1  and  C_2
REMARK    2  A    between atoms: C_7  and  N_8
REMARK    3  A    between atoms: N_8  and  C_9
REMARK                            x       y       z     vdW  Elec       q    Type
REMARK                         _______ _______ _______ _____ _____    ______ ____
ROOT
ATOM      1  C   UNL     1       2.174   8.963  18.099  0.00  0.00    +0.000 A 
ATOM      2  C   UNL     1       3.323   8.588  17.395  0.00  0.00    +0.000 A 
ATOM      3  C   UNL     1       3.829   7.288  17.513  0.00  0.00    +0.000 A 
ATOM      4  C   UNL     1       3.229   6.387  18.393  0.00  0.00    +0.000 A 
ATOM      5  C   UNL     1       3.531   4.919  18.226  0.00  0.00    +0.000 A 
ATOM      6  O   UNL     1       4.444   4.538  17.497  0.00  0.00    +0.000 OA
ATOM      7  C   UNL     1       2.629   3.891  18.844  0.00  0.00    +0.000 A 
ATOM      8  C   UNL     1       1.817   3.116  18.027  0.00  0.00    +0.000 A 
ATOM      9  C   UNL     1       0.857   2.282  18.609  0.00  0.00    +0.000 A 
ATOM     10  C   UNL     1       0.785   2.137  19.999  0.00  0.00    +0.000 A 
ATOM     11  C   UNL     1       1.584   2.920  20.827  0.00  0.00    +0.000 A 
ATOM     12  C   UNL     1       2.422   3.870  20.242  0.00  0.00    +0.000 A 
ATOM     13  C   UNL     1       2.658   5.146  20.944  0.00  0.00    +0.000 A 
ATOM     14  C   UNL     1       1.774   6.030  20.431  0.00  0.00    +0.000 A 
ATOM     15  C   UNL     1       2.268   6.853  19.310  0.00  0.00    +0.000 A 
ATOM     16  C   UNL     1       1.691   8.107  19.096  0.00  0.00    +0.000 A 
ENDROOT
BRANCH   1  17
ATOM     17  N   UNL     1       1.546  10.202  17.851  0.00  0.00    +0.000 N 
ATOM     18  H   UNL     1       1.172  10.279  16.906  0.00  0.00    +0.000 HD
BRANCH  17  24
ATOM     19  C   UNL     1      -0.739  10.848  18.415  0.00  0.00    +0.000 A 
ATOM     20  C   UNL     1      -1.659  11.410  19.306  0.00  0.00    +0.000 A 
ATOM     21  C   UNL     1      -1.224  12.009  20.489  0.00  0.00    +0.000 A 
ATOM     22  C   UNL     1       0.128  11.992  20.824  0.00  0.00    +0.000 A 
ATOM     23  C   UNL     1       1.051  11.400  19.961  0.00  0.00    +0.000 A 
ATOM     24  C   UNL     1       0.634  10.848  18.740  0.00  0.00    +0.000 A 
BRANCH  19  25
ATOM     25  N   UNL     1      -1.194  10.110  17.301  0.00  0.00    +0.000 N 
ATOM     26  H   UNL     1      -1.116  10.624  16.429  0.00  0.00    +0.000 HD
ATOM     27  H   UNL     1      -0.717   9.210  17.265  0.00  0.00    +0.000 HD
ENDBRANCH  19  25
ENDBRANCH  17  24
ENDBRANCH   1  17
TORSDOF 3
ENDMDL
MODEL 9
REMARK VINA RESULT:      -8.0      4.508      7.415
REMARK  Name = 
REMARK  3 active torsions:
REMARK  status: ('A' for Active; 'I' for Inactive)
REMARK    1  A    between atoms: N_1  and  C_2
REMARK    2  A    between atoms: C_7  and  N_8
REMARK    3  A    between atoms: N_8  and  C_9
REMARK                            x       y       z     vdW  Elec       q    Type
REMARK                         _______ _______ _______ _____ _____    ______ ____
ROOT
ATOM      1  C   UNL     1       1.648   9.304  18.376  0.00  0.00    +0.000 A 
ATOM      2  C   UNL     1       2.721   9.023  17.524  0.00  0.00    +0.000 A 
ATOM      3  C   UNL     1       3.299   7.747  17.516  0.00  0.00    +0.000 A 
ATOM      4  C   UNL     1       2.852   6.777  18.412  0.00  0.00    +0.000 A 
ATOM      5  C   UNL     1       3.200   5.336  18.136  0.00  0.00    +0.000 A 
ATOM      6  O   UNL     1       4.037   5.037  17.286  0.00  0.00    +0.000 OA
ATOM      7  C   UNL     1       2.429   4.235  18.802  0.00  0.00    +0.000 A 
ATOM      8  C   UNL     1       1.563   3.456  18.047  0.00  0.00    +0.000 A 
ATOM      9  C   UNL     1       0.720   2.546  18.693  0.00  0.00    +0.000 A 
ATOM     10  C   UNL     1       0.821   2.334  20.073  0.00  0.00    +0.000 A 
ATOM     11  C   UNL     1       1.676   3.121  20.841  0.00  0.00    +0.000 A 
ATOM     12  C   UNL     1       2.392   4.139  20.212  0.00  0.00    +0.000 A 
ATOM     13  C   UNL     1       2.649   5.393  20.946  0.00  0.00    +0.000 A 
ATOM     14  C   UNL     1       1.669   6.251  20.586  0.00  0.00    +0.000 A 
ATOM     15  C   UNL     1       1.986   7.150  19.459  0.00  0.00    +0.000 A 
ATOM     16  C   UNL     1       1.328   8.379  19.378  0.00  0.00    +0.000 A 
ENDROOT
BRANCH   1  17
ATOM     17  N   UNL     1       0.936  10.518  18.267  0.00  0.00    +0.000 N 
ATOM     18  H   UNL     1      -0.060  10.384  18.103  0.00  0.00    +0.000 HD
BRANCH  17  24
ATOM     19  C   UNL     1       1.991  12.661  18.768  0.00  0.00    +0.000 A 
ATOM     20  C   UNL     1       2.106  13.801  19.568  0.00  0.00    +0.000 A 
ATOM     21  C   UNL     1       1.374  13.914  20.751  0.00  0.00    +0.000 A 
ATOM     22  C   UNL     1       0.471  12.916  21.110  0.00  0.00    +0.000 A 
ATOM     23  C   UNL     1       0.318  11.791  20.299  0.00  0.00    +0.000 A 
ATOM     24  C   UNL     1       1.093  11.638  19.139  0.00  0.00    +0.000 A 
BRANCH  19  25
ATOM     25  N   UNL     1       2.612  12.620  17.500  0.00  0.00    +0.000 N 
ATOM     26  H   UNL     1       2.573  11.702  17.071  0.00  0.00    +0.000 HD
ATOM     27  H   UNL     1       2.220  13.346  16.901  0.00  0.00    +0.000 HD
ENDBRANCH  19  25
ENDBRANCH  17  24
ENDBRANCH   1  17
TORSDOF 3
ENDMDL
