MODEL 1
REMARK VINA RESULT:      -7.3      0.000      0.000
REMARK  Name = 
REMARK  9 active torsions:
REMARK  status: ('A' for Active; 'I' for Inactive)
REMARK    1  A    between atoms: C_1  and  C_2
REMARK    2  A    between atoms: C_2  and  O_3
REMARK    3  A    between atoms: O_3  and  C_4
REMARK    4  A    between atoms: C_4  and  C_6
REMARK    5  A    between atoms: C_8  and  O_9
REMARK    6  A    between atoms: C_11  and  C_12
REMARK    7  A    between atoms: C_12  and  N_13
REMARK    8  A    between atoms: N_13  and  C_14
REMARK    9  A    between atoms: C_19  and  C_20
REMARK                            x       y       z     vdW  Elec       q    Type
REMARK                         _______ _______ _______ _____ _____    ______ ____
ROOT
ATOM      1  C   UNL     1       6.355   3.848  12.752  0.00  0.00    +0.000 A 
ATOM      2  N   UNL     1       7.359   4.642  12.241  0.00  0.00    +0.000 N 
ATOM      3  C   UNL     1       7.957   5.282  13.289  0.00  0.00    +0.000 A 
ATOM      4  N   UNL     1       7.426   4.938  14.431  0.00  0.00    +0.000 NA
ATOM      5  C   UNL     1       6.430   4.034  14.121  0.00  0.00    +0.000 A 
ATOM      6  H   UNL     1       7.601   4.719  11.264  0.00  0.00    +0.000 HD
ENDROOT
BRANCH   1   7
ATOM      7  C   UNL     1       5.477   2.996  12.008  0.00  0.00    +0.000 C 
ATOM      8  O   UNL     1       5.746   1.868  11.625  0.00  0.00    +0.000 OA
BRANCH   7   9
ATOM      9  O   UNL     1       4.340   3.680  11.699  0.00  0.00    +0.000 OA
BRANCH   9  11
ATOM     10  C   UNL     1       2.989   4.128   9.790  0.00  0.00    +0.000 C 
ATOM     11  C   UNL     1       3.531   3.042  10.702  0.00  0.00    +0.000 C 
ENDBRANCH   9  11
ENDBRANCH   7   9
ENDBRANCH   1   7
BRANCH   3  12
ATOM     12  O   UNL     1       8.947   6.148  13.183  0.00  0.00    +0.000 OA
ATOM     13  H   UNL     1       9.047   6.414  12.259  0.00  0.00    +0.000 HD
ENDBRANCH   3  12
BRANCH   5  14
ATOM     14  C   UNL     1       5.584   3.431  15.206  0.00  0.00    +0.000 C 
BRANCH  14  15
ATOM     15  N   UNL     1       5.753   3.973  16.561  0.00  0.00    +0.000 N 
ATOM     16  H   UNL     1       6.153   3.279  17.192  0.00  0.00    +0.000 HD
BRANCH  15  17
ATOM     17  C   UNL     1       4.689   4.695  17.135  0.00  0.00    +0.000 A 
ATOM     18  C   UNL     1       3.424   4.104  17.324  0.00  0.00    +0.000 A 
ATOM     19  C   UNL     1       2.342   4.810  17.858  0.00  0.00    +0.000 A 
ATOM     20  C   UNL     1       2.484   6.147  18.194  0.00  0.00    +0.000 A 
ATOM     21  C   UNL     1       3.699   6.782  17.959  0.00  0.00    +0.000 A 
ATOM     22  C   UNL     1       4.793   6.078  17.409  0.00  0.00    +0.000 A 
BRANCH  22  23
ATOM     23  C   UNL     1       5.993   6.818  17.140  0.00  0.00    +0.000 C 
ATOM     24  N   UNL     1       6.950   7.444  16.919  0.00  0.00    +0.000 NA
ENDBRANCH  22  23
ENDBRANCH  15  17
ENDBRANCH  14  15
ENDBRANCH   5  14
TORSDOF 8
ENDMDL
MODEL 2
REMARK VINA RESULT:      -7.2      3.125      4.502
REMARK  Name = 
REMARK  9 active torsions:
REMARK  status: ('A' for Active; 'I' for Inactive)
REMARK    1  A    between atoms: C_1  and  C_2
REMARK    2  A    between atoms: C_2  and  O_3
REMARK    3  A    between atoms: O_3  and  C_4
REMARK    4  A    between atoms: C_4  and  C_6
REMARK    5  A    between atoms: C_8  and  O_9
REMARK    6  A    between atoms: C_11  and  C_12
REMARK    7  A    between atoms: C_12  and  N_13
REMARK    8  A    between atoms: N_13  and  C_14
REMARK    9  A    between atoms: C_19  and  C_20
REMARK                            x       y       z     vdW  Elec       q    Type
REMARK                         _______ _______ _______ _____ _____    ______ ____
ROOT
ATOM      1  C   UNL     1       6.433   5.589  17.141  0.00  0.00    +0.000 A 
ATOM      2  N   UNL     1       7.257   6.113  18.114  0.00  0.00    +0.000 N 
ATOM      3  C   UNL     1       7.104   5.357  19.240  0.00  0.00    +0.000 A 
ATOM      4  N   UNL     1       6.264   4.376  19.053  0.00  0.00    +0.000 NA
ATOM      5  C   UNL     1       5.841   4.493  17.744  0.00  0.00    +0.000 A 
ATOM      6  H   UNL     1       7.865   6.910  17.995  0.00  0.00    +0.000 HD
ENDROOT
BRANCH   1   7
ATOM      7  C   UNL     1       6.284   6.066  15.799  0.00  0.00    +0.000 C 
ATOM      8  O   UNL     1       5.316   6.674  15.370  0.00  0.00    +0.000 OA
BRANCH   7   9
ATOM      9  O   UNL     1       7.340   5.640  15.051  0.00  0.00    +0.000 OA
BRANCH   9  11
ATOM     10  C   UNL     1       7.753   5.163  12.754  0.00  0.00    +0.000 C 
ATOM     11  C   UNL     1       6.976   4.745  13.991  0.00  0.00    +0.000 C 
ENDBRANCH   9  11
ENDBRANCH   7   9
ENDBRANCH   1   7
BRANCH   3  12
ATOM     12  O   UNL     1       7.715   5.576  20.390  0.00  0.00    +0.000 OA
ATOM     13  H   UNL     1       8.020   4.736  20.758  0.00  0.00    +0.000 HD
ENDBRANCH   3  12
BRANCH   5  14
ATOM     14  C   UNL     1       4.840   3.527  17.177  0.00  0.00    +0.000 C 
BRANCH  14  15
ATOM     15  N   UNL     1       3.436   3.958  17.157  0.00  0.00    +0.000 N 
ATOM     16  H   UNL     1       3.320   4.823  16.629  0.00  0.00    +0.000 HD
BRANCH  15  17
ATOM     17  C   UNL     1       2.709   3.943  18.362  0.00  0.00    +0.000 A 
ATOM     18  C   UNL     1       2.162   2.748  18.871  0.00  0.00    +0.000 A 
ATOM     19  C   UNL     1       1.406   2.712  20.047  0.00  0.00    +0.000 A 
ATOM     20  C   UNL     1       1.145   3.884  20.738  0.00  0.00    +0.000 A 
ATOM     21  C   UNL     1       1.611   5.092  20.231  0.00  0.00    +0.000 A 
ATOM     22  C   UNL     1       2.366   5.136  19.038  0.00  0.00    +0.000 A 
BRANCH  22  23
ATOM     23  C   UNL     1       2.759   6.428  18.547  0.00  0.00    +0.000 C 
ATOM     24  N   UNL     1       3.102   7.462  18.137  0.00  0.00    +0.000 NA
ENDBRANCH  22  23
ENDBRANCH  15  17
ENDBRANCH  14  15
ENDBRANCH   5  14
TORSDOF 8
ENDMDL
MODEL 3
REMARK VINA RESULT:      -7.2      3.060      4.550
REMARK  Name = 
REMARK  9 active torsions:
REMARK  status: ('A' for Active; 'I' for Inactive)
REMARK    1  A    between atoms: C_1  and  C_2
REMARK    2  A    between atoms: C_2  and  O_3
REMARK    3  A    between atoms: O_3  and  C_4
REMARK    4  A    between atoms: C_4  and  C_6
REMARK    5  A    between atoms: C_8  and  O_9
REMARK    6  A    between atoms: C_11  and  C_12
REMARK    7  A    between atoms: C_12  and  N_13
REMARK    8  A    between atoms: N_13  and  C_14
REMARK    9  A    between atoms: C_19  and  C_20
REMARK                            x       y       z     vdW  Elec       q    Type
REMARK                         _______ _______ _______ _____ _____    ______ ____
ROOT
ATOM      1  C   UNL     1       6.867   5.106  16.902  0.00  0.00    +0.000 A 
ATOM      2  N   UNL     1       7.831   5.086  17.888  0.00  0.00    +0.000 N 
ATOM      3  C   UNL     1       7.211   5.327  19.080  0.00  0.00    +0.000 A 
ATOM      4  N   UNL     1       5.922   5.475  18.934  0.00  0.00    +0.000 NA
ATOM      5  C   UNL     1       5.682   5.329  17.582  0.00  0.00    +0.000 A 
ATOM      6  H   UNL     1       8.814   4.916  17.738  0.00  0.00    +0.000 HD
ENDROOT
BRANCH   1   7
ATOM      7  C   UNL     1       7.073   4.892  15.502  0.00  0.00    +0.000 C 
ATOM      8  O   UNL     1       7.731   5.612  14.767  0.00  0.00    +0.000 OA
BRANCH   7   9
ATOM      9  O   UNL     1       6.331   3.824  15.097  0.00  0.00    +0.000 OA
BRANCH   9  11
ATOM     10  C   UNL     1       6.173   3.450  12.750  0.00  0.00    +0.000 C 
ATOM     11  C   UNL     1       5.506   4.090  13.955  0.00  0.00    +0.000 C 
ENDBRANCH   9  11
ENDBRANCH   7   9
ENDBRANCH   1   7
BRANCH   3  12
ATOM     12  O   UNL     1       7.820   5.410  20.248  0.00  0.00    +0.000 OA
ATOM     13  H   UNL     1       8.166   4.542  20.495  0.00  0.00    +0.000 HD
ENDBRANCH   3  12
BRANCH   5  14
ATOM     14  C   UNL     1       4.289   5.455  17.037  0.00  0.00    +0.000 C 
BRANCH  14  15
ATOM     15  N   UNL     1       3.231   5.813  17.991  0.00  0.00    +0.000 N 
ATOM     16  H   UNL     1       3.558   6.500  18.671  0.00  0.00    +0.000 HD
BRANCH  15  17
ATOM     17  C   UNL     1       2.469   4.781  18.572  0.00  0.00    +0.000 A 
ATOM     18  C   UNL     1       2.312   3.538  17.927  0.00  0.00    +0.000 A 
ATOM     19  C   UNL     1       1.532   2.510  18.464  0.00  0.00    +0.000 A 
ATOM     20  C   UNL     1       0.854   2.705  19.657  0.00  0.00    +0.000 A 
ATOM     21  C   UNL     1       0.931   3.941  20.289  0.00  0.00    +0.000 A 
ATOM     22  C   UNL     1       1.709   4.988  19.746  0.00  0.00    +0.000 A 
BRANCH  22  23
ATOM     23  C   UNL     1       1.688   6.254  20.424  0.00  0.00    +0.000 C 
ATOM     24  N   UNL     1       1.673   7.293  20.948  0.00  0.00    +0.000 NA
ENDBRANCH  22  23
ENDBRANCH  15  17
ENDBRANCH  14  15
ENDBRANCH   5  14
TORSDOF 8
ENDMDL
MODEL 4
REMARK VINA RESULT:      -7.1      1.144      1.146
REMARK  Name = 
REMARK  9 active torsions:
REMARK  status: ('A' for Active; 'I' for Inactive)
REMARK    1  A    between atoms: C_1  and  C_2
REMARK    2  A    between atoms: C_2  and  O_3
REMARK    3  A    between atoms: O_3  and  C_4
REMARK    4  A    between atoms: C_4  and  C_6
REMARK    5  A    between atoms: C_8  and  O_9
REMARK    6  A    between atoms: C_11  and  C_12
REMARK    7  A    between atoms: C_12  and  N_13
REMARK    8  A    between atoms: N_13  and  C_14
REMARK    9  A    between atoms: C_19  and  C_20
REMARK                            x       y       z     vdW  Elec       q    Type
REMARK                         _______ _______ _______ _____ _____    ______ ____
ROOT
ATOM      1  C   UNL     1       6.397   3.861  12.785  0.00  0.00    +0.000 A 
ATOM      2  N   UNL     1       7.434   4.605  12.263  0.00  0.00    +0.000 N 
ATOM      3  C   UNL     1       8.012   5.292  13.292  0.00  0.00    +0.000 A 
ATOM      4  N   UNL     1       7.439   5.023  14.434  0.00  0.00    +0.000 NA
ATOM      5  C   UNL     1       6.434   4.122  14.143  0.00  0.00    +0.000 A 
ATOM      6  H   UNL     1       7.707   4.622  11.292  0.00  0.00    +0.000 HD
ENDROOT
BRANCH   1   7
ATOM      7  C   UNL     1       5.526   2.985  12.062  0.00  0.00    +0.000 C 
ATOM      8  O   UNL     1       5.848   1.911  11.578  0.00  0.00    +0.000 OA
BRANCH   7   9
ATOM      9  O   UNL     1       4.313   3.585  11.905  0.00  0.00    +0.000 OA
BRANCH   9  11
ATOM     10  C   UNL     1       3.150   4.121   9.897  0.00  0.00    +0.000 C 
ATOM     11  C   UNL     1       3.510   3.008  10.867  0.00  0.00    +0.000 C 
ENDBRANCH   9  11
ENDBRANCH   7   9
ENDBRANCH   1   7
BRANCH   3  12
ATOM     12  O   UNL     1       9.022   6.132  13.170  0.00  0.00    +0.000 OA
ATOM     13  H   UNL     1       8.725   6.930  12.712  0.00  0.00    +0.000 HD
ENDBRANCH   3  12
BRANCH   5  14
ATOM     14  C   UNL     1       5.543   3.598  15.232  0.00  0.00    +0.000 C 
BRANCH  14  15
ATOM     15  N   UNL     1       5.871   3.991  16.609  0.00  0.00    +0.000 N 
ATOM     16  H   UNL     1       6.526   3.337  17.037  0.00  0.00    +0.000 HD
BRANCH  15  17
ATOM     17  C   UNL     1       4.823   4.367  17.470  0.00  0.00    +0.000 A 
ATOM     18  C   UNL     1       3.476   4.271  17.067  0.00  0.00    +0.000 A 
ATOM     19  C   UNL     1       2.418   4.671  17.890  0.00  0.00    +0.000 A 
ATOM     20  C   UNL     1       2.679   5.214  19.138  0.00  0.00    +0.000 A 
ATOM     21  C   UNL     1       3.998   5.387  19.543  0.00  0.00    +0.000 A 
ATOM     22  C   UNL     1       5.070   4.995  18.713  0.00  0.00    +0.000 A 
BRANCH  22  23
ATOM     23  C   UNL     1       6.403   5.263  19.176  0.00  0.00    +0.000 C 
ATOM     24  N   UNL     1       7.475   5.508  19.559  0.00  0.00    +0.000 NA
ENDBRANCH  22  23
ENDBRANCH  15  17
ENDBRANCH  14  15
ENDBRANCH   5  14
TORSDOF 8
ENDMDL
MODEL 5
REMARK VINA RESULT:      -7.1      2.866      4.260
REMARK  Name = 
REMARK  9 active torsions:
REMARK  status: ('A' for Active; 'I' for Inactive)
REMARK    1  A    between atoms: C_1  and  C_2
REMARK    2  A    between atoms: C_2  and  O_3
REMARK    3  A    between atoms: O_3  and  C_4
REMARK    4  A    between atoms: C_4  and  C_6
REMARK    5  A    between atoms: C_8  and  O_9
REMARK    6  A    between atoms: C_11  and  C_12
REMARK    7  A    between atoms: C_12  and  N_13
REMARK    8  A    between atoms: N_13  and  C_14
REMARK    9  A    between atoms: C_19  and  C_20
REMARK                            x       y       z     vdW  Elec       q    Type
REMARK                         _______ _______ _______ _____ _____    ______ ____
ROOT
ATOM      1  C   UNL     1       6.886   4.832  16.814  0.00  0.00    +0.000 A 
ATOM      2  N   UNL     1       7.757   5.333  17.757  0.00  0.00    +0.000 N 
ATOM      3  C   UNL     1       7.188   5.154  18.985  0.00  0.00    +0.000 A 
ATOM      4  N   UNL     1       6.032   4.554  18.899  0.00  0.00    +0.000 NA
ATOM      5  C   UNL     1       5.828   4.331  17.552  0.00  0.00    +0.000 A 
ATOM      6  H   UNL     1       8.654   5.750  17.559  0.00  0.00    +0.000 HD
ENDROOT
BRANCH   1   7
ATOM      7  C   UNL     1       7.084   4.806  15.396  0.00  0.00    +0.000 C 
ATOM      8  O   UNL     1       7.678   5.655  14.751  0.00  0.00    +0.000 OA
BRANCH   7   9
ATOM      9  O   UNL     1       6.415   3.744  14.868  0.00  0.00    +0.000 OA
BRANCH   9  11
ATOM     10  C   UNL     1       6.231   3.375  12.522  0.00  0.00    +0.000 C 
ATOM     11  C   UNL     1       5.616   4.072  13.723  0.00  0.00    +0.000 C 
ENDBRANCH   9  11
ENDBRANCH   7   9
ENDBRANCH   1   7
BRANCH   3  12
ATOM     12  O   UNL     1       7.720   5.536  20.131  0.00  0.00    +0.000 OA
ATOM     13  H   UNL     1       7.897   4.760  20.680  0.00  0.00    +0.000 HD
ENDBRANCH   3  12
BRANCH   5  14
ATOM     14  C   UNL     1       4.570   3.665  17.072  0.00  0.00    +0.000 C 
BRANCH  14  15
ATOM     15  N   UNL     1       3.303   4.350  17.356  0.00  0.00    +0.000 N 
ATOM     16  H   UNL     1       3.382   5.356  17.208  0.00  0.00    +0.000 HD
BRANCH  15  17
ATOM     17  C   UNL     1       2.607   4.017  18.534  0.00  0.00    +0.000 A 
ATOM     18  C   UNL     1       2.212   2.691  18.800  0.00  0.00    +0.000 A 
ATOM     19  C   UNL     1       1.489   2.340  19.944  0.00  0.00    +0.000 A 
ATOM     20  C   UNL     1       1.108   3.318  20.850  0.00  0.00    +0.000 A 
ATOM     21  C   UNL     1       1.421   4.647  20.587  0.00  0.00    +0.000 A 
ATOM     22  C   UNL     1       2.142   5.009  19.428  0.00  0.00    +0.000 A 
BRANCH  22  23
ATOM     23  C   UNL     1       2.373   6.408  19.198  0.00  0.00    +0.000 C 
ATOM     24  N   UNL     1       2.537   7.548  19.030  0.00  0.00    +0.000 NA
ENDBRANCH  22  23
ENDBRANCH  15  17
ENDBRANCH  14  15
ENDBRANCH   5  14
TORSDOF 8
ENDMDL
MODEL 6
REMARK VINA RESULT:      -7.1      2.842      4.960
REMARK  Name = 
REMARK  9 active torsions:
REMARK  status: ('A' for Active; 'I' for Inactive)
REMARK    1  A    between atoms: C_1  and  C_2
REMARK    2  A    between atoms: C_2  and  O_3
REMARK    3  A    between atoms: O_3  and  C_4
REMARK    4  A    between atoms: C_4  and  C_6
REMARK    5  A    between atoms: C_8  and  O_9
REMARK    6  A    between atoms: C_11  and  C_12
REMARK    7  A    between atoms: C_12  and  N_13
REMARK    8  A    between atoms: N_13  and  C_14
REMARK    9  A    between atoms: C_19  and  C_20
REMARK                            x       y       z     vdW  Elec       q    Type
REMARK                         _______ _______ _______ _____ _____    ______ ____
ROOT
ATOM      1  C   UNL     1       6.929   4.807  16.412  0.00  0.00    +0.000 A 
ATOM      2  N   UNL     1       7.567   5.037  15.212  0.00  0.00    +0.000 N 
ATOM      3  C   UNL     1       6.733   4.625  14.212  0.00  0.00    +0.000 A 
ATOM      4  N   UNL     1       5.603   4.172  14.682  0.00  0.00    +0.000 NA
ATOM      5  C   UNL     1       5.697   4.287  16.054  0.00  0.00    +0.000 A 
ATOM      6  H   UNL     1       8.484   5.445  15.108  0.00  0.00    +0.000 HD
ENDROOT
BRANCH   1   7
ATOM      7  C   UNL     1       7.436   5.098  17.719  0.00  0.00    +0.000 C 
ATOM      8  O   UNL     1       8.088   4.330  18.410  0.00  0.00    +0.000 OA
BRANCH   7   9
ATOM      9  O   UNL     1       6.986   6.321  18.114  0.00  0.00    +0.000 OA
BRANCH   9  11
ATOM     10  C   UNL     1       7.901   8.469  17.641  0.00  0.00    +0.000 C 
ATOM     11  C   UNL     1       8.028   7.225  18.504  0.00  0.00    +0.000 C 
ENDBRANCH   9  11
ENDBRANCH   7   9
ENDBRANCH   1   7
BRANCH   3  12
ATOM     12  O   UNL     1       7.016   4.664  12.924  0.00  0.00    +0.000 OA
ATOM     13  H   UNL     1       7.725   4.036  12.729  0.00  0.00    +0.000 HD
ENDBRANCH   3  12
BRANCH   5  14
ATOM     14  C   UNL     1       4.567   3.838  16.936  0.00  0.00    +0.000 C 
BRANCH  14  15
ATOM     15  N   UNL     1       4.217   4.710  18.065  0.00  0.00    +0.000 N 
ATOM     16  H   UNL     1       5.050   5.092  18.513  0.00  0.00    +0.000 HD
BRANCH  15  17
ATOM     17  C   UNL     1       3.248   4.266  18.985  0.00  0.00    +0.000 A 
ATOM     18  C   UNL     1       3.044   2.892  19.224  0.00  0.00    +0.000 A 
ATOM     19  C   UNL     1       2.065   2.424  20.105  0.00  0.00    +0.000 A 
ATOM     20  C   UNL     1       1.231   3.320  20.755  0.00  0.00    +0.000 A 
ATOM     21  C   UNL     1       1.358   4.680  20.492  0.00  0.00    +0.000 A 
ATOM     22  C   UNL     1       2.338   5.159  19.596  0.00  0.00    +0.000 A 
BRANCH  22  23
ATOM     23  C   UNL     1       2.365   6.571  19.331  0.00  0.00    +0.000 C 
ATOM     24  N   UNL     1       2.358   7.716  19.126  0.00  0.00    +0.000 NA
ENDBRANCH  22  23
ENDBRANCH  15  17
ENDBRANCH  14  15
ENDBRANCH   5  14
TORSDOF 8
ENDMDL
MODEL 7
REMARK VINA RESULT:      -7.1      0.872      2.081
REMARK  Name = 
REMARK  9 active torsions:
REMARK  status: ('A' for Active; 'I' for Inactive)
REMARK    1  A    between atoms: C_1  and  C_2
REMARK    2  A    between atoms: C_2  and  O_3
REMARK    3  A    between atoms: O_3  and  C_4
REMARK    4  A    between atoms: C_4  and  C_6
REMARK    5  A    between atoms: C_8  and  O_9
REMARK    6  A    between atoms: C_11  and  C_12
REMARK    7  A    between atoms: C_12  and  N_13
REMARK    8  A    between atoms: N_13  and  C_14
REMARK    9  A    between atoms: C_19  and  C_20
REMARK                            x       y       z     vdW  Elec       q    Type
REMARK                         _______ _______ _______ _____ _____    ______ ____
ROOT
ATOM      1  C   UNL     1       6.376   3.911  12.722  0.00  0.00    +0.000 A 
ATOM      2  N   UNL     1       7.443   4.614  12.206  0.00  0.00    +0.000 N 
ATOM      3  C   UNL     1       8.013   5.315  13.230  0.00  0.00    +0.000 A 
ATOM      4  N   UNL     1       7.406   5.093  14.364  0.00  0.00    +0.000 NA
ATOM      5  C   UNL     1       6.386   4.209  14.073  0.00  0.00    +0.000 A 
ATOM      6  H   UNL     1       7.741   4.597  11.242  0.00  0.00    +0.000 HD
ENDROOT
BRANCH   1   7
ATOM      7  C   UNL     1       5.500   3.037  12.001  0.00  0.00    +0.000 C 
ATOM      8  O   UNL     1       5.778   1.907  11.632  0.00  0.00    +0.000 OA
BRANCH   7   9
ATOM      9  O   UNL     1       4.351   3.702  11.697  0.00  0.00    +0.000 OA
BRANCH   9  11
ATOM     10  C   UNL     1       3.023   4.103   9.761  0.00  0.00    +0.000 C 
ATOM     11  C   UNL     1       3.540   3.042  10.716  0.00  0.00    +0.000 C 
ENDBRANCH   9  11
ENDBRANCH   7   9
ENDBRANCH   1   7
BRANCH   3  12
ATOM     12  O   UNL     1       9.048   6.126  13.111  0.00  0.00    +0.000 OA
ATOM     13  H   UNL     1       9.444   6.017  12.236  0.00  0.00    +0.000 HD
ENDBRANCH   3  12
BRANCH   5  14
ATOM     14  C   UNL     1       5.455   3.738  15.153  0.00  0.00    +0.000 C 
BRANCH  14  15
ATOM     15  N   UNL     1       5.623   4.334  16.485  0.00  0.00    +0.000 N 
ATOM     16  H   UNL     1       6.002   3.659  17.149  0.00  0.00    +0.000 HD
BRANCH  15  17
ATOM     17  C   UNL     1       4.571   5.103  17.017  0.00  0.00    +0.000 A 
ATOM     18  C   UNL     1       4.643   6.510  17.057  0.00  0.00    +0.000 A 
ATOM     19  C   UNL     1       3.628   7.295  17.613  0.00  0.00    +0.000 A 
ATOM     20  C   UNL     1       2.516   6.692  18.179  0.00  0.00    +0.000 A 
ATOM     21  C   UNL     1       2.442   5.304  18.217  0.00  0.00    +0.000 A 
ATOM     22  C   UNL     1       3.468   4.505  17.668  0.00  0.00    +0.000 A 
BRANCH  22  23
ATOM     23  C   UNL     1       3.346   3.080  17.802  0.00  0.00    +0.000 C 
ATOM     24  N   UNL     1       3.227   1.929  17.932  0.00  0.00    +0.000 NA
ENDBRANCH  22  23
ENDBRANCH  15  17
ENDBRANCH  14  15
ENDBRANCH   5  14
TORSDOF 8
ENDMDL
MODEL 8
REMARK VINA RESULT:      -7.0      3.130      5.418
REMARK  Name = 
REMARK  9 active torsions:
REMARK  status: ('A' for Active; 'I' for Inactive)
REMARK    1  A    between atoms: C_1  and  C_2
REMARK    2  A    between atoms: C_2  and  O_3
REMARK    3  A    between atoms: O_3  and  C_4
REMARK    4  A    between atoms: C_4  and  C_6
REMARK    5  A    between atoms: C_8  and  O_9
REMARK    6  A    between atoms: C_11  and  C_12
REMARK    7  A    between atoms: C_12  and  N_13
REMARK    8  A    between atoms: N_13  and  C_14
REMARK    9  A    between atoms: C_19  and  C_20
REMARK                            x       y       z     vdW  Elec       q    Type
REMARK                         _______ _______ _______ _____ _____    ______ ____
ROOT
ATOM      1  C   UNL     1       6.763   4.868  16.661  0.00  0.00    +0.000 A 
ATOM      2  N   UNL     1       7.455   4.784  15.472  0.00  0.00    +0.000 N 
ATOM      3  C   UNL     1       6.584   4.354  14.513  0.00  0.00    +0.000 A 
ATOM      4  N   UNL     1       5.383   4.182  14.993  0.00  0.00    +0.000 NA
ATOM      5  C   UNL     1       5.467   4.509  16.332  0.00  0.00    +0.000 A 
ATOM      6  H   UNL     1       8.431   5.009  15.350  0.00  0.00    +0.000 HD
ENDROOT
BRANCH   1   7
ATOM      7  C   UNL     1       7.285   5.286  17.927  0.00  0.00    +0.000 C 
ATOM      8  O   UNL     1       7.945   4.589  18.682  0.00  0.00    +0.000 OA
BRANCH   7   9
ATOM      9  O   UNL     1       6.839   6.543  18.205  0.00  0.00    +0.000 OA
BRANCH   9  11
ATOM     10  C   UNL     1       8.401   8.329  18.401  0.00  0.00    +0.000 C 
ATOM     11  C   UNL     1       7.493   7.571  17.449  0.00  0.00    +0.000 C 
ENDBRANCH   9  11
ENDBRANCH   7   9
ENDBRANCH   1   7
BRANCH   3  12
ATOM     12  O   UNL     1       6.897   4.129  13.251  0.00  0.00    +0.000 OA
ATOM     13  H   UNL     1       6.131   4.315  12.690  0.00  0.00    +0.000 HD
ENDBRANCH   3  12
BRANCH   5  14
ATOM     14  C   UNL     1       4.259   4.410  17.218  0.00  0.00    +0.000 C 
BRANCH  14  15
ATOM     15  N   UNL     1       4.364   3.535  18.393  0.00  0.00    +0.000 N 
ATOM     16  H   UNL     1       4.736   2.619  18.143  0.00  0.00    +0.000 HD
BRANCH  15  17
ATOM     17  C   UNL     1       3.275   3.466  19.283  0.00  0.00    +0.000 A 
ATOM     18  C   UNL     1       2.143   4.289  19.117  0.00  0.00    +0.000 A 
ATOM     19  C   UNL     1       1.065   4.266  20.006  0.00  0.00    +0.000 A 
ATOM     20  C   UNL     1       1.098   3.435  21.114  0.00  0.00    +0.000 A 
ATOM     21  C   UNL     1       2.227   2.658  21.348  0.00  0.00    +0.000 A 
ATOM     22  C   UNL     1       3.324   2.685  20.460  0.00  0.00    +0.000 A 
BRANCH  22  23
ATOM     23  C   UNL     1       4.478   1.900  20.803  0.00  0.00    +0.000 C 
ATOM     24  N   UNL     1       5.424   1.270  21.054  0.00  0.00    +0.000 NA
ENDBRANCH  22  23
ENDBRANCH  15  17
ENDBRANCH  14  15
ENDBRANCH   5  14
TORSDOF 8
ENDMDL
MODEL 9
REMARK VINA RESULT:      -7.0      2.952      5.492
REMARK  Name = 
REMARK  9 active torsions:
REMARK  status: ('A' for Active; 'I' for Inactive)
REMARK    1  A    between atoms: C_1  and  C_2
REMARK    2  A    between atoms: C_2  and  O_3
REMARK    3  A    between atoms: O_3  and  C_4
REMARK    4  A    between atoms: C_4  and  C_6
REMARK    5  A    between atoms: C_8  and  O_9
REMARK    6  A    between atoms: C_11  and  C_12
REMARK    7  A    between atoms: C_12  and  N_13
REMARK    8  A    between atoms: N_13  and  C_14
REMARK    9  A    between atoms: C_19  and  C_20
REMARK                            x       y       z     vdW  Elec       q    Type
REMARK                         _______ _______ _______ _____ _____    ______ ____
ROOT
ATOM      1  C   UNL     1       6.778   5.577  16.731  0.00  0.00    +0.000 A 
ATOM      2  N   UNL     1       7.306   4.829  15.701  0.00  0.00    +0.000 N 
ATOM      3  C   UNL     1       6.274   4.177  15.089  0.00  0.00    +0.000 A 
ATOM      4  N   UNL     1       5.125   4.472  15.635  0.00  0.00    +0.000 NA
ATOM      5  C   UNL     1       5.414   5.355  16.655  0.00  0.00    +0.000 A 
ATOM      6  H   UNL     1       8.283   4.787  15.453  0.00  0.00    +0.000 HD
ENDROOT
BRANCH   1   7
ATOM      7  C   UNL     1       7.502   6.424  17.630  0.00  0.00    +0.000 C 
ATOM      8  O   UNL     1       7.732   6.175  18.803  0.00  0.00    +0.000 OA
BRANCH   7   9
ATOM      9  O   UNL     1       7.797   7.597  17.003  0.00  0.00    +0.000 OA
BRANCH   9  11
ATOM     10  C   UNL     1       8.574   9.488  18.225  0.00  0.00    +0.000 C 
ATOM     11  C   UNL     1       7.345   8.762  17.707  0.00  0.00    +0.000 C 
ENDBRANCH   9  11
ENDBRANCH   7   9
ENDBRANCH   1   7
BRANCH   3  12
ATOM     12  O   UNL     1       6.399   3.343  14.074  0.00  0.00    +0.000 OA
ATOM     13  H   UNL     1       7.190   2.801  14.196  0.00  0.00    +0.000 HD
ENDBRANCH   3  12
BRANCH   5  14
ATOM     14  C   UNL     1       4.317   5.901  17.524  0.00  0.00    +0.000 C 
BRANCH  14  15
ATOM     15  N   UNL     1       4.261   5.418  18.910  0.00  0.00    +0.000 N 
ATOM     16  H   UNL     1       5.179   5.114  19.235  0.00  0.00    +0.000 HD
BRANCH  15  17
ATOM     17  C   UNL     1       3.225   4.538  19.275  0.00  0.00    +0.000 A 
ATOM     18  C   UNL     1       3.222   3.195  18.846  0.00  0.00    +0.000 A 
ATOM     19  C   UNL     1       2.187   2.311  19.165  0.00  0.00    +0.000 A 
ATOM     20  C   UNL     1       1.100   2.753  19.903  0.00  0.00    +0.000 A 
ATOM     21  C   UNL     1       1.036   4.088  20.287  0.00  0.00    +0.000 A 
ATOM     22  C   UNL     1       2.073   4.989  19.959  0.00  0.00    +0.000 A 
BRANCH  22  23
ATOM     23  C   UNL     1       1.904   6.364  20.338  0.00  0.00    +0.000 C 
ATOM     24  N   UNL     1       1.780   7.487  20.619  0.00  0.00    +0.000 NA
ENDBRANCH  22  23
ENDBRANCH  15  17
ENDBRANCH  14  15
ENDBRANCH   5  14
TORSDOF 8
ENDMDL
