MODEL 1
REMARK VINA RESULT:      -7.5      0.000      0.000
REMARK  Name = 
REMARK  6 active torsions:
REMARK  status: ('A' for Active; 'I' for Inactive)
REMARK    1  A    between atoms: C_1  and  C_2
REMARK    2  A    between atoms: C_2  and  C_3
REMARK    3  A    between atoms: C_11  and  C_13
REMARK    4  A    between atoms: C_18  and  O_19
REMARK    5  A    between atoms: O_19  and  C_20
REMARK    6  A    between atoms: C_20  and  C_21
REMARK                            x       y       z     vdW  Elec       q    Type
REMARK                         _______ _______ _______ _____ _____    ______ ____
ROOT
ATOM      1  C   UNL     1       6.476   4.117  13.396  0.00  0.00    +0.000 A 
ATOM      2  N   UNL     1       7.586   4.811  13.240  0.00  0.00    +0.000 NA
ATOM      3  N   UNL     1       7.832   5.499  14.414  0.00  0.00    +0.000 NA
ATOM      4  C   UNL     1       6.873   5.208  15.267  0.00  0.00    +0.000 A 
ATOM      5  N   UNL     1       5.959   4.426  14.621  0.00  0.00    +0.000 N 
ATOM      6  C   UNL     1       4.742   3.948  15.218  0.00  0.00    +0.000 C 
ATOM      7  C   UNL     1       4.422   4.696  16.503  0.00  0.00    +0.000 C 
ATOM      8  N   UNL     1       5.603   4.905  17.355  0.00  0.00    +0.000 N 
ATOM      9  C   UNL     1       5.675   4.743  18.755  0.00  0.00    +0.000 C 
ATOM     10  O   UNL     1       6.674   5.096  19.394  0.00  0.00    +0.000 OA
ATOM     11  C   UNL     1       6.729   5.610  16.702  0.00  0.00    +0.000 C 
ENDROOT
BRANCH   9  12
ATOM     12  C   UNL     1       4.523   4.163  19.531  0.00  0.00    +0.000 A 
ATOM     13  C   UNL     1       4.475   2.771  19.734  0.00  0.00    +0.000 A 
ATOM     14  C   UNL     1       3.507   2.187  20.549  0.00  0.00    +0.000 A 
ATOM     15  C   UNL     1       2.474   2.964  21.044  0.00  0.00    +0.000 A 
ATOM     16  C   UNL     1       2.418   4.320  20.730  0.00  0.00    +0.000 A 
ATOM     17  C   UNL     1       3.452   4.952  20.014  0.00  0.00    +0.000 A 
BRANCH  17  18
ATOM     18  O   UNL     1       3.465   6.311  19.790  0.00  0.00    +0.000 OA
BRANCH  18  19
ATOM     19  C   UNL     1       2.191   6.932  19.568  0.00  0.00    +0.000 C 
BRANCH  19  20
ATOM     20  C   UNL     1       2.099   7.431  18.159  0.00  0.00    +0.000 C 
ATOM     21  C   UNL     1       2.145   8.919  17.890  0.00  0.00    +0.000 C 
ATOM     22  C   UNL     1       3.299   8.042  17.484  0.00  0.00    +0.000 C 
ENDBRANCH  19  20
ENDBRANCH  18  19
ENDBRANCH  17  18
ENDBRANCH   9  12
BRANCH   1  24
ATOM     23  C   UNL     1       4.675   3.575  11.737  0.00  0.00    +0.000 C 
ATOM     24  C   UNL     1       5.913   3.092  12.473  0.00  0.00    +0.000 C 
ENDBRANCH   1  24
TORSDOF 5
ENDMDL
MODEL 2
REMARK VINA RESULT:      -7.5      0.876      1.095
REMARK  Name = 
REMARK  6 active torsions:
REMARK  status: ('A' for Active; 'I' for Inactive)
REMARK    1  A    between atoms: C_1  and  C_2
REMARK    2  A    between atoms: C_2  and  C_3
REMARK    3  A    between atoms: C_11  and  C_13
REMARK    4  A    between atoms: C_18  and  O_19
REMARK    5  A    between atoms: O_19  and  C_20
REMARK    6  A    between atoms: C_20  and  C_21
REMARK                            x       y       z     vdW  Elec       q    Type
REMARK                         _______ _______ _______ _____ _____    ______ ____
ROOT
ATOM      1  C   UNL     1       6.519   4.490  13.992  0.00  0.00    +0.000 A 
ATOM      2  N   UNL     1       7.675   5.124  14.014  0.00  0.00    +0.000 NA
ATOM      3  N   UNL     1       7.804   5.739  15.245  0.00  0.00    +0.000 NA
ATOM      4  C   UNL     1       6.729   5.466  15.954  0.00  0.00    +0.000 A 
ATOM      5  N   UNL     1       5.866   4.770  15.157  0.00  0.00    +0.000 N 
ATOM      6  C   UNL     1       4.559   4.338  15.569  0.00  0.00    +0.000 C 
ATOM      7  C   UNL     1       4.116   5.042  16.843  0.00  0.00    +0.000 C 
ATOM      8  N   UNL     1       5.187   5.139  17.846  0.00  0.00    +0.000 N 
ATOM      9  C   UNL     1       5.071   4.907  19.233  0.00  0.00    +0.000 C 
ATOM     10  O   UNL     1       5.996   5.170  20.011  0.00  0.00    +0.000 OA
ATOM     11  C   UNL     1       6.424   5.807  17.379  0.00  0.00    +0.000 C 
ENDROOT
BRANCH   9  12
ATOM     12  C   UNL     1       3.799   4.360  19.825  0.00  0.00    +0.000 A 
ATOM     13  C   UNL     1       3.698   2.974  20.049  0.00  0.00    +0.000 A 
ATOM     14  C   UNL     1       2.602   2.422  20.710  0.00  0.00    +0.000 A 
ATOM     15  C   UNL     1       1.514   3.223  21.014  0.00  0.00    +0.000 A 
ATOM     16  C   UNL     1       1.531   4.572  20.664  0.00  0.00    +0.000 A 
ATOM     17  C   UNL     1       2.677   5.174  20.111  0.00  0.00    +0.000 A 
BRANCH  17  18
ATOM     18  O   UNL     1       2.747   6.527  19.862  0.00  0.00    +0.000 OA
BRANCH  18  19
ATOM     19  C   UNL     1       2.105   6.988  18.665  0.00  0.00    +0.000 C 
BRANCH  19  20
ATOM     20  C   UNL     1       2.239   8.474  18.548  0.00  0.00    +0.000 C 
ATOM     21  C   UNL     1       1.220   9.255  17.746  0.00  0.00    +0.000 C 
ATOM     22  C   UNL     1       1.265   9.388  19.245  0.00  0.00    +0.000 C 
ENDBRANCH  19  20
ENDBRANCH  18  19
ENDBRANCH  17  18
ENDBRANCH   9  12
BRANCH   1  24
ATOM     23  C   UNL     1       6.855   3.584  11.677  0.00  0.00    +0.000 C 
ATOM     24  C   UNL     1       6.027   3.545  12.950  0.00  0.00    +0.000 C 
ENDBRANCH   1  24
TORSDOF 5
ENDMDL
MODEL 3
REMARK VINA RESULT:      -7.2      0.871      1.229
REMARK  Name = 
REMARK  6 active torsions:
REMARK  status: ('A' for Active; 'I' for Inactive)
REMARK    1  A    between atoms: C_1  and  C_2
REMARK    2  A    between atoms: C_2  and  C_3
REMARK    3  A    between atoms: C_11  and  C_13
REMARK    4  A    between atoms: C_18  and  O_19
REMARK    5  A    between atoms: O_19  and  C_20
REMARK    6  A    between atoms: C_20  and  C_21
REMARK                            x       y       z     vdW  Elec       q    Type
REMARK                         _______ _______ _______ _____ _____    ______ ____
ROOT
ATOM      1  C   UNL     1       6.449   4.123  13.518  0.00  0.00    +0.000 A 
ATOM      2  N   UNL     1       7.576   4.793  13.383  0.00  0.00    +0.000 NA
ATOM      3  N   UNL     1       7.805   5.492  14.553  0.00  0.00    +0.000 NA
ATOM      4  C   UNL     1       6.818   5.232  15.385  0.00  0.00    +0.000 A 
ATOM      5  N   UNL     1       5.906   4.458  14.725  0.00  0.00    +0.000 N 
ATOM      6  C   UNL     1       4.665   4.012  15.295  0.00  0.00    +0.000 C 
ATOM      7  C   UNL     1       4.326   4.783  16.562  0.00  0.00    +0.000 C 
ATOM      8  N   UNL     1       5.488   4.981  17.442  0.00  0.00    +0.000 N 
ATOM      9  C   UNL     1       5.520   4.836  18.845  0.00  0.00    +0.000 C 
ATOM     10  O   UNL     1       6.509   5.178  19.505  0.00  0.00    +0.000 OA
ATOM     11  C   UNL     1       6.644   5.655  16.809  0.00  0.00    +0.000 C 
ENDROOT
BRANCH   9  12
ATOM     12  C   UNL     1       4.337   4.289  19.597  0.00  0.00    +0.000 A 
ATOM     13  C   UNL     1       4.297   2.912  19.889  0.00  0.00    +0.000 A 
ATOM     14  C   UNL     1       3.295   2.367  20.690  0.00  0.00    +0.000 A 
ATOM     15  C   UNL     1       2.228   3.157  21.079  0.00  0.00    +0.000 A 
ATOM     16  C   UNL     1       2.171   4.489  20.675  0.00  0.00    +0.000 A 
ATOM     17  C   UNL     1       3.232   5.090  19.973  0.00  0.00    +0.000 A 
BRANCH  17  18
ATOM     18  O   UNL     1       3.240   6.432  19.661  0.00  0.00    +0.000 OA
BRANCH  18  19
ATOM     19  C   UNL     1       1.958   7.054  19.495  0.00  0.00    +0.000 C 
BRANCH  19  20
ATOM     20  C   UNL     1       1.801   8.180  20.468  0.00  0.00    +0.000 C 
ATOM     21  C   UNL     1       0.802   9.280  20.183  0.00  0.00    +0.000 C 
ATOM     22  C   UNL     1       0.552   8.304  21.301  0.00  0.00    +0.000 C 
ENDBRANCH  19  20
ENDBRANCH  18  19
ENDBRANCH  17  18
ENDBRANCH   9  12
BRANCH   1  24
ATOM     23  C   UNL     1       4.721   3.613  11.774  0.00  0.00    +0.000 C 
ATOM     24  C   UNL     1       5.891   3.097  12.594  0.00  0.00    +0.000 C 
ENDBRANCH   1  24
TORSDOF 5
ENDMDL
MODEL 4
REMARK VINA RESULT:      -7.2      3.239      7.002
REMARK  Name = 
REMARK  6 active torsions:
REMARK  status: ('A' for Active; 'I' for Inactive)
REMARK    1  A    between atoms: C_1  and  C_2
REMARK    2  A    between atoms: C_2  and  C_3
REMARK    3  A    between atoms: C_11  and  C_13
REMARK    4  A    between atoms: C_18  and  O_19
REMARK    5  A    between atoms: O_19  and  C_20
REMARK    6  A    between atoms: C_20  and  C_21
REMARK                            x       y       z     vdW  Elec       q    Type
REMARK                         _______ _______ _______ _____ _____    ______ ____
ROOT
ATOM      1  C   UNL     1       1.027  10.392  19.587  0.00  0.00    +0.000 A 
ATOM      2  N   UNL     1       0.494  10.183  20.774  0.00  0.00    +0.000 NA
ATOM      3  N   UNL     1       0.738   8.870  21.131  0.00  0.00    +0.000 NA
ATOM      4  C   UNL     1       1.420   8.302  20.159  0.00  0.00    +0.000 A 
ATOM      5  N   UNL     1       1.527   9.203  19.138  0.00  0.00    +0.000 N 
ATOM      6  C   UNL     1       2.166   8.926  17.882  0.00  0.00    +0.000 C 
ATOM      7  C   UNL     1       2.385   7.433  17.687  0.00  0.00    +0.000 C 
ATOM      8  N   UNL     1       2.872   6.761  18.902  0.00  0.00    +0.000 N 
ATOM      9  C   UNL     1       3.895   5.792  18.981  0.00  0.00    +0.000 C 
ATOM     10  O   UNL     1       4.120   5.176  20.029  0.00  0.00    +0.000 OA
ATOM     11  C   UNL     1       2.015   6.930  20.097  0.00  0.00    +0.000 C 
ENDROOT
BRANCH   9  12
ATOM     12  C   UNL     1       4.733   5.448  17.778  0.00  0.00    +0.000 A 
ATOM     13  C   UNL     1       5.906   6.186  17.535  0.00  0.00    +0.000 A 
ATOM     14  C   UNL     1       6.789   5.835  16.516  0.00  0.00    +0.000 A 
ATOM     15  C   UNL     1       6.435   4.841  15.619  0.00  0.00    +0.000 A 
ATOM     16  C   UNL     1       5.207   4.198  15.751  0.00  0.00    +0.000 A 
ATOM     17  C   UNL     1       4.359   4.450  16.846  0.00  0.00    +0.000 A 
BRANCH  17  18
ATOM     18  O   UNL     1       3.193   3.745  17.049  0.00  0.00    +0.000 OA
BRANCH  18  19
ATOM     19  C   UNL     1       3.311   2.516  17.780  0.00  0.00    +0.000 C 
BRANCH  19  20
ATOM     20  C   UNL     1       2.013   2.188  18.449  0.00  0.00    +0.000 C 
ATOM     21  C   UNL     1       1.869   2.393  19.942  0.00  0.00    +0.000 C 
ATOM     22  C   UNL     1       1.127   3.284  18.981  0.00  0.00    +0.000 C 
ENDBRANCH  19  20
ENDBRANCH  18  19
ENDBRANCH  17  18
ENDBRANCH   9  12
BRANCH   1  24
ATOM     23  C   UNL     1      -0.112  12.503  18.855  0.00  0.00    +0.000 C 
ATOM     24  C   UNL     1       1.174  11.694  18.877  0.00  0.00    +0.000 C 
ENDBRANCH   1  24
TORSDOF 5
ENDMDL
MODEL 5
REMARK VINA RESULT:      -7.1      1.414      1.774
REMARK  Name = 
REMARK  6 active torsions:
REMARK  status: ('A' for Active; 'I' for Inactive)
REMARK    1  A    between atoms: C_1  and  C_2
REMARK    2  A    between atoms: C_2  and  C_3
REMARK    3  A    between atoms: C_11  and  C_13
REMARK    4  A    between atoms: C_18  and  O_19
REMARK    5  A    between atoms: O_19  and  C_20
REMARK    6  A    between atoms: C_20  and  C_21
REMARK                            x       y       z     vdW  Elec       q    Type
REMARK                         _______ _______ _______ _____ _____    ______ ____
ROOT
ATOM      1  C   UNL     1       6.464   4.507  14.183  0.00  0.00    +0.000 A 
ATOM      2  N   UNL     1       7.582   5.201  14.256  0.00  0.00    +0.000 NA
ATOM      3  N   UNL     1       7.610   5.843  15.480  0.00  0.00    +0.000 NA
ATOM      4  C   UNL     1       6.512   5.525  16.134  0.00  0.00    +0.000 A 
ATOM      5  N   UNL     1       5.733   4.771  15.304  0.00  0.00    +0.000 N 
ATOM      6  C   UNL     1       4.430   4.276  15.652  0.00  0.00    +0.000 C 
ATOM      7  C   UNL     1       3.880   4.976  16.886  0.00  0.00    +0.000 C 
ATOM      8  N   UNL     1       4.886   5.148  17.944  0.00  0.00    +0.000 N 
ATOM      9  C   UNL     1       4.704   4.933  19.327  0.00  0.00    +0.000 C 
ATOM     10  O   UNL     1       5.570   5.258  20.149  0.00  0.00    +0.000 OA
ATOM     11  C   UNL     1       6.110   5.873  17.533  0.00  0.00    +0.000 C 
ENDROOT
BRANCH   9  12
ATOM     12  C   UNL     1       3.432   4.329  19.859  0.00  0.00    +0.000 A 
ATOM     13  C   UNL     1       3.406   2.952  20.149  0.00  0.00    +0.000 A 
ATOM     14  C   UNL     1       2.303   2.358  20.761  0.00  0.00    +0.000 A 
ATOM     15  C   UNL     1       1.147   3.096  20.947  0.00  0.00    +0.000 A 
ATOM     16  C   UNL     1       1.100   4.424  20.528  0.00  0.00    +0.000 A 
ATOM     17  C   UNL     1       2.241   5.076  20.023  0.00  0.00    +0.000 A 
BRANCH  17  18
ATOM     18  O   UNL     1       2.240   6.417  19.707  0.00  0.00    +0.000 OA
BRANCH  18  19
ATOM     19  C   UNL     1       2.179   7.331  20.811  0.00  0.00    +0.000 C 
BRANCH  19  20
ATOM     20  C   UNL     1       0.861   8.041  20.819  0.00  0.00    +0.000 C 
ATOM     21  C   UNL     1       0.533   8.992  21.949  0.00  0.00    +0.000 C 
ATOM     22  C   UNL     1       0.788   9.523  20.564  0.00  0.00    +0.000 C 
ENDBRANCH  19  20
ENDBRANCH  18  19
ENDBRANCH  17  18
ENDBRANCH   9  12
BRANCH   1  24
ATOM     23  C   UNL     1       6.985   3.571  11.915  0.00  0.00    +0.000 C 
ATOM     24  C   UNL     1       6.081   3.519  13.135  0.00  0.00    +0.000 C 
ENDBRANCH   1  24
TORSDOF 5
ENDMDL
MODEL 6
REMARK VINA RESULT:      -7.0      2.374      3.682
REMARK  Name = 
REMARK  6 active torsions:
REMARK  status: ('A' for Active; 'I' for Inactive)
REMARK    1  A    between atoms: C_1  and  C_2
REMARK    2  A    between atoms: C_2  and  C_3
REMARK    3  A    between atoms: C_11  and  C_13
REMARK    4  A    between atoms: C_18  and  O_19
REMARK    5  A    between atoms: O_19  and  C_20
REMARK    6  A    between atoms: C_20  and  C_21
REMARK                            x       y       z     vdW  Elec       q    Type
REMARK                         _______ _______ _______ _____ _____    ______ ____
ROOT
ATOM      1  C   UNL     1       7.679   6.854  17.370  0.00  0.00    +0.000 A 
ATOM      2  N   UNL     1       7.934   6.767  16.080  0.00  0.00    +0.000 NA
ATOM      3  N   UNL     1       7.104   5.802  15.541  0.00  0.00    +0.000 NA
ATOM      4  C   UNL     1       6.353   5.322  16.510  0.00  0.00    +0.000 A 
ATOM      5  N   UNL     1       6.763   5.892  17.681  0.00  0.00    +0.000 N 
ATOM      6  C   UNL     1       6.209   5.576  18.969  0.00  0.00    +0.000 C 
ATOM      7  C   UNL     1       5.382   4.300  18.920  0.00  0.00    +0.000 C 
ATOM      8  N   UNL     1       4.521   4.219  17.731  0.00  0.00    +0.000 N 
ATOM      9  C   UNL     1       3.176   3.795  17.687  0.00  0.00    +0.000 C 
ATOM     10  O   UNL     1       2.591   3.614  16.613  0.00  0.00    +0.000 OA
ATOM     11  C   UNL     1       5.229   4.336  16.436  0.00  0.00    +0.000 C 
ENDROOT
BRANCH   9  12
ATOM     12  C   UNL     1       2.409   3.513  18.952  0.00  0.00    +0.000 A 
ATOM     13  C   UNL     1       2.286   2.180  19.388  0.00  0.00    +0.000 A 
ATOM     14  C   UNL     1       1.701   1.866  20.613  0.00  0.00    +0.000 A 
ATOM     15  C   UNL     1       1.084   2.862  21.349  0.00  0.00    +0.000 A 
ATOM     16  C   UNL     1       1.062   4.167  20.863  0.00  0.00    +0.000 A 
ATOM     17  C   UNL     1       1.755   4.527  19.691  0.00  0.00    +0.000 A 
BRANCH  17  18
ATOM     18  O   UNL     1       1.834   5.832  19.257  0.00  0.00    +0.000 OA
BRANCH  18  19
ATOM     19  C   UNL     1       2.314   6.792  20.209  0.00  0.00    +0.000 C 
BRANCH  19  20
ATOM     20  C   UNL     1       1.171   7.574  20.774  0.00  0.00    +0.000 C 
ATOM     21  C   UNL     1       1.440   8.659  21.794  0.00  0.00    +0.000 C 
ATOM     22  C   UNL     1       0.979   9.023  20.408  0.00  0.00    +0.000 C 
ENDBRANCH  19  20
ENDBRANCH  18  19
ENDBRANCH  17  18
ENDBRANCH   9  12
BRANCH   1  24
ATOM     23  C   UNL     1       8.048   9.296  17.811  0.00  0.00    +0.000 C 
ATOM     24  C   UNL     1       8.195   7.874  18.326  0.00  0.00    +0.000 C 
ENDBRANCH   1  24
TORSDOF 5
ENDMDL
MODEL 7
REMARK VINA RESULT:      -6.8      2.080      3.470
REMARK  Name = 
REMARK  6 active torsions:
REMARK  status: ('A' for Active; 'I' for Inactive)
REMARK    1  A    between atoms: C_1  and  C_2
REMARK    2  A    between atoms: C_2  and  C_3
REMARK    3  A    between atoms: C_11  and  C_13
REMARK    4  A    between atoms: C_18  and  O_19
REMARK    5  A    between atoms: O_19  and  C_20
REMARK    6  A    between atoms: C_20  and  C_21
REMARK                            x       y       z     vdW  Elec       q    Type
REMARK                         _______ _______ _______ _____ _____    ______ ____
ROOT
ATOM      1  C   UNL     1       7.624   6.799  17.324  0.00  0.00    +0.000 A 
ATOM      2  N   UNL     1       7.764   6.777  16.015  0.00  0.00    +0.000 NA
ATOM      3  N   UNL     1       6.871   5.857  15.501  0.00  0.00    +0.000 NA
ATOM      4  C   UNL     1       6.196   5.337  16.505  0.00  0.00    +0.000 A 
ATOM      5  N   UNL     1       6.718   5.836  17.664  0.00  0.00    +0.000 N 
ATOM      6  C   UNL     1       6.271   5.460  18.977  0.00  0.00    +0.000 C 
ATOM      7  C   UNL     1       5.417   4.202  18.934  0.00  0.00    +0.000 C 
ATOM      8  N   UNL     1       4.454   4.200  17.822  0.00  0.00    +0.000 N 
ATOM      9  C   UNL     1       3.102   3.800  17.875  0.00  0.00    +0.000 C 
ATOM     10  O   UNL     1       2.422   3.688  16.847  0.00  0.00    +0.000 OA
ATOM     11  C   UNL     1       5.050   4.375  16.478  0.00  0.00    +0.000 C 
ENDROOT
BRANCH   9  12
ATOM     12  C   UNL     1       2.442   3.463  19.185  0.00  0.00    +0.000 A 
ATOM     13  C   UNL     1       1.899   2.176  19.359  0.00  0.00    +0.000 A 
ATOM     14  C   UNL     1       1.390   1.761  20.589  0.00  0.00    +0.000 A 
ATOM     15  C   UNL     1       1.266   2.677  21.619  0.00  0.00    +0.000 A 
ATOM     16  C   UNL     1       1.659   3.998  21.420  0.00  0.00    +0.000 A 
ATOM     17  C   UNL     1       2.290   4.406  20.230  0.00  0.00    +0.000 A 
BRANCH  17  18
ATOM     18  O   UNL     1       2.782   5.682  20.060  0.00  0.00    +0.000 OA
BRANCH  18  19
ATOM     19  C   UNL     1       1.836   6.680  19.652  0.00  0.00    +0.000 C 
BRANCH  19  20
ATOM     20  C   UNL     1       2.544   7.820  18.990  0.00  0.00    +0.000 C 
ATOM     21  C   UNL     1       3.181   7.617  17.632  0.00  0.00    +0.000 C 
ATOM     22  C   UNL     1       1.956   8.482  17.771  0.00  0.00    +0.000 C 
ENDBRANCH  19  20
ENDBRANCH  18  19
ENDBRANCH  17  18
ENDBRANCH   9  12
BRANCH   1  24
ATOM     23  C   UNL     1       8.050   9.208  17.877  0.00  0.00    +0.000 C 
ATOM     24  C   UNL     1       8.242   7.757  18.284  0.00  0.00    +0.000 C 
ENDBRANCH   1  24
TORSDOF 5
ENDMDL
MODEL 8
REMARK VINA RESULT:      -6.8      3.711      7.415
REMARK  Name = 
REMARK  6 active torsions:
REMARK  status: ('A' for Active; 'I' for Inactive)
REMARK    1  A    between atoms: C_1  and  C_2
REMARK    2  A    between atoms: C_2  and  C_3
REMARK    3  A    between atoms: C_11  and  C_13
REMARK    4  A    between atoms: C_18  and  O_19
REMARK    5  A    between atoms: O_19  and  C_20
REMARK    6  A    between atoms: C_20  and  C_21
REMARK                            x       y       z     vdW  Elec       q    Type
REMARK                         _______ _______ _______ _____ _____    ______ ____
ROOT
ATOM      1  C   UNL     1       1.146  11.897  19.345  0.00  0.00    +0.000 A 
ATOM      2  N   UNL     1       0.583  11.925  20.536  0.00  0.00    +0.000 NA
ATOM      3  N   UNL     1       0.527  10.630  21.016  0.00  0.00    +0.000 NA
ATOM      4  C   UNL     1       1.062   9.835  20.113  0.00  0.00    +0.000 A 
ATOM      5  N   UNL     1       1.365  10.590  19.016  0.00  0.00    +0.000 N 
ATOM      6  C   UNL     1       1.923  10.061  17.802  0.00  0.00    +0.000 C 
ATOM      7  C   UNL     1       1.801   8.545  17.749  0.00  0.00    +0.000 C 
ATOM      8  N   UNL     1       2.128   7.899  19.029  0.00  0.00    +0.000 N 
ATOM      9  C   UNL     1       2.908   6.737  19.215  0.00  0.00    +0.000 C 
ATOM     10  O   UNL     1       2.992   6.187  20.320  0.00  0.00    +0.000 OA
ATOM     11  C   UNL     1       1.334   8.366  20.188  0.00  0.00    +0.000 C 
ENDROOT
BRANCH   9  12
ATOM     12  C   UNL     1       3.644   6.103  18.065  0.00  0.00    +0.000 A 
ATOM     13  C   UNL     1       4.585   6.873  17.356  0.00  0.00    +0.000 A 
ATOM     14  C   UNL     1       5.389   6.310  16.366  0.00  0.00    +0.000 A 
ATOM     15  C   UNL     1       5.154   5.008  15.956  0.00  0.00    +0.000 A 
ATOM     16  C   UNL     1       4.125   4.275  16.542  0.00  0.00    +0.000 A 
ATOM     17  C   UNL     1       3.386   4.782  17.627  0.00  0.00    +0.000 A 
BRANCH  17  18
ATOM     18  O   UNL     1       2.440   4.029  18.287  0.00  0.00    +0.000 OA
BRANCH  18  19
ATOM     19  C   UNL     1       2.921   2.869  18.981  0.00  0.00    +0.000 C 
BRANCH  19  20
ATOM     20  C   UNL     1       1.897   2.397  19.966  0.00  0.00    +0.000 C 
ATOM     21  C   UNL     1       2.041   2.764  21.427  0.00  0.00    +0.000 C 
ATOM     22  C   UNL     1       0.939   3.371  20.600  0.00  0.00    +0.000 C 
ENDBRANCH  19  20
ENDBRANCH  18  19
ENDBRANCH  17  18
ENDBRANCH   9  12
BRANCH   1  24
ATOM     23  C   UNL     1       2.855  13.707  19.036  0.00  0.00    +0.000 C 
ATOM     24  C   UNL     1       1.579  13.061  18.521  0.00  0.00    +0.000 C 
ENDBRANCH   1  24
TORSDOF 5
ENDMDL
MODEL 9
REMARK VINA RESULT:      -6.6      3.787      6.892
REMARK  Name = 
REMARK  6 active torsions:
REMARK  status: ('A' for Active; 'I' for Inactive)
REMARK    1  A    between atoms: C_1  and  C_2
REMARK    2  A    between atoms: C_2  and  C_3
REMARK    3  A    between atoms: C_11  and  C_13
REMARK    4  A    between atoms: C_18  and  O_19
REMARK    5  A    between atoms: O_19  and  C_20
REMARK    6  A    between atoms: C_20  and  C_21
REMARK                            x       y       z     vdW  Elec       q    Type
REMARK                         _______ _______ _______ _____ _____    ______ ____
ROOT
ATOM      1  C   UNL     1       0.265  10.512  19.886  0.00  0.00    +0.000 A 
ATOM      2  N   UNL     1       0.459  11.137  18.742  0.00  0.00    +0.000 NA
ATOM      3  N   UNL     1       1.257  10.338  17.945  0.00  0.00    +0.000 NA
ATOM      4  C   UNL     1       1.531   9.237  18.613  0.00  0.00    +0.000 A 
ATOM      5  N   UNL     1       1.005   9.365  19.867  0.00  0.00    +0.000 N 
ATOM      6  C   UNL     1       1.143   8.380  20.904  0.00  0.00    +0.000 C 
ATOM      7  C   UNL     1       2.224   7.365  20.566  0.00  0.00    +0.000 C 
ATOM      8  N   UNL     1       2.180   6.926  19.162  0.00  0.00    +0.000 N 
ATOM      9  C   UNL     1       2.322   5.606  18.684  0.00  0.00    +0.000 C 
ATOM     10  O   UNL     1       2.426   5.366  17.475  0.00  0.00    +0.000 OA
ATOM     11  C   UNL     1       2.268   8.015  18.163  0.00  0.00    +0.000 C 
ENDROOT
BRANCH   9  12
ATOM     12  C   UNL     1       2.384   4.439  19.632  0.00  0.00    +0.000 A 
ATOM     13  C   UNL     1       1.285   4.191  20.476  0.00  0.00    +0.000 A 
ATOM     14  C   UNL     1       1.228   3.056  21.283  0.00  0.00    +0.000 A 
ATOM     15  C   UNL     1       2.337   2.234  21.382  0.00  0.00    +0.000 A 
ATOM     16  C   UNL     1       3.493   2.544  20.669  0.00  0.00    +0.000 A 
ATOM     17  C   UNL     1       3.527   3.613  19.755  0.00  0.00    +0.000 A 
BRANCH  17  18
ATOM     18  O   UNL     1       4.626   3.866  18.962  0.00  0.00    +0.000 OA
BRANCH  18  19
ATOM     19  C   UNL     1       5.543   4.858  19.443  0.00  0.00    +0.000 C 
BRANCH  19  20
ATOM     20  C   UNL     1       6.321   5.436  18.303  0.00  0.00    +0.000 C 
ATOM     21  C   UNL     1       7.660   6.089  18.568  0.00  0.00    +0.000 C 
ATOM     22  C   UNL     1       7.591   4.778  17.831  0.00  0.00    +0.000 C 
ENDBRANCH  19  20
ENDBRANCH  18  19
ENDBRANCH  17  18
ENDBRANCH   9  12
BRANCH   1  24
ATOM     23  C   UNL     1      -1.479  12.143  20.654  0.00  0.00    +0.000 C 
ATOM     24  C   UNL     1      -0.669  10.900  20.980  0.00  0.00    +0.000 C 
ENDBRANCH   1  24
TORSDOF 5
ENDMDL
