MODEL 1
REMARK VINA RESULT:      -7.0      0.000      0.000
REMARK  Name = 
REMARK  9 active torsions:
REMARK  status: ('A' for Active; 'I' for Inactive)
REMARK    1  A    between atoms: C_1  and  O_2
REMARK    2  A    between atoms: O_2  and  C_3
REMARK    3  A    between atoms: C_3  and  C_4
REMARK    4  A    between atoms: C_4  and  O_5
REMARK    5  A    between atoms: O_5  and  C_6
REMARK    6  A    between atoms: N_9  and  C_10
REMARK    7  A    between atoms: C_10  and  C_11
REMARK    8  A    between atoms: C_16  and  C_17
REMARK    9  A    between atoms: C_17  and  C_18
REMARK                            x       y       z     vdW  Elec       q    Type
REMARK                         _______ _______ _______ _____ _____    ______ ____
ROOT
ATOM      1  C   UNL     1       7.094   5.159  17.726  0.00  0.00    +0.000 C 
ATOM      2  C   UNL     1       6.480   5.376  19.099  0.00  0.00    +0.000 C 
ATOM      3  C   UNL     1       5.460   4.270  19.208  0.00  0.00    +0.000 C 
ATOM      4  N   UNL     1       4.866   4.134  17.868  0.00  0.00    +0.000 NA
ATOM      5  C   UNL     1       5.940   4.518  16.895  0.00  0.00    +0.000 C 
ENDROOT
BRANCH   1   6
ATOM      6  O   UNL     1       7.625   6.373  17.187  0.00  0.00    +0.000 OA
BRANCH   6   7
ATOM      7  C   UNL     1       8.074   7.268  18.211  0.00  0.00    +0.000 C 
BRANCH   7   8
ATOM      8  C   UNL     1       7.969   8.721  17.756  0.00  0.00    +0.000 C 
BRANCH   8  10
ATOM      9  C   UNL     1       9.212  10.687  18.168  0.00  0.00    +0.000 C 
ATOM     10  O   UNL     1       8.587   9.550  18.744  0.00  0.00    +0.000 OA
ENDBRANCH   8  10
ENDBRANCH   7   8
ENDBRANCH   6   7
ENDBRANCH   1   6
BRANCH   4  11
ATOM     11  C   UNL     1       3.598   4.869  17.745  0.00  0.00    +0.000 C 
BRANCH  11  12
ATOM     12  C   UNL     1       2.502   4.299  18.614  0.00  0.00    +0.000 A 
ATOM     13  C   UNL     1       1.926   4.855  19.743  0.00  0.00    +0.000 A 
ATOM     14  C   UNL     1       0.956   4.001  20.340  0.00  0.00    +0.000 A 
ATOM     15  C   UNL     1       0.823   2.820  19.648  0.00  0.00    +0.000 A 
ATOM     16  S   UNL     1       1.862   2.741  18.289  0.00  0.00    +0.000 S 
ENDBRANCH  11  12
ENDBRANCH   4  11
BRANCH   5  17
ATOM     17  C   UNL     1       5.575   5.323  15.618  0.00  0.00    +0.000 C 
BRANCH  17  18
ATOM     18  C   UNL     1       6.096   4.808  14.293  0.00  0.00    +0.000 A 
ATOM     19  C   UNL     1       5.373   3.837  13.588  0.00  0.00    +0.000 A 
ATOM     20  C   UNL     1       5.867   3.331  12.388  0.00  0.00    +0.000 A 
ATOM     21  C   UNL     1       7.066   3.829  11.911  0.00  0.00    +0.000 A 
ATOM     22  N   UNL     1       7.779   4.786  12.539  0.00  0.00    +0.000 NA
ATOM     23  C   UNL     1       7.278   5.254  13.707  0.00  0.00    +0.000 A 
ENDBRANCH  17  18
ENDBRANCH   5  17
TORSDOF 8
ENDMDL
MODEL 2
REMARK VINA RESULT:      -6.8      3.033      6.150
REMARK  Name = 
REMARK  9 active torsions:
REMARK  status: ('A' for Active; 'I' for Inactive)
REMARK    1  A    between atoms: C_1  and  O_2
REMARK    2  A    between atoms: O_2  and  C_3
REMARK    3  A    between atoms: C_3  and  C_4
REMARK    4  A    between atoms: C_4  and  O_5
REMARK    5  A    between atoms: O_5  and  C_6
REMARK    6  A    between atoms: N_9  and  C_10
REMARK    7  A    between atoms: C_10  and  C_11
REMARK    8  A    between atoms: C_16  and  C_17
REMARK    9  A    between atoms: C_17  and  C_18
REMARK                            x       y       z     vdW  Elec       q    Type
REMARK                         _______ _______ _______ _____ _____    ______ ____
ROOT
ATOM      1  C   UNL     1       6.208   4.608  16.669  0.00  0.00    +0.000 C 
ATOM      2  C   UNL     1       6.411   6.015  16.132  0.00  0.00    +0.000 C 
ATOM      3  C   UNL     1       6.002   6.896  17.286  0.00  0.00    +0.000 C 
ATOM      4  N   UNL     1       4.846   6.233  17.910  0.00  0.00    +0.000 NA
ATOM      5  C   UNL     1       5.041   4.763  17.694  0.00  0.00    +0.000 C 
ENDROOT
BRANCH   1   6
ATOM      6  O   UNL     1       5.967   3.669  15.617  0.00  0.00    +0.000 OA
BRANCH   6   7
ATOM      7  C   UNL     1       5.696   4.316  14.368  0.00  0.00    +0.000 C 
BRANCH   7   8
ATOM      8  C   UNL     1       6.322   3.552  13.205  0.00  0.00    +0.000 C 
BRANCH   8  10
ATOM      9  C   UNL     1       5.549   2.139  11.477  0.00  0.00    +0.000 C 
ATOM     10  O   UNL     1       5.315   3.330  12.216  0.00  0.00    +0.000 OA
ENDBRANCH   8  10
ENDBRANCH   7   8
ENDBRANCH   6   7
ENDBRANCH   1   6
BRANCH   4  11
ATOM     11  C   UNL     1       3.567   6.786  17.440  0.00  0.00    +0.000 C 
BRANCH  11  12
ATOM     12  C   UNL     1       2.755   7.416  18.546  0.00  0.00    +0.000 A 
ATOM     13  C   UNL     1       2.480   6.908  19.804  0.00  0.00    +0.000 A 
ATOM     14  C   UNL     1       1.629   7.760  20.564  0.00  0.00    +0.000 A 
ATOM     15  C   UNL     1       1.282   8.891  19.863  0.00  0.00    +0.000 A 
ATOM     16  S   UNL     1       1.975   8.923  18.297  0.00  0.00    +0.000 S 
ENDBRANCH  11  12
ENDBRANCH   4  11
BRANCH   5  17
ATOM     17  C   UNL     1       3.818   3.857  17.382  0.00  0.00    +0.000 C 
BRANCH  17  18
ATOM     18  C   UNL     1       2.958   3.415  18.547  0.00  0.00    +0.000 A 
ATOM     19  C   UNL     1       1.566   3.358  18.404  0.00  0.00    +0.000 A 
ATOM     20  C   UNL     1       0.767   2.990  19.485  0.00  0.00    +0.000 A 
ATOM     21  C   UNL     1       1.387   2.666  20.678  0.00  0.00    +0.000 A 
ATOM     22  N   UNL     1       2.725   2.674  20.849  0.00  0.00    +0.000 NA
ATOM     23  C   UNL     1       3.476   3.043  19.785  0.00  0.00    +0.000 A 
ENDBRANCH  17  18
ENDBRANCH   5  17
TORSDOF 8
ENDMDL
MODEL 3
REMARK VINA RESULT:      -6.8      3.424      5.335
REMARK  Name = 
REMARK  9 active torsions:
REMARK  status: ('A' for Active; 'I' for Inactive)
REMARK    1  A    between atoms: C_1  and  O_2
REMARK    2  A    between atoms: O_2  and  C_3
REMARK    3  A    between atoms: C_3  and  C_4
REMARK    4  A    between atoms: C_4  and  O_5
REMARK    5  A    between atoms: O_5  and  C_6
REMARK    6  A    between atoms: N_9  and  C_10
REMARK    7  A    between atoms: C_10  and  C_11
REMARK    8  A    between atoms: C_16  and  C_17
REMARK    9  A    between atoms: C_17  and  C_18
REMARK                            x       y       z     vdW  Elec       q    Type
REMARK                         _______ _______ _______ _____ _____    ______ ____
ROOT
ATOM      1  C   UNL     1       3.078   2.718  18.314  0.00  0.00    +0.000 C 
ATOM      2  C   UNL     1       2.090   2.855  19.461  0.00  0.00    +0.000 C 
ATOM      3  C   UNL     1       1.306   4.094  19.105  0.00  0.00    +0.000 C 
ATOM      4  N   UNL     1       2.276   5.032  18.518  0.00  0.00    +0.000 NA
ATOM      5  C   UNL     1       3.319   4.189  17.850  0.00  0.00    +0.000 C 
ENDROOT
BRANCH   1   6
ATOM      6  O   UNL     1       4.255   2.009  18.712  0.00  0.00    +0.000 OA
BRANCH   6   7
ATOM      7  C   UNL     1       4.456   2.050  20.130  0.00  0.00    +0.000 C 
BRANCH   7   8
ATOM      8  C   UNL     1       5.160   0.789  20.622  0.00  0.00    +0.000 C 
BRANCH   8  10
ATOM      9  C   UNL     1       6.439  -0.059  22.418  0.00  0.00    +0.000 C 
ATOM     10  O   UNL     1       5.744   1.065  21.897  0.00  0.00    +0.000 OA
ENDBRANCH   8  10
ENDBRANCH   7   8
ENDBRANCH   6   7
ENDBRANCH   1   6
BRANCH   4  11
ATOM     11  C   UNL     1       2.773   6.006  19.501  0.00  0.00    +0.000 C 
BRANCH  11  12
ATOM     12  C   UNL     1       2.209   7.392  19.294  0.00  0.00    +0.000 A 
ATOM     13  C   UNL     1       2.307   8.198  18.173  0.00  0.00    +0.000 A 
ATOM     14  C   UNL     1       1.697   9.471  18.361  0.00  0.00    +0.000 A 
ATOM     15  C   UNL     1       1.155   9.596  19.618  0.00  0.00    +0.000 A 
ATOM     16  S   UNL     1       1.381   8.189  20.567  0.00  0.00    +0.000 S 
ENDBRANCH  11  12
ENDBRANCH   4  11
BRANCH   5  17
ATOM     17  C   UNL     1       4.812   4.617  17.903  0.00  0.00    +0.000 C 
BRANCH  17  18
ATOM     18  C   UNL     1       5.559   4.717  16.590  0.00  0.00    +0.000 A 
ATOM     19  C   UNL     1       5.031   4.117  15.439  0.00  0.00    +0.000 A 
ATOM     20  C   UNL     1       5.734   4.173  14.237  0.00  0.00    +0.000 A 
ATOM     21  C   UNL     1       6.940   4.849  14.213  0.00  0.00    +0.000 A 
ATOM     22  N   UNL     1       7.469   5.468  15.288  0.00  0.00    +0.000 NA
ATOM     23  C   UNL     1       6.768   5.392  16.444  0.00  0.00    +0.000 A 
ENDBRANCH  17  18
ENDBRANCH   5  17
TORSDOF 8
ENDMDL
MODEL 4
REMARK VINA RESULT:      -6.6      0.713      1.078
REMARK  Name = 
REMARK  9 active torsions:
REMARK  status: ('A' for Active; 'I' for Inactive)
REMARK    1  A    between atoms: C_1  and  O_2
REMARK    2  A    between atoms: O_2  and  C_3
REMARK    3  A    between atoms: C_3  and  C_4
REMARK    4  A    between atoms: C_4  and  O_5
REMARK    5  A    between atoms: O_5  and  C_6
REMARK    6  A    between atoms: N_9  and  C_10
REMARK    7  A    between atoms: C_10  and  C_11
REMARK    8  A    between atoms: C_16  and  C_17
REMARK    9  A    between atoms: C_17  and  C_18
REMARK                            x       y       z     vdW  Elec       q    Type
REMARK                         _______ _______ _______ _____ _____    ______ ____
ROOT
ATOM      1  C   UNL     1       7.049   5.000  17.567  0.00  0.00    +0.000 C 
ATOM      2  C   UNL     1       6.475   5.269  18.948  0.00  0.00    +0.000 C 
ATOM      3  C   UNL     1       5.441   4.183  19.118  0.00  0.00    +0.000 C 
ATOM      4  N   UNL     1       4.810   4.016  17.799  0.00  0.00    +0.000 NA
ATOM      5  C   UNL     1       5.863   4.352  16.787  0.00  0.00    +0.000 C 
ENDROOT
BRANCH   1   6
ATOM      6  O   UNL     1       7.584   6.188  16.976  0.00  0.00    +0.000 OA
BRANCH   6   7
ATOM      7  C   UNL     1       7.166   7.371  17.669  0.00  0.00    +0.000 C 
BRANCH   7   8
ATOM      8  C   UNL     1       8.360   8.107  18.269  0.00  0.00    +0.000 C 
BRANCH   8  10
ATOM      9  C   UNL     1       9.059  10.295  18.821  0.00  0.00    +0.000 C 
ATOM     10  O   UNL     1       8.210   9.504  18.002  0.00  0.00    +0.000 OA
ENDBRANCH   8  10
ENDBRANCH   7   8
ENDBRANCH   6   7
ENDBRANCH   1   6
BRANCH   4  11
ATOM     11  C   UNL     1       3.550   4.767  17.687  0.00  0.00    +0.000 C 
BRANCH  11  12
ATOM     12  C   UNL     1       2.479   4.261  18.624  0.00  0.00    +0.000 A 
ATOM     13  C   UNL     1       1.954   4.885  19.743  0.00  0.00    +0.000 A 
ATOM     14  C   UNL     1       0.995   4.078  20.418  0.00  0.00    +0.000 A 
ATOM     15  C   UNL     1       0.818   2.866  19.795  0.00  0.00    +0.000 A 
ATOM     16  S   UNL     1       1.805   2.699  18.405  0.00  0.00    +0.000 S 
ENDBRANCH  11  12
ENDBRANCH   4  11
BRANCH   5  17
ATOM     17  C   UNL     1       5.477   5.124  15.495  0.00  0.00    +0.000 C 
BRANCH  17  18
ATOM     18  C   UNL     1       6.021   4.605  14.181  0.00  0.00    +0.000 A 
ATOM     19  C   UNL     1       7.223   5.114  13.673  0.00  0.00    +0.000 A 
ATOM     20  C   UNL     1       7.707   4.669  12.445  0.00  0.00    +0.000 A 
ATOM     21  C   UNL     1       6.984   3.706  11.765  0.00  0.00    +0.000 A 
ATOM     22  N   UNL     1       5.841   3.165  12.231  0.00  0.00    +0.000 NA
ATOM     23  C   UNL     1       5.389   3.622  13.424  0.00  0.00    +0.000 A 
ENDBRANCH  17  18
ENDBRANCH   5  17
TORSDOF 8
ENDMDL
MODEL 5
REMARK VINA RESULT:      -6.6      2.417      4.776
REMARK  Name = 
REMARK  9 active torsions:
REMARK  status: ('A' for Active; 'I' for Inactive)
REMARK    1  A    between atoms: C_1  and  O_2
REMARK    2  A    between atoms: O_2  and  C_3
REMARK    3  A    between atoms: C_3  and  C_4
REMARK    4  A    between atoms: C_4  and  O_5
REMARK    5  A    between atoms: O_5  and  C_6
REMARK    6  A    between atoms: N_9  and  C_10
REMARK    7  A    between atoms: C_10  and  C_11
REMARK    8  A    between atoms: C_16  and  C_17
REMARK    9  A    between atoms: C_17  and  C_18
REMARK                            x       y       z     vdW  Elec       q    Type
REMARK                         _______ _______ _______ _____ _____    ______ ____
ROOT
ATOM      1  C   UNL     1       5.597   6.182  16.851  0.00  0.00    +0.000 C 
ATOM      2  C   UNL     1       6.479   4.978  16.568  0.00  0.00    +0.000 C 
ATOM      3  C   UNL     1       5.495   3.903  16.176  0.00  0.00    +0.000 C 
ATOM      4  N   UNL     1       4.325   4.089  17.049  0.00  0.00    +0.000 NA
ATOM      5  C   UNL     1       4.256   5.556  17.348  0.00  0.00    +0.000 C 
ENDROOT
BRANCH   1   6
ATOM      6  O   UNL     1       6.216   7.088  17.768  0.00  0.00    +0.000 OA
BRANCH   6   7
ATOM      7  C   UNL     1       7.586   7.341  17.434  0.00  0.00    +0.000 C 
BRANCH   7   8
ATOM      8  C   UNL     1       7.948   8.805  17.670  0.00  0.00    +0.000 C 
BRANCH   8  10
ATOM      9  C   UNL     1       9.251  10.192  19.070  0.00  0.00    +0.000 C 
ATOM     10  O   UNL     1       8.708   8.893  18.878  0.00  0.00    +0.000 OA
ENDBRANCH   8  10
ENDBRANCH   7   8
ENDBRANCH   6   7
ENDBRANCH   1   6
BRANCH   4  11
ATOM     11  C   UNL     1       4.357   3.197  18.219  0.00  0.00    +0.000 C 
BRANCH  11  12
ATOM     12  C   UNL     1       2.993   2.979  18.829  0.00  0.00    +0.000 A 
ATOM     13  C   UNL     1       1.773   2.866  18.185  0.00  0.00    +0.000 A 
ATOM     14  C   UNL     1       0.687   2.723  19.094  0.00  0.00    +0.000 A 
ATOM     15  C   UNL     1       1.111   2.730  20.402  0.00  0.00    +0.000 A 
ATOM     16  S   UNL     1       2.809   2.913  20.533  0.00  0.00    +0.000 S 
ENDBRANCH  11  12
ENDBRANCH   4  11
BRANCH   5  17
ATOM     17  C   UNL     1       3.834   6.039  18.763  0.00  0.00    +0.000 C 
BRANCH  17  18
ATOM     18  C   UNL     1       2.879   7.211  18.847  0.00  0.00    +0.000 A 
ATOM     19  C   UNL     1       2.733   8.072  17.752  0.00  0.00    +0.000 A 
ATOM     20  C   UNL     1       1.886   9.175  17.839  0.00  0.00    +0.000 A 
ATOM     21  C   UNL     1       1.187   9.374  19.015  0.00  0.00    +0.000 A 
ATOM     22  N   UNL     1       1.272   8.553  20.081  0.00  0.00    +0.000 NA
ATOM     23  C   UNL     1       2.108   7.494  19.972  0.00  0.00    +0.000 A 
ENDBRANCH  17  18
ENDBRANCH   5  17
TORSDOF 8
ENDMDL
MODEL 6
REMARK VINA RESULT:      -6.6      3.104      6.172
REMARK  Name = 
REMARK  9 active torsions:
REMARK  status: ('A' for Active; 'I' for Inactive)
REMARK    1  A    between atoms: C_1  and  O_2
REMARK    2  A    between atoms: O_2  and  C_3
REMARK    3  A    between atoms: C_3  and  C_4
REMARK    4  A    between atoms: C_4  and  O_5
REMARK    5  A    between atoms: O_5  and  C_6
REMARK    6  A    between atoms: N_9  and  C_10
REMARK    7  A    between atoms: C_10  and  C_11
REMARK    8  A    between atoms: C_16  and  C_17
REMARK    9  A    between atoms: C_17  and  C_18
REMARK                            x       y       z     vdW  Elec       q    Type
REMARK                         _______ _______ _______ _____ _____    ______ ____
ROOT
ATOM      1  C   UNL     1       6.046   4.591  16.611  0.00  0.00    +0.000 C 
ATOM      2  C   UNL     1       6.024   5.996  16.033  0.00  0.00    +0.000 C 
ATOM      3  C   UNL     1       5.608   6.853  17.203  0.00  0.00    +0.000 C 
ATOM      4  N   UNL     1       4.602   6.071  17.940  0.00  0.00    +0.000 NA
ATOM      5  C   UNL     1       4.961   4.630  17.733  0.00  0.00    +0.000 C 
ENDROOT
BRANCH   1   6
ATOM      6  O   UNL     1       5.835   3.600  15.601  0.00  0.00    +0.000 OA
BRANCH   6   7
ATOM      7  C   UNL     1       5.536   4.183  14.327  0.00  0.00    +0.000 C 
BRANCH   7   8
ATOM      8  C   UNL     1       6.669   3.944  13.333  0.00  0.00    +0.000 C 
BRANCH   8  10
ATOM      9  C   UNL     1       4.781   3.415  12.015  0.00  0.00    +0.000 C 
ATOM     10  O   UNL     1       6.160   3.166  12.247  0.00  0.00    +0.000 OA
ENDBRANCH   8  10
ENDBRANCH   7   8
ENDBRANCH   6   7
ENDBRANCH   1   6
BRANCH   4  11
ATOM     11  C   UNL     1       3.228   6.447  17.575  0.00  0.00    +0.000 C 
BRANCH  11  12
ATOM     12  C   UNL     1       2.536   7.255  18.646  0.00  0.00    +0.000 A 
ATOM     13  C   UNL     1       2.267   6.892  19.955  0.00  0.00    +0.000 A 
ATOM     14  C   UNL     1       1.542   7.893  20.662  0.00  0.00    +0.000 A 
ATOM     15  C   UNL     1       1.280   8.987  19.871  0.00  0.00    +0.000 A 
ATOM     16  S   UNL     1       1.902   8.807  18.286  0.00  0.00    +0.000 S 
ENDBRANCH  11  12
ENDBRANCH   4  11
BRANCH   5  17
ATOM     17  C   UNL     1       3.839   3.572  17.546  0.00  0.00    +0.000 C 
BRANCH  17  18
ATOM     18  C   UNL     1       2.925   3.305  18.723  0.00  0.00    +0.000 A 
ATOM     19  C   UNL     1       3.469   3.116  20.001  0.00  0.00    +0.000 A 
ATOM     20  C   UNL     1       2.635   2.831  21.080  0.00  0.00    +0.000 A 
ATOM     21  C   UNL     1       1.273   2.763  20.855  0.00  0.00    +0.000 A 
ATOM     22  N   UNL     1       0.704   2.970  19.650  0.00  0.00    +0.000 NA
ATOM     23  C   UNL     1       1.538   3.238  18.618  0.00  0.00    +0.000 A 
ENDBRANCH  17  18
ENDBRANCH   5  17
TORSDOF 8
ENDMDL
MODEL 7
REMARK VINA RESULT:      -6.5      2.721      5.722
REMARK  Name = 
REMARK  9 active torsions:
REMARK  status: ('A' for Active; 'I' for Inactive)
REMARK    1  A    between atoms: C_1  and  O_2
REMARK    2  A    between atoms: O_2  and  C_3
REMARK    3  A    between atoms: C_3  and  C_4
REMARK    4  A    between atoms: C_4  and  O_5
REMARK    5  A    between atoms: O_5  and  C_6
REMARK    6  A    between atoms: N_9  and  C_10
REMARK    7  A    between atoms: C_10  and  C_11
REMARK    8  A    between atoms: C_16  and  C_17
REMARK    9  A    between atoms: C_17  and  C_18
REMARK                            x       y       z     vdW  Elec       q    Type
REMARK                         _______ _______ _______ _____ _____    ______ ____
ROOT
ATOM      1  C   UNL     1       6.984   4.841  16.973  0.00  0.00    +0.000 C 
ATOM      2  C   UNL     1       7.137   6.285  16.525  0.00  0.00    +0.000 C 
ATOM      3  C   UNL     1       6.387   7.063  17.578  0.00  0.00    +0.000 C 
ATOM      4  N   UNL     1       5.207   6.251  17.916  0.00  0.00    +0.000 NA
ATOM      5  C   UNL     1       5.612   4.823  17.717  0.00  0.00    +0.000 C 
ENDROOT
BRANCH   1   6
ATOM      6  O   UNL     1       7.088   3.932  15.874  0.00  0.00    +0.000 OA
BRANCH   6   7
ATOM      7  C   UNL     1       7.029   4.604  14.610  0.00  0.00    +0.000 C 
BRANCH   7   8
ATOM      8  C   UNL     1       5.927   4.024  13.729  0.00  0.00    +0.000 C 
BRANCH   8  10
ATOM      9  C   UNL     1       5.844   2.616  11.835  0.00  0.00    +0.000 C 
ATOM     10  O   UNL     1       6.483   3.728  12.446  0.00  0.00    +0.000 OA
ENDBRANCH   8  10
ENDBRANCH   7   8
ENDBRANCH   6   7
ENDBRANCH   1   6
BRANCH   4  11
ATOM     11  C   UNL     1       4.006   6.685  17.186  0.00  0.00    +0.000 C 
BRANCH  11  12
ATOM     12  C   UNL     1       3.013   7.409  18.064  0.00  0.00    +0.000 A 
ATOM     13  C   UNL     1       2.422   8.642  17.852  0.00  0.00    +0.000 A 
ATOM     14  C   UNL     1       1.576   9.034  18.929  0.00  0.00    +0.000 A 
ATOM     15  C   UNL     1       1.549   8.089  19.927  0.00  0.00    +0.000 A 
ATOM     16  S   UNL     1       2.540   6.739  19.570  0.00  0.00    +0.000 S 
ENDBRANCH  11  12
ENDBRANCH   4  11
BRANCH   5  17
ATOM     17  C   UNL     1       4.599   3.806  17.122  0.00  0.00    +0.000 C 
BRANCH  17  18
ATOM     18  C   UNL     1       3.425   3.400  17.987  0.00  0.00    +0.000 A 
ATOM     19  C   UNL     1       3.638   3.008  19.315  0.00  0.00    +0.000 A 
ATOM     20  C   UNL     1       2.565   2.595  20.102  0.00  0.00    +0.000 A 
ATOM     21  C   UNL     1       1.300   2.607  19.545  0.00  0.00    +0.000 A 
ATOM     22  N   UNL     1       1.045   3.007  18.283  0.00  0.00    +0.000 NA
ATOM     23  C   UNL     1       2.106   3.396  17.538  0.00  0.00    +0.000 A 
ENDBRANCH  17  18
ENDBRANCH   5  17
TORSDOF 8
ENDMDL
MODEL 8
REMARK VINA RESULT:      -6.5      2.477      4.850
REMARK  Name = 
REMARK  9 active torsions:
REMARK  status: ('A' for Active; 'I' for Inactive)
REMARK    1  A    between atoms: C_1  and  O_2
REMARK    2  A    between atoms: O_2  and  C_3
REMARK    3  A    between atoms: C_3  and  C_4
REMARK    4  A    between atoms: C_4  and  O_5
REMARK    5  A    between atoms: O_5  and  C_6
REMARK    6  A    between atoms: N_9  and  C_10
REMARK    7  A    between atoms: C_10  and  C_11
REMARK    8  A    between atoms: C_16  and  C_17
REMARK    9  A    between atoms: C_17  and  C_18
REMARK                            x       y       z     vdW  Elec       q    Type
REMARK                         _______ _______ _______ _____ _____    ______ ____
ROOT
ATOM      1  C   UNL     1       5.229   6.221  16.232  0.00  0.00    +0.000 C 
ATOM      2  C   UNL     1       5.952   4.912  15.961  0.00  0.00    +0.000 C 
ATOM      3  C   UNL     1       4.847   3.885  15.991  0.00  0.00    +0.000 C 
ATOM      4  N   UNL     1       3.933   4.307  17.064  0.00  0.00    +0.000 NA
ATOM      5  C   UNL     1       4.015   5.802  17.119  0.00  0.00    +0.000 C 
ENDROOT
BRANCH   1   6
ATOM      6  O   UNL     1       6.098   7.195  16.817  0.00  0.00    +0.000 OA
BRANCH   6   7
ATOM      7  C   UNL     1       7.313   6.611  17.302  0.00  0.00    +0.000 C 
BRANCH   7   8
ATOM      8  C   UNL     1       8.065   7.581  18.210  0.00  0.00    +0.000 C 
BRANCH   8  10
ATOM      9  C   UNL     1       8.726   9.847  18.283  0.00  0.00    +0.000 C 
ATOM     10  O   UNL     1       7.779   8.915  17.782  0.00  0.00    +0.000 OA
ENDBRANCH   8  10
ENDBRANCH   7   8
ENDBRANCH   6   7
ENDBRANCH   1   6
BRANCH   4  11
ATOM     11  C   UNL     1       4.198   3.603  18.328  0.00  0.00    +0.000 C 
BRANCH  11  12
ATOM     12  C   UNL     1       2.957   3.417  19.169  0.00  0.00    +0.000 A 
ATOM     13  C   UNL     1       2.770   3.733  20.504  0.00  0.00    +0.000 A 
ATOM     14  C   UNL     1       1.479   3.361  20.978  0.00  0.00    +0.000 A 
ATOM     15  C   UNL     1       0.724   2.774  19.991  0.00  0.00    +0.000 A 
ATOM     16  S   UNL     1       1.565   2.669  18.503  0.00  0.00    +0.000 S 
ENDBRANCH  11  12
ENDBRANCH   4  11
BRANCH   5  17
ATOM     17  C   UNL     1       3.972   6.530  18.491  0.00  0.00    +0.000 C 
BRANCH  17  18
ATOM     18  C   UNL     1       2.867   7.541  18.713  0.00  0.00    +0.000 A 
ATOM     19  C   UNL     1       2.530   8.442  17.695  0.00  0.00    +0.000 A 
ATOM     20  C   UNL     1       1.541   9.400  17.908  0.00  0.00    +0.000 A 
ATOM     21  C   UNL     1       0.897   9.416  19.132  0.00  0.00    +0.000 A 
ATOM     22  N   UNL     1       1.166   8.548  20.127  0.00  0.00    +0.000 NA
ATOM     23  C   UNL     1       2.137   7.632  19.896  0.00  0.00    +0.000 A 
ENDBRANCH  17  18
ENDBRANCH   5  17
TORSDOF 8
ENDMDL
MODEL 9
REMARK VINA RESULT:      -6.5      2.388      4.725
REMARK  Name = 
REMARK  9 active torsions:
REMARK  status: ('A' for Active; 'I' for Inactive)
REMARK    1  A    between atoms: C_1  and  O_2
REMARK    2  A    between atoms: O_2  and  C_3
REMARK    3  A    between atoms: C_3  and  C_4
REMARK    4  A    between atoms: C_4  and  O_5
REMARK    5  A    between atoms: O_5  and  C_6
REMARK    6  A    between atoms: N_9  and  C_10
REMARK    7  A    between atoms: C_10  and  C_11
REMARK    8  A    between atoms: C_16  and  C_17
REMARK    9  A    between atoms: C_17  and  C_18
REMARK                            x       y       z     vdW  Elec       q    Type
REMARK                         _______ _______ _______ _____ _____    ______ ____
ROOT
ATOM      1  C   UNL     1       5.580   6.276  16.818  0.00  0.00    +0.000 C 
ATOM      2  C   UNL     1       6.492   5.080  16.606  0.00  0.00    +0.000 C 
ATOM      3  C   UNL     1       5.538   3.968  16.243  0.00  0.00    +0.000 C 
ATOM      4  N   UNL     1       4.346   4.168  17.083  0.00  0.00    +0.000 NA
ATOM      5  C   UNL     1       4.242   5.645  17.315  0.00  0.00    +0.000 C 
ENDROOT
BRANCH   1   6
ATOM      6  O   UNL     1       6.162   7.235  17.706  0.00  0.00    +0.000 OA
BRANCH   6   7
ATOM      7  C   UNL     1       7.565   7.405  17.472  0.00  0.00    +0.000 C 
BRANCH   7   8
ATOM      8  C   UNL     1       7.985   8.857  17.680  0.00  0.00    +0.000 C 
BRANCH   8  10
ATOM      9  C   UNL     1       9.240  10.253  19.114  0.00  0.00    +0.000 C 
ATOM     10  O   UNL     1       8.766   8.935  18.875  0.00  0.00    +0.000 OA
ENDBRANCH   8  10
ENDBRANCH   7   8
ENDBRANCH   6   7
ENDBRANCH   1   6
BRANCH   4  11
ATOM     11  C   UNL     1       4.372   3.330  18.292  0.00  0.00    +0.000 C 
BRANCH  11  12
ATOM     12  C   UNL     1       2.996   3.071  18.857  0.00  0.00    +0.000 A 
ATOM     13  C   UNL     1       1.806   2.897  18.171  0.00  0.00    +0.000 A 
ATOM     14  C   UNL     1       0.692   2.729  19.043  0.00  0.00    +0.000 A 
ATOM     15  C   UNL     1       1.067   2.781  20.364  0.00  0.00    +0.000 A 
ATOM     16  S   UNL     1       2.750   3.032  20.554  0.00  0.00    +0.000 S 
ENDBRANCH  11  12
ENDBRANCH   4  11
BRANCH   5  17
ATOM     17  C   UNL     1       3.781   6.181  18.698  0.00  0.00    +0.000 C 
BRANCH  17  18
ATOM     18  C   UNL     1       2.852   7.377  18.712  0.00  0.00    +0.000 A 
ATOM     19  C   UNL     1       2.078   7.647  19.848  0.00  0.00    +0.000 A 
ATOM     20  C   UNL     1       1.193   8.723  19.851  0.00  0.00    +0.000 A 
ATOM     21  C   UNL     1       1.122   9.516  18.721  0.00  0.00    +0.000 A 
ATOM     22  N   UNL     1       1.872   9.313  17.619  0.00  0.00    +0.000 NA
ATOM     23  C   UNL     1       2.718   8.256  17.641  0.00  0.00    +0.000 A 
ENDBRANCH  17  18
ENDBRANCH   5  17
TORSDOF 8
ENDMDL
