MODEL 1
REMARK VINA RESULT:      -6.5      0.000      0.000
REMARK  Name = 
REMARK  24 active torsions:
REMARK  status: ('A' for Active; 'I' for Inactive)
REMARK    1  A    between atoms: C_1  and  C_2
REMARK    2  A    between atoms: C_2  and  C_3
REMARK    3  A    between atoms: C_3  and  C_4
REMARK    4  A    between atoms: C_4  and  C_5
REMARK    5  A    between atoms: C_5  and  C_6
REMARK    6  A    between atoms: C_6  and  C_7
REMARK    7  A    between atoms: C_7  and  C_8
REMARK    8  A    between atoms: C_8  and  C_9
REMARK    9  A    between atoms: C_9  and  C_10
REMARK   10  A    between atoms: C_10  and  C_11
REMARK   11  A    between atoms: C_11  and  C_12
REMARK   12  A    between atoms: C_12  and  C_13
REMARK   13  A    between atoms: C_13  and  C_14
REMARK   14  A    between atoms: C_14  and  C_15
REMARK   15  A    between atoms: C_15  and  C_17
REMARK   16  A    between atoms: N_19  and  C_20
REMARK   17  A    between atoms: C_20  and  C_21
REMARK   18  A    between atoms: C_20  and  C_26
REMARK   19  A    between atoms: C_21  and  C_22
REMARK   20  A    between atoms: C_22  and  C_23
REMARK   21  A    between atoms: C_23  and  O_25
REMARK   22  A    between atoms: C_26  and  C_27
REMARK   23  A    between atoms: C_27  and  C_28
REMARK   24  A    between atoms: C_27  and  C_29
REMARK                            x       y       z     vdW  Elec       q    Type
REMARK                         _______ _______ _______ _____ _____    ______ ____
ROOT
ATOM      1  C   UNL     1       1.839   3.153  18.025  0.00  0.00    +0.000 C 
ATOM      2  O   UNL     1       1.042   3.863  17.408  0.00  0.00    +0.000 OA
ENDROOT
BRANCH   1   3
ATOM      3  C   UNL     1       3.253   3.090  17.525  0.00  0.00    +0.000 C 
ATOM      4  O   UNL     1       3.796   2.004  17.492  0.00  0.00    +0.000 OA
ATOM      5  N   UNL     1       3.799   4.316  17.133  0.00  0.00    +0.000 N 
ATOM      6  H   UNL     1       3.208   5.117  17.294  0.00  0.00    +0.000 HD
BRANCH   5   7
ATOM      7  C   UNL     1       5.164   4.561  16.651  0.00  0.00    +0.000 C 
BRANCH   7   8
ATOM      8  C   UNL     1       5.241   4.926  15.150  0.00  0.00    +0.000 C 
BRANCH   8   9
ATOM      9  C   UNL     1       6.279   4.118  14.335  0.00  0.00    +0.000 C 
ATOM     10  C   UNL     1       5.714   3.529  13.040  0.00  0.00    +0.000 C 
ATOM     11  C   UNL     1       7.469   5.015  13.998  0.00  0.00    +0.000 C 
ENDBRANCH   8   9
ENDBRANCH   7   8
BRANCH   7  12
ATOM     12  C   UNL     1       5.776   5.679  17.509  0.00  0.00    +0.000 C 
BRANCH  12  13
ATOM     13  C   UNL     1       6.202   5.229  18.910  0.00  0.00    +0.000 C 
BRANCH  13  14
ATOM     14  C   UNL     1       7.520   5.852  19.292  0.00  0.00    +0.000 C 
ATOM     15  O   UNL     1       8.087   6.735  18.671  0.00  0.00    +0.000 OA
BRANCH  14  16
ATOM     16  O   UNL     1       8.016   5.348  20.450  0.00  0.00    +0.000 OA
ATOM     17  H   UNL     1       7.338   5.037  21.076  0.00  0.00    +0.000 HD
ENDBRANCH  14  16
ENDBRANCH  13  14
ENDBRANCH  12  13
ENDBRANCH   7  12
ENDBRANCH   5   7
ENDBRANCH   1   3
BRANCH   1  18
ATOM     18  C   UNL     1       1.506   2.354  19.258  0.00  0.00    +0.000 C 
BRANCH  18  19
ATOM     19  C   UNL     1       2.144   3.049  20.465  0.00  0.00    +0.000 C 
BRANCH  19  20
ATOM     20  C   UNL     1       1.322   4.230  20.928  0.00  0.00    +0.000 C 
BRANCH  20  21
ATOM     21  C   UNL     1       1.991   5.527  20.482  0.00  0.00    +0.000 C 
BRANCH  21  22
ATOM     22  C   UNL     1       1.281   6.708  21.121  0.00  0.00    +0.000 C 
BRANCH  22  23
ATOM     23  C   UNL     1       1.627   7.987  20.380  0.00  0.00    +0.000 C 
BRANCH  23  24
ATOM     24  C   UNL     1       1.002   9.173  21.092  0.00  0.00    +0.000 C 
BRANCH  24  25
ATOM     25  C   UNL     1      -0.011   9.848  20.185  0.00  0.00    +0.000 C 
BRANCH  25  26
ATOM     26  C   UNL     1       0.524   9.908  18.764  0.00  0.00    +0.000 C 
BRANCH  26  27
ATOM     27  C   UNL     1      -0.628   9.923  17.774  0.00  0.00    +0.000 C 
BRANCH  27  28
ATOM     28  C   UNL     1      -1.891  10.440  18.445  0.00  0.00    +0.000 C 
BRANCH  28  29
ATOM     29  C   UNL     1      -2.984  10.659  17.411  0.00  0.00    +0.000 C 
BRANCH  29  31
ATOM     30  C   UNL     1      -3.010  10.413  14.925  0.00  0.00    +0.000 C 
ATOM     31  C   UNL     1      -2.824   9.692  16.245  0.00  0.00    +0.000 C 
ENDBRANCH  29  31
ENDBRANCH  28  29
ENDBRANCH  27  28
ENDBRANCH  26  27
ENDBRANCH  25  26
ENDBRANCH  24  25
ENDBRANCH  23  24
ENDBRANCH  22  23
ENDBRANCH  21  22
ENDBRANCH  20  21
ENDBRANCH  19  20
ENDBRANCH  18  19
ENDBRANCH   1  18
TORSDOF 21
ENDMDL
MODEL 2
REMARK VINA RESULT:      -6.1      4.702      8.282
REMARK  Name = 
REMARK  24 active torsions:
REMARK  status: ('A' for Active; 'I' for Inactive)
REMARK    1  A    between atoms: C_1  and  C_2
REMARK    2  A    between atoms: C_2  and  C_3
REMARK    3  A    between atoms: C_3  and  C_4
REMARK    4  A    between atoms: C_4  and  C_5
REMARK    5  A    between atoms: C_5  and  C_6
REMARK    6  A    between atoms: C_6  and  C_7
REMARK    7  A    between atoms: C_7  and  C_8
REMARK    8  A    between atoms: C_8  and  C_9
REMARK    9  A    between atoms: C_9  and  C_10
REMARK   10  A    between atoms: C_10  and  C_11
REMARK   11  A    between atoms: C_11  and  C_12
REMARK   12  A    between atoms: C_12  and  C_13
REMARK   13  A    between atoms: C_13  and  C_14
REMARK   14  A    between atoms: C_14  and  C_15
REMARK   15  A    between atoms: C_15  and  C_17
REMARK   16  A    between atoms: N_19  and  C_20
REMARK   17  A    between atoms: C_20  and  C_21
REMARK   18  A    between atoms: C_20  and  C_26
REMARK   19  A    between atoms: C_21  and  C_22
REMARK   20  A    between atoms: C_22  and  C_23
REMARK   21  A    between atoms: C_23  and  O_25
REMARK   22  A    between atoms: C_26  and  C_27
REMARK   23  A    between atoms: C_27  and  C_28
REMARK   24  A    between atoms: C_27  and  C_29
REMARK                            x       y       z     vdW  Elec       q    Type
REMARK                         _______ _______ _______ _____ _____    ______ ____
ROOT
ATOM      1  C   UNL     1       6.023   4.485  16.662  0.00  0.00    +0.000 C 
ATOM      2  O   UNL     1       5.518   3.915  15.694  0.00  0.00    +0.000 OA
ENDROOT
BRANCH   1   3
ATOM      3  C   UNL     1       5.305   4.398  17.979  0.00  0.00    +0.000 C 
ATOM      4  O   UNL     1       5.939   4.035  18.949  0.00  0.00    +0.000 OA
ATOM      5  N   UNL     1       3.956   4.764  17.944  0.00  0.00    +0.000 N 
ATOM      6  H   UNL     1       3.597   4.979  17.027  0.00  0.00    +0.000 HD
BRANCH   5   7
ATOM      7  C   UNL     1       3.004   4.734  19.061  0.00  0.00    +0.000 C 
BRANCH   7   8
ATOM      8  C   UNL     1       2.976   6.036  19.895  0.00  0.00    +0.000 C 
BRANCH   8   9
ATOM      9  C   UNL     1       2.026   7.132  19.360  0.00  0.00    +0.000 C 
ATOM     10  C   UNL     1       1.594   8.141  20.428  0.00  0.00    +0.000 C 
ATOM     11  C   UNL     1       2.707   7.880  18.215  0.00  0.00    +0.000 C 
ENDBRANCH   8   9
ENDBRANCH   7   8
BRANCH   7  12
ATOM     12  C   UNL     1       1.611   4.431  18.488  0.00  0.00    +0.000 C 
BRANCH  12  13
ATOM     13  C   UNL     1       0.805   3.416  19.306  0.00  0.00    +0.000 C 
BRANCH  13  14
ATOM     14  C   UNL     1       1.712   2.368  19.896  0.00  0.00    +0.000 C 
ATOM     15  O   UNL     1       2.445   1.632  19.258  0.00  0.00    +0.000 OA
BRANCH  14  16
ATOM     16  O   UNL     1       1.663   2.342  21.251  0.00  0.00    +0.000 OA
ATOM     17  H   UNL     1       2.462   1.981  21.675  0.00  0.00    +0.000 HD
ENDBRANCH  14  16
ENDBRANCH  13  14
ENDBRANCH  12  13
ENDBRANCH   7  12
ENDBRANCH   5   7
ENDBRANCH   1   3
BRANCH   1  18
ATOM     18  C   UNL     1       7.318   5.253  16.633  0.00  0.00    +0.000 C 
BRANCH  18  19
ATOM     19  C   UNL     1       7.001   6.735  16.854  0.00  0.00    +0.000 C 
BRANCH  19  20
ATOM     20  C   UNL     1       7.759   7.299  18.033  0.00  0.00    +0.000 C 
BRANCH  20  21
ATOM     21  C   UNL     1       8.001   8.791  17.822  0.00  0.00    +0.000 C 
BRANCH  21  22
ATOM     22  C   UNL     1       8.993   9.295  18.855  0.00  0.00    +0.000 C 
BRANCH  22  23
ATOM     23  C   UNL     1       9.066  10.810  18.814  0.00  0.00    +0.000 C 
BRANCH  23  24
ATOM     24  C   UNL     1      10.140  11.243  17.833  0.00  0.00    +0.000 C 
BRANCH  24  25
ATOM     25  C   UNL     1      11.416  11.589  18.579  0.00  0.00    +0.000 C 
BRANCH  25  26
ATOM     26  C   UNL     1      11.083  12.065  19.982  0.00  0.00    +0.000 C 
BRANCH  26  27
ATOM     27  C   UNL     1      11.422  13.538  20.127  0.00  0.00    +0.000 C 
BRANCH  27  28
ATOM     28  C   UNL     1      10.181  14.327  20.516  0.00  0.00    +0.000 C 
BRANCH  28  29
ATOM     29  C   UNL     1       9.452  14.809  19.272  0.00  0.00    +0.000 C 
BRANCH  29  31
ATOM     30  C   UNL     1       7.494  14.180  17.853  0.00  0.00    +0.000 C 
ATOM     31  C   UNL     1       8.008  14.322  19.272  0.00  0.00    +0.000 C 
ENDBRANCH  29  31
ENDBRANCH  28  29
ENDBRANCH  27  28
ENDBRANCH  26  27
ENDBRANCH  25  26
ENDBRANCH  24  25
ENDBRANCH  23  24
ENDBRANCH  22  23
ENDBRANCH  21  22
ENDBRANCH  20  21
ENDBRANCH  19  20
ENDBRANCH  18  19
ENDBRANCH   1  18
TORSDOF 21
ENDMDL
MODEL 3
REMARK VINA RESULT:      -6.0      5.896      9.301
REMARK  Name = 
REMARK  24 active torsions:
REMARK  status: ('A' for Active; 'I' for Inactive)
REMARK    1  A    between atoms: C_1  and  C_2
REMARK    2  A    between atoms: C_2  and  C_3
REMARK    3  A    between atoms: C_3  and  C_4
REMARK    4  A    between atoms: C_4  and  C_5
REMARK    5  A    between atoms: C_5  and  C_6
REMARK    6  A    between atoms: C_6  and  C_7
REMARK    7  A    between atoms: C_7  and  C_8
REMARK    8  A    between atoms: C_8  and  C_9
REMARK    9  A    between atoms: C_9  and  C_10
REMARK   10  A    between atoms: C_10  and  C_11
REMARK   11  A    between atoms: C_11  and  C_12
REMARK   12  A    between atoms: C_12  and  C_13
REMARK   13  A    between atoms: C_13  and  C_14
REMARK   14  A    between atoms: C_14  and  C_15
REMARK   15  A    between atoms: C_15  and  C_17
REMARK   16  A    between atoms: N_19  and  C_20
REMARK   17  A    between atoms: C_20  and  C_21
REMARK   18  A    between atoms: C_20  and  C_26
REMARK   19  A    between atoms: C_21  and  C_22
REMARK   20  A    between atoms: C_22  and  C_23
REMARK   21  A    between atoms: C_23  and  O_25
REMARK   22  A    between atoms: C_26  and  C_27
REMARK   23  A    between atoms: C_27  and  C_28
REMARK   24  A    between atoms: C_27  and  C_29
REMARK                            x       y       z     vdW  Elec       q    Type
REMARK                         _______ _______ _______ _____ _____    ______ ____
ROOT
ATOM      1  C   UNL     1       7.252   5.480  17.847  0.00  0.00    +0.000 C 
ATOM      2  O   UNL     1       7.828   4.702  17.085  0.00  0.00    +0.000 OA
ENDROOT
BRANCH   1   3
ATOM      3  C   UNL     1       5.852   5.140  18.269  0.00  0.00    +0.000 C 
ATOM      4  O   UNL     1       5.683   4.128  18.918  0.00  0.00    +0.000 OA
ATOM      5  N   UNL     1       4.873   6.054  17.867  0.00  0.00    +0.000 N 
ATOM      6  H   UNL     1       5.205   6.804  17.281  0.00  0.00    +0.000 HD
BRANCH   5   7
ATOM      7  C   UNL     1       3.426   5.956  18.097  0.00  0.00    +0.000 C 
BRANCH   7   8
ATOM      8  C   UNL     1       3.048   5.483  19.520  0.00  0.00    +0.000 C 
BRANCH   8   9
ATOM      9  C   UNL     1       2.272   4.147  19.578  0.00  0.00    +0.000 C 
ATOM     10  C   UNL     1       1.020   4.206  20.458  0.00  0.00    +0.000 C 
ATOM     11  C   UNL     1       1.869   3.732  18.164  0.00  0.00    +0.000 C 
ENDBRANCH   8   9
ENDBRANCH   7   8
BRANCH   7  12
ATOM     12  C   UNL     1       2.807   7.332  17.804  0.00  0.00    +0.000 C 
BRANCH  12  13
ATOM     13  C   UNL     1       2.139   7.987  19.018  0.00  0.00    +0.000 C 
BRANCH  13  14
ATOM     14  C   UNL     1       1.530   9.313  18.639  0.00  0.00    +0.000 C 
ATOM     15  O   UNL     1       0.796   9.979  19.350  0.00  0.00    +0.000 OA
BRANCH  14  16
ATOM     16  O   UNL     1       1.917   9.729  17.408  0.00  0.00    +0.000 OA
ATOM     17  H   UNL     1       2.769  10.201  17.392  0.00  0.00    +0.000 HD
ENDBRANCH  14  16
ENDBRANCH  13  14
ENDBRANCH  12  13
ENDBRANCH   7  12
ENDBRANCH   5   7
ENDBRANCH   1   3
BRANCH   1  18
ATOM     18  C   UNL     1       7.853   6.744  18.405  0.00  0.00    +0.000 C 
BRANCH  18  19
ATOM     19  C   UNL     1       7.527   7.892  17.445  0.00  0.00    +0.000 C 
BRANCH  19  20
ATOM     20  C   UNL     1       8.386   9.107  17.715  0.00  0.00    +0.000 C 
BRANCH  20  21
ATOM     21  C   UNL     1       8.648   9.227  19.213  0.00  0.00    +0.000 C 
BRANCH  21  22
ATOM     22  C   UNL     1       9.647  10.343  19.464  0.00  0.00    +0.000 C 
BRANCH  22  23
ATOM     23  C   UNL     1       9.740  11.245  18.247  0.00  0.00    +0.000 C 
BRANCH  23  24
ATOM     24  C   UNL     1      11.196  11.434  17.862  0.00  0.00    +0.000 C 
BRANCH  24  25
ATOM     25  C   UNL     1      11.955  12.087  19.003  0.00  0.00    +0.000 C 
BRANCH  25  26
ATOM     26  C   UNL     1      12.000  13.592  18.801  0.00  0.00    +0.000 C 
BRANCH  26  27
ATOM     27  C   UNL     1      11.196  14.288  19.885  0.00  0.00    +0.000 C 
BRANCH  27  28
ATOM     28  C   UNL     1      11.099  15.777  19.593  0.00  0.00    +0.000 C 
BRANCH  28  29
ATOM     29  C   UNL     1      12.333  16.247  18.838  0.00  0.00    +0.000 C 
BRANCH  29  31
ATOM     30  C   UNL     1      10.956  16.332  16.756  0.00  0.00    +0.000 C 
ATOM     31  C   UNL     1      11.939  17.086  17.630  0.00  0.00    +0.000 C 
ENDBRANCH  29  31
ENDBRANCH  28  29
ENDBRANCH  27  28
ENDBRANCH  26  27
ENDBRANCH  25  26
ENDBRANCH  24  25
ENDBRANCH  23  24
ENDBRANCH  22  23
ENDBRANCH  21  22
ENDBRANCH  20  21
ENDBRANCH  19  20
ENDBRANCH  18  19
ENDBRANCH   1  18
TORSDOF 21
ENDMDL
MODEL 4
REMARK VINA RESULT:      -5.9      4.306      8.954
REMARK  Name = 
REMARK  24 active torsions:
REMARK  status: ('A' for Active; 'I' for Inactive)
REMARK    1  A    between atoms: C_1  and  C_2
REMARK    2  A    between atoms: C_2  and  C_3
REMARK    3  A    between atoms: C_3  and  C_4
REMARK    4  A    between atoms: C_4  and  C_5
REMARK    5  A    between atoms: C_5  and  C_6
REMARK    6  A    between atoms: C_6  and  C_7
REMARK    7  A    between atoms: C_7  and  C_8
REMARK    8  A    between atoms: C_8  and  C_9
REMARK    9  A    between atoms: C_9  and  C_10
REMARK   10  A    between atoms: C_10  and  C_11
REMARK   11  A    between atoms: C_11  and  C_12
REMARK   12  A    between atoms: C_12  and  C_13
REMARK   13  A    between atoms: C_13  and  C_14
REMARK   14  A    between atoms: C_14  and  C_15
REMARK   15  A    between atoms: C_15  and  C_17
REMARK   16  A    between atoms: N_19  and  C_20
REMARK   17  A    between atoms: C_20  and  C_21
REMARK   18  A    between atoms: C_20  and  C_26
REMARK   19  A    between atoms: C_21  and  C_22
REMARK   20  A    between atoms: C_22  and  C_23
REMARK   21  A    between atoms: C_23  and  O_25
REMARK   22  A    between atoms: C_26  and  C_27
REMARK   23  A    between atoms: C_27  and  C_28
REMARK   24  A    between atoms: C_27  and  C_29
REMARK                            x       y       z     vdW  Elec       q    Type
REMARK                         _______ _______ _______ _____ _____    ______ ____
ROOT
ATOM      1  C   UNL     1       0.318   8.577  21.330  0.00  0.00    +0.000 C 
ATOM      2  O   UNL     1      -0.737   8.084  21.732  0.00  0.00    +0.000 OA
ENDROOT
BRANCH   1   3
ATOM      3  C   UNL     1       0.427  10.075  21.308  0.00  0.00    +0.000 C 
ATOM      4  O   UNL     1       1.300  10.592  21.975  0.00  0.00    +0.000 OA
ATOM      5  N   UNL     1      -0.504  10.724  20.492  0.00  0.00    +0.000 N 
ATOM      6  H   UNL     1      -1.190  10.122  20.063  0.00  0.00    +0.000 HD
BRANCH   5   7
ATOM      7  C   UNL     1      -0.662  12.174  20.312  0.00  0.00    +0.000 C 
BRANCH   7   8
ATOM      8  C   UNL     1      -0.011  12.718  19.019  0.00  0.00    +0.000 C 
BRANCH   8   9
ATOM      9  C   UNL     1       1.530  12.834  19.064  0.00  0.00    +0.000 C 
ATOM     10  C   UNL     1       2.248  11.786  18.210  0.00  0.00    +0.000 C 
ATOM     11  C   UNL     1       1.949  14.228  18.598  0.00  0.00    +0.000 C 
ENDBRANCH   8   9
ENDBRANCH   7   8
BRANCH   7  12
ATOM     12  C   UNL     1      -2.164  12.493  20.335  0.00  0.00    +0.000 C 
BRANCH  12  13
ATOM     13  C   UNL     1      -2.637  13.186  21.617  0.00  0.00    +0.000 C 
BRANCH  13  14
ATOM     14  C   UNL     1      -1.951  12.598  22.824  0.00  0.00    +0.000 C 
ATOM     15  O   UNL     1      -2.117  11.466  23.246  0.00  0.00    +0.000 OA
BRANCH  14  16
ATOM     16  O   UNL     1      -1.073  13.461  23.394  0.00  0.00    +0.000 OA
ATOM     17  H   UNL     1      -1.445  13.988  24.124  0.00  0.00    +0.000 HD
ENDBRANCH  14  16
ENDBRANCH  13  14
ENDBRANCH  12  13
ENDBRANCH   7  12
ENDBRANCH   5   7
ENDBRANCH   1   3
BRANCH   1  18
ATOM     18  C   UNL     1       1.519   7.791  20.873  0.00  0.00    +0.000 C 
BRANCH  18  19
ATOM     19  C   UNL     1       1.842   8.204  19.434  0.00  0.00    +0.000 C 
BRANCH  19  20
ATOM     20  C   UNL     1       2.403   7.051  18.634  0.00  0.00    +0.000 C 
BRANCH  20  21
ATOM     21  C   UNL     1       3.481   7.563  17.684  0.00  0.00    +0.000 C 
BRANCH  21  22
ATOM     22  C   UNL     1       4.330   6.398  17.207  0.00  0.00    +0.000 C 
BRANCH  22  23
ATOM     23  C   UNL     1       5.001   5.723  18.389  0.00  0.00    +0.000 C 
BRANCH  23  24
ATOM     24  C   UNL     1       4.565   4.270  18.463  0.00  0.00    +0.000 C 
BRANCH  24  25
ATOM     25  C   UNL     1       4.013   3.825  17.120  0.00  0.00    +0.000 C 
BRANCH  25  26
ATOM     26  C   UNL     1       2.581   3.344  17.282  0.00  0.00    +0.000 C 
BRANCH  26  27
ATOM     27  C   UNL     1       2.560   1.996  17.980  0.00  0.00    +0.000 C 
BRANCH  27  28
ATOM     28  C   UNL     1       1.684   2.060  19.221  0.00  0.00    +0.000 C 
BRANCH  28  29
ATOM     29  C   UNL     1       1.024   3.426  19.330  0.00  0.00    +0.000 C 
BRANCH  29  31
ATOM     30  C   UNL     1       2.058   3.093  21.579  0.00  0.00    +0.000 C 
ATOM     31  C   UNL     1       1.345   4.074  20.670  0.00  0.00    +0.000 C 
ENDBRANCH  29  31
ENDBRANCH  28  29
ENDBRANCH  27  28
ENDBRANCH  26  27
ENDBRANCH  25  26
ENDBRANCH  24  25
ENDBRANCH  23  24
ENDBRANCH  22  23
ENDBRANCH  21  22
ENDBRANCH  20  21
ENDBRANCH  19  20
ENDBRANCH  18  19
ENDBRANCH   1  18
TORSDOF 21
ENDMDL
MODEL 5
REMARK VINA RESULT:      -5.9      3.629      9.228
REMARK  Name = 
REMARK  24 active torsions:
REMARK  status: ('A' for Active; 'I' for Inactive)
REMARK    1  A    between atoms: C_1  and  C_2
REMARK    2  A    between atoms: C_2  and  C_3
REMARK    3  A    between atoms: C_3  and  C_4
REMARK    4  A    between atoms: C_4  and  C_5
REMARK    5  A    between atoms: C_5  and  C_6
REMARK    6  A    between atoms: C_6  and  C_7
REMARK    7  A    between atoms: C_7  and  C_8
REMARK    8  A    between atoms: C_8  and  C_9
REMARK    9  A    between atoms: C_9  and  C_10
REMARK   10  A    between atoms: C_10  and  C_11
REMARK   11  A    between atoms: C_11  and  C_12
REMARK   12  A    between atoms: C_12  and  C_13
REMARK   13  A    between atoms: C_13  and  C_14
REMARK   14  A    between atoms: C_14  and  C_15
REMARK   15  A    between atoms: C_15  and  C_17
REMARK   16  A    between atoms: N_19  and  C_20
REMARK   17  A    between atoms: C_20  and  C_21
REMARK   18  A    between atoms: C_20  and  C_26
REMARK   19  A    between atoms: C_21  and  C_22
REMARK   20  A    between atoms: C_22  and  C_23
REMARK   21  A    between atoms: C_23  and  O_25
REMARK   22  A    between atoms: C_26  and  C_27
REMARK   23  A    between atoms: C_27  and  C_28
REMARK   24  A    between atoms: C_27  and  C_29
REMARK                            x       y       z     vdW  Elec       q    Type
REMARK                         _______ _______ _______ _____ _____    ______ ____
ROOT
ATOM      1  C   UNL     1       1.158   8.959  19.820  0.00  0.00    +0.000 C 
ATOM      2  O   UNL     1       1.794   8.505  20.774  0.00  0.00    +0.000 OA
ENDROOT
BRANCH   1   3
ATOM      3  C   UNL     1      -0.063   9.779  20.120  0.00  0.00    +0.000 C 
ATOM      4  O   UNL     1      -0.495   9.764  21.255  0.00  0.00    +0.000 OA
ATOM      5  N   UNL     1      -0.576  10.496  19.035  0.00  0.00    +0.000 N 
ATOM      6  H   UNL     1      -0.112  10.330  18.156  0.00  0.00    +0.000 HD
BRANCH   5   7
ATOM      7  C   UNL     1      -1.778  11.341  19.024  0.00  0.00    +0.000 C 
BRANCH   7   8
ATOM      8  C   UNL     1      -1.615  12.673  19.792  0.00  0.00    +0.000 C 
BRANCH   8   9
ATOM      9  C   UNL     1      -0.197  13.287  19.739  0.00  0.00    +0.000 C 
ATOM     10  C   UNL     1      -0.077  14.466  18.770  0.00  0.00    +0.000 C 
ATOM     11  C   UNL     1       0.210  13.747  21.138  0.00  0.00    +0.000 C 
ENDBRANCH   8   9
ENDBRANCH   7   8
BRANCH   7  12
ATOM     12  C   UNL     1      -2.155  11.606  17.558  0.00  0.00    +0.000 C 
BRANCH  12  13
ATOM     13  C   UNL     1      -2.314  10.336  16.714  0.00  0.00    +0.000 C 
BRANCH  13  14
ATOM     14  C   UNL     1      -2.834  10.671  15.340  0.00  0.00    +0.000 C 
ATOM     15  O   UNL     1      -2.620  10.023  14.330  0.00  0.00    +0.000 OA
BRANCH  14  16
ATOM     16  O   UNL     1      -3.620  11.777  15.338  0.00  0.00    +0.000 OA
ATOM     17  H   UNL     1      -3.465  12.378  14.587  0.00  0.00    +0.000 HD
ENDBRANCH  14  16
ENDBRANCH  13  14
ENDBRANCH  12  13
ENDBRANCH   7  12
ENDBRANCH   5   7
ENDBRANCH   1   3
BRANCH   1  18
ATOM     18  C   UNL     1       1.522   8.768  18.371  0.00  0.00    +0.000 C 
BRANCH  18  19
ATOM     19  C   UNL     1       2.734   7.833  18.302  0.00  0.00    +0.000 C 
BRANCH  19  20
ATOM     20  C   UNL     1       2.340   6.391  18.527  0.00  0.00    +0.000 C 
BRANCH  20  21
ATOM     21  C   UNL     1       3.219   5.784  19.616  0.00  0.00    +0.000 C 
BRANCH  21  22
ATOM     22  C   UNL     1       2.353   4.997  20.585  0.00  0.00    +0.000 C 
BRANCH  22  23
ATOM     23  C   UNL     1       1.231   4.302  19.836  0.00  0.00    +0.000 C 
BRANCH  23  24
ATOM     24  C   UNL     1       1.611   2.856  19.574  0.00  0.00    +0.000 C 
BRANCH  24  25
ATOM     25  C   UNL     1       1.876   2.648  18.094  0.00  0.00    +0.000 C 
BRANCH  25  26
ATOM     26  C   UNL     1       3.250   2.031  17.895  0.00  0.00    +0.000 C 
BRANCH  26  27
ATOM     27  C   UNL     1       4.317   3.111  17.931  0.00  0.00    +0.000 C 
BRANCH  27  28
ATOM     28  C   UNL     1       4.284   3.925  16.647  0.00  0.00    +0.000 C 
BRANCH  28  29
ATOM     29  C   UNL     1       5.619   3.826  15.927  0.00  0.00    +0.000 C 
BRANCH  29  31
ATOM     30  C   UNL     1       5.148   6.279  15.972  0.00  0.00    +0.000 C 
ATOM     31  C   UNL     1       6.162   5.213  15.606  0.00  0.00    +0.000 C 
ENDBRANCH  29  31
ENDBRANCH  28  29
ENDBRANCH  27  28
ENDBRANCH  26  27
ENDBRANCH  25  26
ENDBRANCH  24  25
ENDBRANCH  23  24
ENDBRANCH  22  23
ENDBRANCH  21  22
ENDBRANCH  20  21
ENDBRANCH  19  20
ENDBRANCH  18  19
ENDBRANCH   1  18
TORSDOF 21
ENDMDL
MODEL 6
REMARK VINA RESULT:      -5.9      3.595      8.883
REMARK  Name = 
REMARK  24 active torsions:
REMARK  status: ('A' for Active; 'I' for Inactive)
REMARK    1  A    between atoms: C_1  and  C_2
REMARK    2  A    between atoms: C_2  and  C_3
REMARK    3  A    between atoms: C_3  and  C_4
REMARK    4  A    between atoms: C_4  and  C_5
REMARK    5  A    between atoms: C_5  and  C_6
REMARK    6  A    between atoms: C_6  and  C_7
REMARK    7  A    between atoms: C_7  and  C_8
REMARK    8  A    between atoms: C_8  and  C_9
REMARK    9  A    between atoms: C_9  and  C_10
REMARK   10  A    between atoms: C_10  and  C_11
REMARK   11  A    between atoms: C_11  and  C_12
REMARK   12  A    between atoms: C_12  and  C_13
REMARK   13  A    between atoms: C_13  and  C_14
REMARK   14  A    between atoms: C_14  and  C_15
REMARK   15  A    between atoms: C_15  and  C_17
REMARK   16  A    between atoms: N_19  and  C_20
REMARK   17  A    between atoms: C_20  and  C_21
REMARK   18  A    between atoms: C_20  and  C_26
REMARK   19  A    between atoms: C_21  and  C_22
REMARK   20  A    between atoms: C_22  and  C_23
REMARK   21  A    between atoms: C_23  and  O_25
REMARK   22  A    between atoms: C_26  and  C_27
REMARK   23  A    between atoms: C_27  and  C_28
REMARK   24  A    between atoms: C_27  and  C_29
REMARK                            x       y       z     vdW  Elec       q    Type
REMARK                         _______ _______ _______ _____ _____    ______ ____
ROOT
ATOM      1  C   UNL     1       1.824   8.642  18.954  0.00  0.00    +0.000 C 
ATOM      2  O   UNL     1       2.656   8.481  18.060  0.00  0.00    +0.000 OA
ENDROOT
BRANCH   1   3
ATOM      3  C   UNL     1       0.833   9.759  18.794  0.00  0.00    +0.000 C 
ATOM      4  O   UNL     1       0.070   9.714  17.851  0.00  0.00    +0.000 OA
ATOM      5  N   UNL     1       0.891  10.748  19.781  0.00  0.00    +0.000 N 
ATOM      6  H   UNL     1       1.636  10.639  20.451  0.00  0.00    +0.000 HD
BRANCH   5   7
ATOM      7  C   UNL     1       0.080  11.971  19.856  0.00  0.00    +0.000 C 
BRANCH   7   8
ATOM      8  C   UNL     1      -1.086  11.888  20.867  0.00  0.00    +0.000 C 
BRANCH   8   9
ATOM      9  C   UNL     1      -0.664  11.919  22.354  0.00  0.00    +0.000 C 
ATOM     10  C   UNL     1      -1.395  12.985  23.175  0.00  0.00    +0.000 C 
ATOM     11  C   UNL     1      -0.912  10.549  22.982  0.00  0.00    +0.000 C 
ENDBRANCH   8   9
ENDBRANCH   7   8
BRANCH   7  12
ATOM     12  C   UNL     1       1.016  13.138  20.206  0.00  0.00    +0.000 C 
BRANCH  12  13
ATOM     13  C   UNL     1       1.280  14.099  19.042  0.00  0.00    +0.000 C 
BRANCH  13  14
ATOM     14  C   UNL     1       2.549  13.726  18.320  0.00  0.00    +0.000 C 
ATOM     15  O   UNL     1       3.612  14.316  18.416  0.00  0.00    +0.000 OA
BRANCH  14  16
ATOM     16  O   UNL     1       2.405  12.614  17.558  0.00  0.00    +0.000 OA
ATOM     17  H   UNL     1       2.321  11.786  18.065  0.00  0.00    +0.000 HD
ENDBRANCH  14  16
ENDBRANCH  13  14
ENDBRANCH  12  13
ENDBRANCH   7  12
ENDBRANCH   5   7
ENDBRANCH   1   3
BRANCH   1  18
ATOM     18  C   UNL     1       1.711   7.791  20.192  0.00  0.00    +0.000 C 
BRANCH  18  19
ATOM     19  C   UNL     1       2.442   6.471  19.932  0.00  0.00    +0.000 C 
BRANCH  19  20
ATOM     20  C   UNL     1       2.029   5.401  20.917  0.00  0.00    +0.000 C 
BRANCH  20  21
ATOM     21  C   UNL     1       0.885   4.579  20.332  0.00  0.00    +0.000 C 
BRANCH  21  22
ATOM     22  C   UNL     1       1.214   3.101  20.444  0.00  0.00    +0.000 C 
BRANCH  22  23
ATOM     23  C   UNL     1       2.383   2.756  19.541  0.00  0.00    +0.000 C 
BRANCH  23  24
ATOM     24  C   UNL     1       1.881   2.508  18.129  0.00  0.00    +0.000 C 
BRANCH  24  25
ATOM     25  C   UNL     1       2.897   3.014  17.121  0.00  0.00    +0.000 C 
BRANCH  25  26
ATOM     26  C   UNL     1       3.420   4.375  17.550  0.00  0.00    +0.000 C 
BRANCH  26  27
ATOM     27  C   UNL     1       4.936   4.398  17.474  0.00  0.00    +0.000 C 
BRANCH  27  28
ATOM     28  C   UNL     1       5.401   3.938  16.100  0.00  0.00    +0.000 C 
BRANCH  28  29
ATOM     29  C   UNL     1       6.736   4.577  15.755  0.00  0.00    +0.000 C 
BRANCH  29  31
ATOM     30  C   UNL     1       6.058   3.758  13.495  0.00  0.00    +0.000 C 
ATOM     31  C   UNL     1       6.854   4.802  14.253  0.00  0.00    +0.000 C 
ENDBRANCH  29  31
ENDBRANCH  28  29
ENDBRANCH  27  28
ENDBRANCH  26  27
ENDBRANCH  25  26
ENDBRANCH  24  25
ENDBRANCH  23  24
ENDBRANCH  22  23
ENDBRANCH  21  22
ENDBRANCH  20  21
ENDBRANCH  19  20
ENDBRANCH  18  19
ENDBRANCH   1  18
TORSDOF 21
ENDMDL
MODEL 7
REMARK VINA RESULT:      -5.9      4.062      9.026
REMARK  Name = 
REMARK  24 active torsions:
REMARK  status: ('A' for Active; 'I' for Inactive)
REMARK    1  A    between atoms: C_1  and  C_2
REMARK    2  A    between atoms: C_2  and  C_3
REMARK    3  A    between atoms: C_3  and  C_4
REMARK    4  A    between atoms: C_4  and  C_5
REMARK    5  A    between atoms: C_5  and  C_6
REMARK    6  A    between atoms: C_6  and  C_7
REMARK    7  A    between atoms: C_7  and  C_8
REMARK    8  A    between atoms: C_8  and  C_9
REMARK    9  A    between atoms: C_9  and  C_10
REMARK   10  A    between atoms: C_10  and  C_11
REMARK   11  A    between atoms: C_11  and  C_12
REMARK   12  A    between atoms: C_12  and  C_13
REMARK   13  A    between atoms: C_13  and  C_14
REMARK   14  A    between atoms: C_14  and  C_15
REMARK   15  A    between atoms: C_15  and  C_17
REMARK   16  A    between atoms: N_19  and  C_20
REMARK   17  A    between atoms: C_20  and  C_21
REMARK   18  A    between atoms: C_20  and  C_26
REMARK   19  A    between atoms: C_21  and  C_22
REMARK   20  A    between atoms: C_22  and  C_23
REMARK   21  A    between atoms: C_23  and  O_25
REMARK   22  A    between atoms: C_26  and  C_27
REMARK   23  A    between atoms: C_27  and  C_28
REMARK   24  A    between atoms: C_27  and  C_29
REMARK                            x       y       z     vdW  Elec       q    Type
REMARK                         _______ _______ _______ _____ _____    ______ ____
ROOT
ATOM      1  C   UNL     1       1.695  10.311  18.321  0.00  0.00    +0.000 C 
ATOM      2  O   UNL     1       2.469  11.100  17.776  0.00  0.00    +0.000 OA
ENDROOT
BRANCH   1   3
ATOM      3  C   UNL     1       0.981  10.773  19.559  0.00  0.00    +0.000 C 
ATOM      4  O   UNL     1       1.016  10.056  20.538  0.00  0.00    +0.000 OA
ATOM      5  N   UNL     1       0.348  12.015  19.449  0.00  0.00    +0.000 N 
ATOM      6  H   UNL     1       0.381  12.431  18.531  0.00  0.00    +0.000 HD
BRANCH   5   7
ATOM      7  C   UNL     1      -0.457  12.690  20.476  0.00  0.00    +0.000 C 
BRANCH   7   8
ATOM      8  C   UNL     1      -1.514  11.779  21.142  0.00  0.00    +0.000 C 
BRANCH   8   9
ATOM      9  C   UNL     1      -1.507  11.795  22.688  0.00  0.00    +0.000 C 
ATOM     10  C   UNL     1      -2.864  12.147  23.302  0.00  0.00    +0.000 C 
ATOM     11  C   UNL     1      -1.063  10.429  23.209  0.00  0.00    +0.000 C 
ENDBRANCH   8   9
ENDBRANCH   7   8
BRANCH   7  12
ATOM     12  C   UNL     1       0.504  13.262  21.529  0.00  0.00    +0.000 C 
BRANCH  12  13
ATOM     13  C   UNL     1       1.380  14.410  21.018  0.00  0.00    +0.000 C 
BRANCH  13  14
ATOM     14  C   UNL     1       2.800  13.949  20.819  0.00  0.00    +0.000 C 
ATOM     15  O   UNL     1       3.642  13.862  21.697  0.00  0.00    +0.000 OA
BRANCH  14  16
ATOM     16  O   UNL     1       3.055  13.591  19.536  0.00  0.00    +0.000 OA
ATOM     17  H   UNL     1       3.992  13.657  19.278  0.00  0.00    +0.000 HD
ENDBRANCH  14  16
ENDBRANCH  13  14
ENDBRANCH  12  13
ENDBRANCH   7  12
ENDBRANCH   5   7
ENDBRANCH   1   3
BRANCH   1  18
ATOM     18  C   UNL     1       1.395   8.919  17.831  0.00  0.00    +0.000 C 
BRANCH  18  19
ATOM     19  C   UNL     1       2.611   8.036  18.125  0.00  0.00    +0.000 C 
BRANCH  19  20
ATOM     20  C   UNL     1       2.210   6.605  18.399  0.00  0.00    +0.000 C 
BRANCH  20  21
ATOM     21  C   UNL     1       2.873   6.123  19.685  0.00  0.00    +0.000 C 
BRANCH  21  22
ATOM     22  C   UNL     1       1.805   5.708  20.682  0.00  0.00    +0.000 C 
BRANCH  22  23
ATOM     23  C   UNL     1       0.997   4.549  20.129  0.00  0.00    +0.000 C 
BRANCH  23  24
ATOM     24  C   UNL     1       1.462   3.252  20.766  0.00  0.00    +0.000 C 
BRANCH  24  25
ATOM     25  C   UNL     1       2.405   2.521  19.827  0.00  0.00    +0.000 C 
BRANCH  25  26
ATOM     26  C   UNL     1       1.745   2.335  18.472  0.00  0.00    +0.000 C 
BRANCH  26  27
ATOM     27  C   UNL     1       2.491   3.130  17.415  0.00  0.00    +0.000 C 
BRANCH  27  28
ATOM     28  C   UNL     1       3.969   3.212  17.765  0.00  0.00    +0.000 C 
BRANCH  28  29
ATOM     29  C   UNL     1       4.763   3.734  16.578  0.00  0.00    +0.000 C 
BRANCH  29  31
ATOM     30  C   UNL     1       5.602   5.776  15.408  0.00  0.00    +0.000 C 
ATOM     31  C   UNL     1       4.763   5.258  16.558  0.00  0.00    +0.000 C 
ENDBRANCH  29  31
ENDBRANCH  28  29
ENDBRANCH  27  28
ENDBRANCH  26  27
ENDBRANCH  25  26
ENDBRANCH  24  25
ENDBRANCH  23  24
ENDBRANCH  22  23
ENDBRANCH  21  22
ENDBRANCH  20  21
ENDBRANCH  19  20
ENDBRANCH  18  19
ENDBRANCH   1  18
TORSDOF 21
ENDMDL
MODEL 8
REMARK VINA RESULT:      -5.9      2.159      3.459
REMARK  Name = 
REMARK  24 active torsions:
REMARK  status: ('A' for Active; 'I' for Inactive)
REMARK    1  A    between atoms: C_1  and  C_2
REMARK    2  A    between atoms: C_2  and  C_3
REMARK    3  A    between atoms: C_3  and  C_4
REMARK    4  A    between atoms: C_4  and  C_5
REMARK    5  A    between atoms: C_5  and  C_6
REMARK    6  A    between atoms: C_6  and  C_7
REMARK    7  A    between atoms: C_7  and  C_8
REMARK    8  A    between atoms: C_8  and  C_9
REMARK    9  A    between atoms: C_9  and  C_10
REMARK   10  A    between atoms: C_10  and  C_11
REMARK   11  A    between atoms: C_11  and  C_12
REMARK   12  A    between atoms: C_12  and  C_13
REMARK   13  A    between atoms: C_13  and  C_14
REMARK   14  A    between atoms: C_14  and  C_15
REMARK   15  A    between atoms: C_15  and  C_17
REMARK   16  A    between atoms: N_19  and  C_20
REMARK   17  A    between atoms: C_20  and  C_21
REMARK   18  A    between atoms: C_20  and  C_26
REMARK   19  A    between atoms: C_21  and  C_22
REMARK   20  A    between atoms: C_22  and  C_23
REMARK   21  A    between atoms: C_23  and  O_25
REMARK   22  A    between atoms: C_26  and  C_27
REMARK   23  A    between atoms: C_27  and  C_28
REMARK   24  A    between atoms: C_27  and  C_29
REMARK                            x       y       z     vdW  Elec       q    Type
REMARK                         _______ _______ _______ _____ _____    ______ ____
ROOT
ATOM      1  C   UNL     1       4.285   3.205  19.228  0.00  0.00    +0.000 C 
ATOM      2  O   UNL     1       5.007   2.359  19.760  0.00  0.00    +0.000 OA
ENDROOT
BRANCH   1   3
ATOM      3  C   UNL     1       4.586   3.589  17.808  0.00  0.00    +0.000 C 
ATOM      4  O   UNL     1       3.731   3.386  16.970  0.00  0.00    +0.000 OA
ATOM      5  N   UNL     1       5.844   4.164  17.604  0.00  0.00    +0.000 N 
ATOM      6  H   UNL     1       6.437   4.194  18.419  0.00  0.00    +0.000 HD
BRANCH   5   7
ATOM      7  C   UNL     1       6.422   4.593  16.323  0.00  0.00    +0.000 C 
BRANCH   7   8
ATOM      8  C   UNL     1       6.094   3.650  15.142  0.00  0.00    +0.000 C 
BRANCH   8   9
ATOM      9  C   UNL     1       6.154   4.310  13.745  0.00  0.00    +0.000 C 
ATOM     10  C   UNL     1       7.544   4.834  13.376  0.00  0.00    +0.000 C 
ATOM     11  C   UNL     1       5.703   3.303  12.688  0.00  0.00    +0.000 C 
ENDBRANCH   8   9
ENDBRANCH   7   8
BRANCH   7  12
ATOM     12  C   UNL     1       5.922   6.016  16.032  0.00  0.00    +0.000 C 
BRANCH  12  13
ATOM     13  C   UNL     1       5.928   6.943  17.253  0.00  0.00    +0.000 C 
BRANCH  13  14
ATOM     14  C   UNL     1       7.332   7.377  17.585  0.00  0.00    +0.000 C 
ATOM     15  O   UNL     1       7.909   8.331  17.089  0.00  0.00    +0.000 OA
BRANCH  14  16
ATOM     16  O   UNL     1       7.901   6.606  18.545  0.00  0.00    +0.000 OA
ATOM     17  H   UNL     1       7.311   6.391  19.289  0.00  0.00    +0.000 HD
ENDBRANCH  14  16
ENDBRANCH  13  14
ENDBRANCH  12  13
ENDBRANCH   7  12
ENDBRANCH   5   7
ENDBRANCH   1   3
BRANCH   1  18
ATOM     18  C   UNL     1       3.108   3.873  19.890  0.00  0.00    +0.000 C 
BRANCH  18  19
ATOM     19  C   UNL     1       3.328   5.388  19.838  0.00  0.00    +0.000 C 
BRANCH  19  20
ATOM     20  C   UNL     1       2.382   6.058  18.867  0.00  0.00    +0.000 C 
BRANCH  20  21
ATOM     21  C   UNL     1       2.346   7.558  19.139  0.00  0.00    +0.000 C 
BRANCH  21  22
ATOM     22  C   UNL     1       2.643   8.313  17.855  0.00  0.00    +0.000 C 
BRANCH  22  23
ATOM     23  C   UNL     1       1.975   9.675  17.883  0.00  0.00    +0.000 C 
BRANCH  23  24
ATOM     24  C   UNL     1       0.496   9.511  18.184  0.00  0.00    +0.000 C 
BRANCH  24  25
ATOM     25  C   UNL     1      -0.106  10.849  18.575  0.00  0.00    +0.000 C 
BRANCH  25  26
ATOM     26  C   UNL     1       0.748  11.508  19.644  0.00  0.00    +0.000 C 
BRANCH  26  27
ATOM     27  C   UNL     1       0.333  11.018  21.020  0.00  0.00    +0.000 C 
BRANCH  27  28
ATOM     28  C   UNL     1      -1.008  11.621  21.410  0.00  0.00    +0.000 C 
BRANCH  28  29
ATOM     29  C   UNL     1      -1.160  11.631  22.923  0.00  0.00    +0.000 C 
BRANCH  29  31
ATOM     30  C   UNL     1      -3.447  12.360  23.616  0.00  0.00    +0.000 C 
ATOM     31  C   UNL     1      -2.019  12.807  23.371  0.00  0.00    +0.000 C 
ENDBRANCH  29  31
ENDBRANCH  28  29
ENDBRANCH  27  28
ENDBRANCH  26  27
ENDBRANCH  25  26
ENDBRANCH  24  25
ENDBRANCH  23  24
ENDBRANCH  22  23
ENDBRANCH  21  22
ENDBRANCH  20  21
ENDBRANCH  19  20
ENDBRANCH  18  19
ENDBRANCH   1  18
TORSDOF 21
ENDMDL
MODEL 9
REMARK VINA RESULT:      -5.9      2.652      4.240
REMARK  Name = 
REMARK  24 active torsions:
REMARK  status: ('A' for Active; 'I' for Inactive)
REMARK    1  A    between atoms: C_1  and  C_2
REMARK    2  A    between atoms: C_2  and  C_3
REMARK    3  A    between atoms: C_3  and  C_4
REMARK    4  A    between atoms: C_4  and  C_5
REMARK    5  A    between atoms: C_5  and  C_6
REMARK    6  A    between atoms: C_6  and  C_7
REMARK    7  A    between atoms: C_7  and  C_8
REMARK    8  A    between atoms: C_8  and  C_9
REMARK    9  A    between atoms: C_9  and  C_10
REMARK   10  A    between atoms: C_10  and  C_11
REMARK   11  A    between atoms: C_11  and  C_12
REMARK   12  A    between atoms: C_12  and  C_13
REMARK   13  A    between atoms: C_13  and  C_14
REMARK   14  A    between atoms: C_14  and  C_15
REMARK   15  A    between atoms: C_15  and  C_17
REMARK   16  A    between atoms: N_19  and  C_20
REMARK   17  A    between atoms: C_20  and  C_21
REMARK   18  A    between atoms: C_20  and  C_26
REMARK   19  A    between atoms: C_21  and  C_22
REMARK   20  A    between atoms: C_22  and  C_23
REMARK   21  A    between atoms: C_23  and  O_25
REMARK   22  A    between atoms: C_26  and  C_27
REMARK   23  A    between atoms: C_27  and  C_28
REMARK   24  A    between atoms: C_27  and  C_29
REMARK                            x       y       z     vdW  Elec       q    Type
REMARK                         _______ _______ _______ _____ _____    ______ ____
ROOT
ATOM      1  C   UNL     1       3.650   2.019  18.941  0.00  0.00    +0.000 C 
ATOM      2  O   UNL     1       3.956   0.878  18.589  0.00  0.00    +0.000 OA
ENDROOT
BRANCH   1   3
ATOM      3  C   UNL     1       4.611   3.130  18.631  0.00  0.00    +0.000 C 
ATOM      4  O   UNL     1       5.516   3.335  19.414  0.00  0.00    +0.000 OA
ATOM      5  N   UNL     1       4.359   3.815  17.439  0.00  0.00    +0.000 N 
ATOM      6  H   UNL     1       3.521   3.535  16.954  0.00  0.00    +0.000 HD
BRANCH   5   7
ATOM      7  C   UNL     1       5.102   4.966  16.908  0.00  0.00    +0.000 C 
BRANCH   7   8
ATOM      8  C   UNL     1       5.645   5.918  17.999  0.00  0.00    +0.000 C 
BRANCH   8   9
ATOM      9  C   UNL     1       7.173   6.151  17.959  0.00  0.00    +0.000 C 
ATOM     10  C   UNL     1       7.563   7.594  17.628  0.00  0.00    +0.000 C 
ATOM     11  C   UNL     1       7.781   5.767  19.307  0.00  0.00    +0.000 C 
ENDBRANCH   8   9
ENDBRANCH   7   8
BRANCH   7  12
ATOM     12  C   UNL     1       6.251   4.429  16.040  0.00  0.00    +0.000 C 
BRANCH  12  13
ATOM     13  C   UNL     1       6.500   5.237  14.763  0.00  0.00    +0.000 C 
BRANCH  13  14
ATOM     14  C   UNL     1       6.706   4.320  13.584  0.00  0.00    +0.000 C 
ATOM     15  O   UNL     1       7.413   4.561  12.621  0.00  0.00    +0.000 OA
BRANCH  14  16
ATOM     16  O   UNL     1       6.038   3.147  13.716  0.00  0.00    +0.000 OA
ATOM     17  H   UNL     1       6.612   2.365  13.796  0.00  0.00    +0.000 HD
ENDBRANCH  14  16
ENDBRANCH  13  14
ENDBRANCH  12  13
ENDBRANCH   7  12
ENDBRANCH   5   7
ENDBRANCH   1   3
BRANCH   1  18
ATOM     18  C   UNL     1       2.372   2.390  19.648  0.00  0.00    +0.000 C 
BRANCH  18  19
ATOM     19  C   UNL     1       2.736   3.137  20.934  0.00  0.00    +0.000 C 
BRANCH  19  20
ATOM     20  C   UNL     1       2.020   4.464  21.032  0.00  0.00    +0.000 C 
BRANCH  20  21
ATOM     21  C   UNL     1       1.148   4.669  19.797  0.00  0.00    +0.000 C 
BRANCH  21  22
ATOM     22  C   UNL     1       1.797   5.692  18.883  0.00  0.00    +0.000 C 
BRANCH  22  23
ATOM     23  C   UNL     1       2.372   6.833  19.701  0.00  0.00    +0.000 C 
BRANCH  23  24
ATOM     24  C   UNL     1       1.939   8.160  19.103  0.00  0.00    +0.000 C 
BRANCH  24  25
ATOM     25  C   UNL     1       1.024   8.891  20.069  0.00  0.00    +0.000 C 
BRANCH  25  26
ATOM     26  C   UNL     1       1.215   8.349  21.475  0.00  0.00    +0.000 C 
BRANCH  26  27
ATOM     27  C   UNL     1       1.261   9.493  22.472  0.00  0.00    +0.000 C 
BRANCH  27  28
ATOM     28  C   UNL     1       0.045   9.446  23.384  0.00  0.00    +0.000 C 
BRANCH  28  29
ATOM     29  C   UNL     1      -1.086  10.275  22.796  0.00  0.00    +0.000 C 
BRANCH  29  31
ATOM     30  C   UNL     1      -1.781  12.675  22.750  0.00  0.00    +0.000 C 
ATOM     31  C   UNL     1      -0.631  11.708  22.549  0.00  0.00    +0.000 C 
ENDBRANCH  29  31
ENDBRANCH  28  29
ENDBRANCH  27  28
ENDBRANCH  26  27
ENDBRANCH  25  26
ENDBRANCH  24  25
ENDBRANCH  23  24
ENDBRANCH  22  23
ENDBRANCH  21  22
ENDBRANCH  20  21
ENDBRANCH  19  20
ENDBRANCH  18  19
ENDBRANCH   1  18
TORSDOF 21
ENDMDL
