MODEL 1
REMARK VINA RESULT:      -6.7      0.000      0.000
REMARK  Name = 
REMARK  5 active torsions:
REMARK  status: ('A' for Active; 'I' for Inactive)
REMARK    1  A    between atoms: N_1  and  C_2
REMARK    2  A    between atoms: C_9  and  C_10
REMARK    3  A    between atoms: N_12  and  C_13
REMARK    4  A    between atoms: C_13  and  N_14
REMARK    5  A    between atoms: C_13  and  N_15
REMARK                            x       y       z     vdW  Elec       q    Type
REMARK                         _______ _______ _______ _____ _____    ______ ____
ROOT
ATOM      1  C   UNL     1       6.997   5.305  16.295  0.00  0.00    +0.000 A 
ATOM      2  N   UNL     1       7.635   5.560  15.134  0.00  0.00    +0.000 NA
ATOM      3  C   UNL     1       7.132   4.987  14.012  0.00  0.00    +0.000 A 
ATOM      4 CL   UNL     1       7.991   5.392  12.587  0.00  0.00    +0.000 Cl
ATOM      5  C   UNL     1       6.014   4.159  14.046  0.00  0.00    +0.000 A 
ATOM      6 CL   UNL     1       5.330   3.409  12.665  0.00  0.00    +0.000 Cl
ATOM      7  N   UNL     1       5.349   3.872  15.198  0.00  0.00    +0.000 NA
ATOM      8  C   UNL     1       5.872   4.467  16.317  0.00  0.00    +0.000 A 
ENDROOT
BRANCH   8   9
ATOM      9  C   UNL     1       5.136   4.158  17.578  0.00  0.00    +0.000 C 
ATOM     10  O   UNL     1       5.018   4.918  18.528  0.00  0.00    +0.000 OA
ATOM     11  N   UNL     1       4.503   2.870  17.597  0.00  0.00    +0.000 N 
ATOM     12  H   UNL     1       4.649   2.289  16.776  0.00  0.00    +0.000 HD
BRANCH  11  13
ATOM     13  C   UNL     1       3.847   2.442  18.777  0.00  0.00    +0.000 C 
BRANCH  13  14
ATOM     14  N   UNL     1       3.016   1.328  18.509  0.00  0.00    +0.000 NA
ATOM     15  H   UNL     1       2.016   1.385  18.359  0.00  0.00    +0.000 HD
ATOM     16  H   UNL     1       3.448   0.434  18.281  0.00  0.00    +0.000 HD
ENDBRANCH  13  14
BRANCH  13  17
ATOM     17  N   UNL     1       4.793   2.035  19.754  0.00  0.00    +0.000 NA
ATOM     18  H   UNL     1       5.767   2.319  19.756  0.00  0.00    +0.000 HD
ATOM     19  H   UNL     1       4.500   1.488  20.562  0.00  0.00    +0.000 HD
ENDBRANCH  13  17
ENDBRANCH  11  13
ENDBRANCH   8   9
BRANCH   1  20
ATOM     20  N   UNL     1       7.597   5.873  17.408  0.00  0.00    +0.000 N 
ATOM     21  H   UNL     1       6.910   5.959  18.157  0.00  0.00    +0.000 HD
ATOM     22  H   UNL     1       8.441   5.406  17.729  0.00  0.00    +0.000 HD
ENDBRANCH   1  20
TORSDOF 5
ENDMDL
MODEL 2
REMARK VINA RESULT:      -6.2      3.611      5.553
REMARK  Name = 
REMARK  5 active torsions:
REMARK  status: ('A' for Active; 'I' for Inactive)
REMARK    1  A    between atoms: N_1  and  C_2
REMARK    2  A    between atoms: C_9  and  C_10
REMARK    3  A    between atoms: N_12  and  C_13
REMARK    4  A    between atoms: C_13  and  N_14
REMARK    5  A    between atoms: C_13  and  N_15
REMARK                            x       y       z     vdW  Elec       q    Type
REMARK                         _______ _______ _______ _____ _____    ______ ____
ROOT
ATOM      1  C   UNL     1       4.592   4.075  19.063  0.00  0.00    +0.000 A 
ATOM      2  N   UNL     1       3.552   4.405  19.856  0.00  0.00    +0.000 NA
ATOM      3  C   UNL     1       2.896   5.558  19.569  0.00  0.00    +0.000 A 
ATOM      4 CL   UNL     1       1.576   5.876  20.612  0.00  0.00    +0.000 Cl
ATOM      5  C   UNL     1       3.277   6.378  18.512  0.00  0.00    +0.000 A 
ATOM      6 CL   UNL     1       2.487   7.841  18.097  0.00  0.00    +0.000 Cl
ATOM      7  N   UNL     1       4.324   6.082  17.695  0.00  0.00    +0.000 NA
ATOM      8  C   UNL     1       4.968   4.911  18.001  0.00  0.00    +0.000 A 
ENDROOT
BRANCH   8   9
ATOM      9  C   UNL     1       6.111   4.585  17.099  0.00  0.00    +0.000 C 
ATOM     10  O   UNL     1       7.274   4.463  17.453  0.00  0.00    +0.000 OA
ATOM     11  N   UNL     1       5.744   4.364  15.729  0.00  0.00    +0.000 N 
ATOM     12  H   UNL     1       4.760   4.490  15.505  0.00  0.00    +0.000 HD
BRANCH  11  13
ATOM     13  C   UNL     1       6.762   4.128  14.773  0.00  0.00    +0.000 C 
BRANCH  13  14
ATOM     14  N   UNL     1       6.208   3.631  13.568  0.00  0.00    +0.000 NA
ATOM     15  H   UNL     1       5.517   4.121  13.013  0.00  0.00    +0.000 HD
ATOM     16  H   UNL     1       6.634   2.817  13.128  0.00  0.00    +0.000 HD
ENDBRANCH  13  14
BRANCH  13  17
ATOM     17  N   UNL     1       7.439   5.336  14.456  0.00  0.00    +0.000 NA
ATOM     18  H   UNL     1       7.240   5.900  13.636  0.00  0.00    +0.000 HD
ATOM     19  H   UNL     1       8.116   5.735  15.103  0.00  0.00    +0.000 HD
ENDBRANCH  13  17
ENDBRANCH  11  13
ENDBRANCH   8   9
BRANCH   1  20
ATOM     20  N   UNL     1       5.253   2.919  19.447  0.00  0.00    +0.000 N 
ATOM     21  H   UNL     1       5.270   2.861  20.465  0.00  0.00    +0.000 HD
ATOM     22  H   UNL     1       4.900   2.061  19.032  0.00  0.00    +0.000 HD
ENDBRANCH   1  20
TORSDOF 5
ENDMDL
MODEL 3
REMARK VINA RESULT:      -6.2      3.972      6.257
REMARK  Name = 
REMARK  5 active torsions:
REMARK  status: ('A' for Active; 'I' for Inactive)
REMARK    1  A    between atoms: N_1  and  C_2
REMARK    2  A    between atoms: C_9  and  C_10
REMARK    3  A    between atoms: N_12  and  C_13
REMARK    4  A    between atoms: C_13  and  N_14
REMARK    5  A    between atoms: C_13  and  N_15
REMARK                            x       y       z     vdW  Elec       q    Type
REMARK                         _______ _______ _______ _____ _____    ______ ____
ROOT
ATOM      1  C   UNL     1       4.346   2.869  19.873  0.00  0.00    +0.000 A 
ATOM      2  N   UNL     1       3.202   2.547  20.511  0.00  0.00    +0.000 NA
ATOM      3  C   UNL     1       2.322   3.552  20.751  0.00  0.00    +0.000 A 
ATOM      4 CL   UNL     1       0.890   3.041  21.538  0.00  0.00    +0.000 Cl
ATOM      5  C   UNL     1       2.584   4.865  20.371  0.00  0.00    +0.000 A 
ATOM      6 CL   UNL     1       1.512   6.176  20.642  0.00  0.00    +0.000 Cl
ATOM      7  N   UNL     1       3.729   5.230  19.733  0.00  0.00    +0.000 NA
ATOM      8  C   UNL     1       4.599   4.197  19.497  0.00  0.00    +0.000 A 
ENDROOT
BRANCH   8   9
ATOM      9  C   UNL     1       5.851   4.598  18.790  0.00  0.00    +0.000 C 
ATOM     10  O   UNL     1       6.805   5.155  19.311  0.00  0.00    +0.000 OA
ATOM     11  N   UNL     1       5.894   4.233  17.403  0.00  0.00    +0.000 N 
ATOM     12  H   UNL     1       5.062   3.779  17.035  0.00  0.00    +0.000 HD
BRANCH  11  13
ATOM     13  C   UNL     1       7.001   4.637  16.618  0.00  0.00    +0.000 C 
BRANCH  13  14
ATOM     14  N   UNL     1       7.117   6.048  16.611  0.00  0.00    +0.000 NA
ATOM     15  H   UNL     1       6.741   6.648  15.887  0.00  0.00    +0.000 HD
ATOM     16  H   UNL     1       7.443   6.521  17.453  0.00  0.00    +0.000 HD
ENDBRANCH  13  14
BRANCH  13  17
ATOM     17  N   UNL     1       8.210   4.119  17.155  0.00  0.00    +0.000 NA
ATOM     18  H   UNL     1       8.346   3.148  17.412  0.00  0.00    +0.000 HD
ATOM     19  H   UNL     1       9.037   4.708  17.228  0.00  0.00    +0.000 HD
ENDBRANCH  13  17
ENDBRANCH  11  13
ENDBRANCH   8   9
BRANCH   1  20
ATOM     20  N   UNL     1       5.224   1.809  19.714  0.00  0.00    +0.000 N 
ATOM     21  H   UNL     1       6.182   2.158  19.719  0.00  0.00    +0.000 HD
ATOM     22  H   UNL     1       5.102   1.045  20.374  0.00  0.00    +0.000 HD
ENDBRANCH   1  20
TORSDOF 5
ENDMDL
MODEL 4
REMARK VINA RESULT:      -6.2      1.053      1.260
REMARK  Name = 
REMARK  5 active torsions:
REMARK  status: ('A' for Active; 'I' for Inactive)
REMARK    1  A    between atoms: N_1  and  C_2
REMARK    2  A    between atoms: C_9  and  C_10
REMARK    3  A    between atoms: N_12  and  C_13
REMARK    4  A    between atoms: C_13  and  N_14
REMARK    5  A    between atoms: C_13  and  N_15
REMARK                            x       y       z     vdW  Elec       q    Type
REMARK                         _______ _______ _______ _____ _____    ______ ____
ROOT
ATOM      1  C   UNL     1       6.795   5.225  16.343  0.00  0.00    +0.000 A 
ATOM      2  N   UNL     1       7.558   5.561  15.283  0.00  0.00    +0.000 NA
ATOM      3  C   UNL     1       7.235   5.007  14.086  0.00  0.00    +0.000 A 
ATOM      4 CL   UNL     1       8.241   5.516  12.798  0.00  0.00    +0.000 Cl
ATOM      5  C   UNL     1       6.172   4.120  13.949  0.00  0.00    +0.000 A 
ATOM      6 CL   UNL     1       5.711   3.392  12.467  0.00  0.00    +0.000 Cl
ATOM      7  N   UNL     1       5.384   3.752  14.996  0.00  0.00    +0.000 NA
ATOM      8  C   UNL     1       5.726   4.328  16.192  0.00  0.00    +0.000 A 
ENDROOT
BRANCH   8   9
ATOM      9  C   UNL     1       4.857   3.929  17.337  0.00  0.00    +0.000 C 
ATOM     10  O   UNL     1       5.222   3.837  18.500  0.00  0.00    +0.000 OA
ATOM     11  N   UNL     1       3.485   3.691  16.989  0.00  0.00    +0.000 N 
ATOM     12  H   UNL     1       3.254   3.778  16.002  0.00  0.00    +0.000 HD
BRANCH  11  13
ATOM     13  C   UNL     1       2.591   3.227  17.985  0.00  0.00    +0.000 C 
BRANCH  13  14
ATOM     14  N   UNL     1       1.265   3.623  17.687  0.00  0.00    +0.000 NA
ATOM     15  H   UNL     1       0.791   3.418  16.816  0.00  0.00    +0.000 HD
ATOM     16  H   UNL     1       0.678   3.986  18.436  0.00  0.00    +0.000 HD
ENDBRANCH  13  14
BRANCH  13  17
ATOM     17  N   UNL     1       2.602   1.808  18.045  0.00  0.00    +0.000 NA
ATOM     18  H   UNL     1       3.258   1.268  18.599  0.00  0.00    +0.000 HD
ATOM     19  H   UNL     1       1.877   1.265  17.582  0.00  0.00    +0.000 HD
ENDBRANCH  13  17
ENDBRANCH  11  13
ENDBRANCH   8   9
BRANCH   1  20
ATOM     20  N   UNL     1       7.215   5.778  17.542  0.00  0.00    +0.000 N 
ATOM     21  H   UNL     1       7.654   5.056  18.113  0.00  0.00    +0.000 HD
ATOM     22  H   UNL     1       7.813   6.597  17.454  0.00  0.00    +0.000 HD
ENDBRANCH   1  20
TORSDOF 5
ENDMDL
MODEL 5
REMARK VINA RESULT:      -6.2      3.308      5.234
REMARK  Name = 
REMARK  5 active torsions:
REMARK  status: ('A' for Active; 'I' for Inactive)
REMARK    1  A    between atoms: N_1  and  C_2
REMARK    2  A    between atoms: C_9  and  C_10
REMARK    3  A    between atoms: N_12  and  C_13
REMARK    4  A    between atoms: C_13  and  N_14
REMARK    5  A    between atoms: C_13  and  N_15
REMARK                            x       y       z     vdW  Elec       q    Type
REMARK                         _______ _______ _______ _____ _____    ______ ____
ROOT
ATOM      1  C   UNL     1       5.833   5.036  18.932  0.00  0.00    +0.000 A 
ATOM      2  N   UNL     1       4.848   5.186  19.842  0.00  0.00    +0.000 NA
ATOM      3  C   UNL     1       3.578   4.947  19.426  0.00  0.00    +0.000 A 
ATOM      4 CL   UNL     1       2.403   5.136  20.656  0.00  0.00    +0.000 Cl
ATOM      5  C   UNL     1       3.291   4.575  18.116  0.00  0.00    +0.000 A 
ATOM      6 CL   UNL     1       1.712   4.256  17.531  0.00  0.00    +0.000 Cl
ATOM      7  N   UNL     1       4.256   4.420  17.169  0.00  0.00    +0.000 NA
ATOM      8  C   UNL     1       5.530   4.661  17.614  0.00  0.00    +0.000 A 
ENDROOT
BRANCH   8   9
ATOM      9  C   UNL     1       6.588   4.484  16.576  0.00  0.00    +0.000 C 
ATOM     10  O   UNL     1       7.789   4.432  16.797  0.00  0.00    +0.000 OA
ATOM     11  N   UNL     1       6.089   4.323  15.240  0.00  0.00    +0.000 N 
ATOM     12  H   UNL     1       5.080   4.384  15.130  0.00  0.00    +0.000 HD
BRANCH  11  13
ATOM     13  C   UNL     1       7.009   4.229  14.168  0.00  0.00    +0.000 C 
BRANCH  13  14
ATOM     14  N   UNL     1       6.349   3.841  12.977  0.00  0.00    +0.000 NA
ATOM     15  H   UNL     1       5.907   2.940  12.838  0.00  0.00    +0.000 HD
ATOM     16  H   UNL     1       6.147   4.547  12.272  0.00  0.00    +0.000 HD
ENDBRANCH  13  14
BRANCH  13  17
ATOM     17  N   UNL     1       7.616   5.489  13.919  0.00  0.00    +0.000 NA
ATOM     18  H   UNL     1       8.546   5.605  13.529  0.00  0.00    +0.000 HD
ATOM     19  H   UNL     1       7.091   6.351  14.052  0.00  0.00    +0.000 HD
ENDBRANCH  13  17
ENDBRANCH  11  13
ENDBRANCH   8   9
BRANCH   1  20
ATOM     20  N   UNL     1       7.096   5.352  19.407  0.00  0.00    +0.000 N 
ATOM     21  H   UNL     1       7.633   4.495  19.537  0.00  0.00    +0.000 HD
ATOM     22  H   UNL     1       7.609   6.032  18.852  0.00  0.00    +0.000 HD
ENDBRANCH   1  20
TORSDOF 5
ENDMDL
MODEL 6
REMARK VINA RESULT:      -6.1      3.714      5.630
REMARK  Name = 
REMARK  5 active torsions:
REMARK  status: ('A' for Active; 'I' for Inactive)
REMARK    1  A    between atoms: N_1  and  C_2
REMARK    2  A    between atoms: C_9  and  C_10
REMARK    3  A    between atoms: N_12  and  C_13
REMARK    4  A    between atoms: C_13  and  N_14
REMARK    5  A    between atoms: C_13  and  N_15
REMARK                            x       y       z     vdW  Elec       q    Type
REMARK                         _______ _______ _______ _____ _____    ______ ____
ROOT
ATOM      1  C   UNL     1       4.458   4.368  18.916  0.00  0.00    +0.000 A 
ATOM      2  N   UNL     1       3.540   4.761  19.823  0.00  0.00    +0.000 NA
ATOM      3  C   UNL     1       2.832   5.884  19.541  0.00  0.00    +0.000 A 
ATOM      4 CL   UNL     1       1.673   6.285  20.735  0.00  0.00    +0.000 Cl
ATOM      5  C   UNL     1       3.043   6.614  18.375  0.00  0.00    +0.000 A 
ATOM      6 CL   UNL     1       2.179   8.035  17.961  0.00  0.00    +0.000 Cl
ATOM      7  N   UNL     1       3.964   6.254  17.441  0.00  0.00    +0.000 NA
ATOM      8  C   UNL     1       4.663   5.114  17.745  0.00  0.00    +0.000 A 
ENDROOT
BRANCH   8   9
ATOM      9  C   UNL     1       5.668   4.717  16.715  0.00  0.00    +0.000 C 
ATOM     10  O   UNL     1       6.649   4.018  16.923  0.00  0.00    +0.000 OA
ATOM     11  N   UNL     1       5.379   5.185  15.390  0.00  0.00    +0.000 N 
ATOM     12  H   UNL     1       4.551   5.767  15.293  0.00  0.00    +0.000 HD
BRANCH  11  13
ATOM     13  C   UNL     1       6.310   4.934  14.352  0.00  0.00    +0.000 C 
BRANCH  13  14
ATOM     14  N   UNL     1       7.590   5.427  14.702  0.00  0.00    +0.000 NA
ATOM     15  H   UNL     1       7.880   5.640  15.650  0.00  0.00    +0.000 HD
ATOM     16  H   UNL     1       8.331   5.416  14.004  0.00  0.00    +0.000 HD
ENDBRANCH  13  14
BRANCH  13  17
ATOM     17  N   UNL     1       6.445   3.538  14.129  0.00  0.00    +0.000 NA
ATOM     18  H   UNL     1       6.013   3.042  13.357  0.00  0.00    +0.000 HD
ATOM     19  H   UNL     1       7.067   2.979  14.710  0.00  0.00    +0.000 HD
ENDBRANCH  13  17
ENDBRANCH  11  13
ENDBRANCH   8   9
BRANCH   1  20
ATOM     20  N   UNL     1       5.185   3.251  19.293  0.00  0.00    +0.000 N 
ATOM     21  H   UNL     1       5.145   3.146  20.306  0.00  0.00    +0.000 HD
ATOM     22  H   UNL     1       4.929   2.388  18.820  0.00  0.00    +0.000 HD
ENDBRANCH   1  20
TORSDOF 5
ENDMDL
MODEL 7
REMARK VINA RESULT:      -6.0      3.920      6.231
REMARK  Name = 
REMARK  5 active torsions:
REMARK  status: ('A' for Active; 'I' for Inactive)
REMARK    1  A    between atoms: N_1  and  C_2
REMARK    2  A    between atoms: C_9  and  C_10
REMARK    3  A    between atoms: N_12  and  C_13
REMARK    4  A    between atoms: C_13  and  N_14
REMARK    5  A    between atoms: C_13  and  N_15
REMARK                            x       y       z     vdW  Elec       q    Type
REMARK                         _______ _______ _______ _____ _____    ______ ____
ROOT
ATOM      1  C   UNL     1       3.592   2.579  18.546  0.00  0.00    +0.000 A 
ATOM      2  N   UNL     1       2.760   2.298  19.570  0.00  0.00    +0.000 NA
ATOM      3  C   UNL     1       2.214   3.350  20.231  0.00  0.00    +0.000 A 
ATOM      4 CL   UNL     1       1.151   2.893  21.493  0.00  0.00    +0.000 Cl
ATOM      5  C   UNL     1       2.502   4.667  19.885  0.00  0.00    +0.000 A 
ATOM      6 CL   UNL     1       1.842   6.036  20.678  0.00  0.00    +0.000 Cl
ATOM      7  N   UNL     1       3.341   4.990  18.864  0.00  0.00    +0.000 NA
ATOM      8  C   UNL     1       3.876   3.911  18.208  0.00  0.00    +0.000 A 
ENDROOT
BRANCH   8   9
ATOM      9  C   UNL     1       4.790   4.268  17.083  0.00  0.00    +0.000 C 
ATOM     10  O   UNL     1       4.701   3.841  15.942  0.00  0.00    +0.000 OA
ATOM     11  N   UNL     1       5.805   5.225  17.422  0.00  0.00    +0.000 N 
ATOM     12  H   UNL     1       5.824   5.531  18.391  0.00  0.00    +0.000 HD
BRANCH  11  13
ATOM     13  C   UNL     1       6.776   5.571  16.451  0.00  0.00    +0.000 C 
BRANCH  13  14
ATOM     14  N   UNL     1       7.467   6.745  16.835  0.00  0.00    +0.000 NA
ATOM     15  H   UNL     1       7.328   7.654  16.410  0.00  0.00    +0.000 HD
ATOM     16  H   UNL     1       8.014   6.737  17.695  0.00  0.00    +0.000 HD
ENDBRANCH  13  14
BRANCH  13  17
ATOM     17  N   UNL     1       7.743   4.539  16.321  0.00  0.00    +0.000 NA
ATOM     18  H   UNL     1       7.516   3.551  16.274  0.00  0.00    +0.000 HD
ATOM     19  H   UNL     1       8.726   4.765  16.184  0.00  0.00    +0.000 HD
ENDBRANCH  13  17
ENDBRANCH  11  13
ENDBRANCH   8   9
BRANCH   1  20
ATOM     20  N   UNL     1       4.159   1.462  17.954  0.00  0.00    +0.000 N 
ATOM     21  H   UNL     1       3.657   0.627  18.255  0.00  0.00    +0.000 HD
ATOM     22  H   UNL     1       4.237   1.503  16.940  0.00  0.00    +0.000 HD
ENDBRANCH   1  20
TORSDOF 5
ENDMDL
MODEL 8
REMARK VINA RESULT:      -6.0      3.423      5.457
REMARK  Name = 
REMARK  5 active torsions:
REMARK  status: ('A' for Active; 'I' for Inactive)
REMARK    1  A    between atoms: N_1  and  C_2
REMARK    2  A    between atoms: C_9  and  C_10
REMARK    3  A    between atoms: N_12  and  C_13
REMARK    4  A    between atoms: C_13  and  N_14
REMARK    5  A    between atoms: C_13  and  N_15
REMARK                            x       y       z     vdW  Elec       q    Type
REMARK                         _______ _______ _______ _____ _____    ______ ____
ROOT
ATOM      1  C   UNL     1       5.443   4.072  18.510  0.00  0.00    +0.000 A 
ATOM      2  N   UNL     1       4.904   3.536  19.625  0.00  0.00    +0.000 NA
ATOM      3  C   UNL     1       3.561   3.339  19.631  0.00  0.00    +0.000 A 
ATOM      4 CL   UNL     1       2.975   2.629  21.074  0.00  0.00    +0.000 Cl
ATOM      5  C   UNL     1       2.762   3.682  18.544  0.00  0.00    +0.000 A 
ATOM      6 CL   UNL     1       1.064   3.453  18.489  0.00  0.00    +0.000 Cl
ATOM      7  N   UNL     1       3.268   4.231  17.406  0.00  0.00    +0.000 NA
ATOM      8  C   UNL     1       4.626   4.415  17.422  0.00  0.00    +0.000 A 
ENDROOT
BRANCH   8   9
ATOM      9  C   UNL     1       5.180   5.010  16.170  0.00  0.00    +0.000 C 
ATOM     10  O   UNL     1       5.192   6.203  15.904  0.00  0.00    +0.000 OA
ATOM     11  N   UNL     1       5.771   4.061  15.271  0.00  0.00    +0.000 N 
ATOM     12  H   UNL     1       5.718   3.086  15.554  0.00  0.00    +0.000 HD
BRANCH  11  13
ATOM     13  C   UNL     1       6.253   4.508  14.016  0.00  0.00    +0.000 C 
BRANCH  13  14
ATOM     14  N   UNL     1       7.480   5.196  14.172  0.00  0.00    +0.000 NA
ATOM     15  H   UNL     1       8.279   4.832  14.677  0.00  0.00    +0.000 HD
ATOM     16  H   UNL     1       7.653   6.030  13.612  0.00  0.00    +0.000 HD
ENDBRANCH  13  14
BRANCH  13  17
ATOM     17  N   UNL     1       6.496   3.407  13.153  0.00  0.00    +0.000 NA
ATOM     18  H   UNL     1       7.378   3.239  12.681  0.00  0.00    +0.000 HD
ATOM     19  H   UNL     1       5.795   2.677  13.035  0.00  0.00    +0.000 HD
ENDBRANCH  13  17
ENDBRANCH  11  13
ENDBRANCH   8   9
BRANCH   1  20
ATOM     20  N   UNL     1       6.807   4.301  18.595  0.00  0.00    +0.000 N 
ATOM     21  H   UNL     1       7.308   3.428  18.433  0.00  0.00    +0.000 HD
ATOM     22  H   UNL     1       7.157   5.047  17.999  0.00  0.00    +0.000 HD
ENDBRANCH   1  20
TORSDOF 5
ENDMDL
MODEL 9
REMARK VINA RESULT:      -6.0      3.102      5.635
REMARK  Name = 
REMARK  5 active torsions:
REMARK  status: ('A' for Active; 'I' for Inactive)
REMARK    1  A    between atoms: N_1  and  C_2
REMARK    2  A    between atoms: C_9  and  C_10
REMARK    3  A    between atoms: N_12  and  C_13
REMARK    4  A    between atoms: C_13  and  N_14
REMARK    5  A    between atoms: C_13  and  N_15
REMARK                            x       y       z     vdW  Elec       q    Type
REMARK                         _______ _______ _______ _____ _____    ______ ____
ROOT
ATOM      1  C   UNL     1       4.217   2.756  19.306  0.00  0.00    +0.000 A 
ATOM      2  N   UNL     1       2.957   2.339  19.547  0.00  0.00    +0.000 NA
ATOM      3  C   UNL     1       1.955   2.992  18.906  0.00  0.00    +0.000 A 
ATOM      4 CL   UNL     1       0.397   2.373  19.252  0.00  0.00    +0.000 Cl
ATOM      5  C   UNL     1       2.203   4.055  18.043  0.00  0.00    +0.000 A 
ATOM      6 CL   UNL     1       0.983   4.916  17.202  0.00  0.00    +0.000 Cl
ATOM      7  N   UNL     1       3.459   4.509  17.781  0.00  0.00    +0.000 NA
ATOM      8  C   UNL     1       4.454   3.831  18.436  0.00  0.00    +0.000 A 
ENDROOT
BRANCH   8   9
ATOM      9  C   UNL     1       5.831   4.324  18.141  0.00  0.00    +0.000 C 
ATOM     10  O   UNL     1       6.726   4.449  18.965  0.00  0.00    +0.000 OA
ATOM     11  N   UNL     1       6.075   4.616  16.757  0.00  0.00    +0.000 N 
ATOM     12  H   UNL     1       5.284   4.497  16.129  0.00  0.00    +0.000 HD
BRANCH  11  13
ATOM     13  C   UNL     1       7.323   5.169  16.379  0.00  0.00    +0.000 C 
BRANCH  13  14
ATOM     14  N   UNL     1       7.463   5.167  14.970  0.00  0.00    +0.000 NA
ATOM     15  H   UNL     1       6.692   5.269  14.321  0.00  0.00    +0.000 HD
ATOM     16  H   UNL     1       8.395   5.238  14.566  0.00  0.00    +0.000 HD
ENDBRANCH  13  14
BRANCH  13  17
ATOM     17  N   UNL     1       7.423   6.519  16.809  0.00  0.00    +0.000 NA
ATOM     18  H   UNL     1       7.654   6.798  17.756  0.00  0.00    +0.000 HD
ATOM     19  H   UNL     1       7.341   7.282  16.140  0.00  0.00    +0.000 HD
ENDBRANCH  13  17
ENDBRANCH  11  13
ENDBRANCH   8   9
BRANCH   1  20
ATOM     20  N   UNL     1       5.185   2.086  20.037  0.00  0.00    +0.000 N 
ATOM     21  H   UNL     1       5.003   2.209  21.033  0.00  0.00    +0.000 HD
ATOM     22  H   UNL     1       5.304   1.104  19.799  0.00  0.00    +0.000 HD
ENDBRANCH   1  20
TORSDOF 5
ENDMDL
