MODEL 1
REMARK VINA RESULT:      -8.3      0.000      0.000
REMARK  Name = 
REMARK  11 active torsions:
REMARK  status: ('A' for Active; 'I' for Inactive)
REMARK    1  A    between atoms: C_1  and  O_2
REMARK    2  A    between atoms: O_2  and  C_3
REMARK    3  A    between atoms: C_6  and  O_7
REMARK    4  A    between atoms: O_7  and  C_8
REMARK    5  A    between atoms: C_9  and  C_10
REMARK    6  A    between atoms: C_12  and  C_13
REMARK    7  A    between atoms: N_15  and  C_16
REMARK    8  A    between atoms: C_16  and  C_17
REMARK    9  A    between atoms: C_17  and  C_18
REMARK   10  A    between atoms: C_25  and  C_26
REMARK   11  A    between atoms: C_29  and  C_30
REMARK                            x       y       z     vdW  Elec       q    Type
REMARK                         _______ _______ _______ _____ _____    ______ ____
ROOT
ATOM      1  C   UNL     1       2.597   6.583  19.698  0.00  0.00    +0.000 A 
ATOM      2  C   UNL     1       1.764   7.151  20.690  0.00  0.00    +0.000 A 
ATOM      3  C   UNL     1       1.138   8.400  20.532  0.00  0.00    +0.000 A 
ATOM      4  C   UNL     1       1.459   9.002  19.299  0.00  0.00    +0.000 A 
ATOM      5  C   UNL     1       1.130  10.243  18.758  0.00  0.00    +0.000 A 
ATOM      6  N   UNL     1       1.707  10.213  17.501  0.00  0.00    +0.000 N 
ATOM      7  N   UNL     1       2.412   9.114  17.212  0.00  0.00    +0.000 NA
ATOM      8  C   UNL     1       2.296   8.377  18.312  0.00  0.00    +0.000 A 
ATOM      9  N   UNL     1       2.877   7.169  18.497  0.00  0.00    +0.000 NA
ATOM     10  H   UNL     1       1.689  10.951  16.807  0.00  0.00    +0.000 HD
ENDROOT
BRANCH   5  11
ATOM     11  C   UNL     1       0.459  11.468  19.217  0.00  0.00    +0.000 A 
ATOM     12  C   UNL     1       1.158  12.452  19.924  0.00  0.00    +0.000 A 
ATOM     13  C   UNL     1       0.534  13.635  20.333  0.00  0.00    +0.000 A 
ATOM     14  C   UNL     1      -0.794  13.893  19.991  0.00  0.00    +0.000 A 
ATOM     15  C   UNL     1      -1.444  15.190  20.369  0.00  0.00    +0.000 C 
ATOM     16  C   UNL     1      -1.495  12.937  19.253  0.00  0.00    +0.000 A 
ATOM     17  C   UNL     1      -0.881  11.733  18.885  0.00  0.00    +0.000 A 
ENDBRANCH   5  11
BRANCH   1  22
ATOM     18  C   UNL     1       2.945   3.023  20.963  0.00  0.00    +0.000 A 
ATOM     19  C   UNL     1       4.047   2.560  20.257  0.00  0.00    +0.000 A 
ATOM     20  C   UNL     1       4.707   3.391  19.353  0.00  0.00    +0.000 A 
ATOM     21  C   UNL     1       4.284   4.715  19.154  0.00  0.00    +0.000 A 
ATOM     22  C   UNL     1       3.145   5.204  19.835  0.00  0.00    +0.000 A 
ATOM     23  C   UNL     1       2.496   4.323  20.739  0.00  0.00    +0.000 A 
BRANCH  18  25
ATOM     24  C   UNL     1       1.071   2.378  22.272  0.00  0.00    +0.000 C 
ATOM     25  O   UNL     1       2.401   2.123  21.836  0.00  0.00    +0.000 OA
ENDBRANCH  18  25
BRANCH  21  26
ATOM     26  O   UNL     1       4.920   5.547  18.260  0.00  0.00    +0.000 OA
ATOM     27  C   UNL     1       5.732   4.892  17.283  0.00  0.00    +0.000 C 
ENDBRANCH  21  26
ENDBRANCH   1  22
BRANCH   3  28
ATOM     28  C   UNL     1       0.122   8.831  21.498  0.00  0.00    +0.000 C 
ATOM     29  O   UNL     1      -0.884   8.160  21.678  0.00  0.00    +0.000 OA
ATOM     30  N   UNL     1       0.397   9.991  22.214  0.00  0.00    +0.000 N 
ATOM     31  H   UNL     1       1.172  10.580  21.937  0.00  0.00    +0.000 HD
BRANCH  30  32
ATOM     32  C   UNL     1      -0.611  10.517  23.121  0.00  0.00    +0.000 C 
BRANCH  32  33
ATOM     33  C   UNL     1      -1.697  11.340  22.427  0.00  0.00    +0.000 C 
BRANCH  33  34
ATOM     34  C   UNL     1      -2.151  12.486  23.300  0.00  0.00    +0.000 A 
ATOM     35  C   UNL     1      -3.452  12.517  23.820  0.00  0.00    +0.000 A 
ATOM     36  C   UNL     1      -3.885  13.603  24.583  0.00  0.00    +0.000 A 
ATOM     37  C   UNL     1      -3.024  14.671  24.831  0.00  0.00    +0.000 A 
ATOM     38  C   UNL     1      -1.730  14.653  24.316  0.00  0.00    +0.000 A 
ATOM     39  C   UNL     1      -1.295  13.568  23.552  0.00  0.00    +0.000 A 
ENDBRANCH  33  34
ENDBRANCH  32  33
ENDBRANCH  30  32
ENDBRANCH   3  28
TORSDOF 8
ENDMDL
MODEL 2
REMARK VINA RESULT:      -8.2      0.927      2.218
REMARK  Name = 
REMARK  11 active torsions:
REMARK  status: ('A' for Active; 'I' for Inactive)
REMARK    1  A    between atoms: C_1  and  O_2
REMARK    2  A    between atoms: O_2  and  C_3
REMARK    3  A    between atoms: C_6  and  O_7
REMARK    4  A    between atoms: O_7  and  C_8
REMARK    5  A    between atoms: C_9  and  C_10
REMARK    6  A    between atoms: C_12  and  C_13
REMARK    7  A    between atoms: N_15  and  C_16
REMARK    8  A    between atoms: C_16  and  C_17
REMARK    9  A    between atoms: C_17  and  C_18
REMARK   10  A    between atoms: C_25  and  C_26
REMARK   11  A    between atoms: C_29  and  C_30
REMARK                            x       y       z     vdW  Elec       q    Type
REMARK                         _______ _______ _______ _____ _____    ______ ____
ROOT
ATOM      1  C   UNL     1       2.608   6.938  19.553  0.00  0.00    +0.000 A 
ATOM      2  C   UNL     1       1.790   7.402  20.609  0.00  0.00    +0.000 A 
ATOM      3  C   UNL     1       1.052   8.595  20.530  0.00  0.00    +0.000 A 
ATOM      4  C   UNL     1       1.247   9.259  19.302  0.00  0.00    +0.000 A 
ATOM      5  C   UNL     1       0.782  10.483  18.824  0.00  0.00    +0.000 A 
ATOM      6  N   UNL     1       1.285  10.541  17.537  0.00  0.00    +0.000 N 
ATOM      7  N   UNL     1       2.063   9.517  17.171  0.00  0.00    +0.000 NA
ATOM      8  C   UNL     1       2.075   8.739  18.249  0.00  0.00    +0.000 A 
ATOM      9  N   UNL     1       2.766   7.582  18.359  0.00  0.00    +0.000 NA
ATOM     10  H   UNL     1       1.164  11.295  16.871  0.00  0.00    +0.000 HD
ENDROOT
BRANCH   5  11
ATOM     11  C   UNL     1       0.038  11.630  19.363  0.00  0.00    +0.000 A 
ATOM     12  C   UNL     1       0.705  12.716  19.941  0.00  0.00    +0.000 A 
ATOM     13  C   UNL     1       0.004  13.826  20.424  0.00  0.00    +0.000 A 
ATOM     14  C   UNL     1      -1.382  13.908  20.284  0.00  0.00    +0.000 A 
ATOM     15  C   UNL     1      -2.126  15.126  20.738  0.00  0.00    +0.000 C 
ATOM     16  C   UNL     1      -2.058  12.849  19.675  0.00  0.00    +0.000 A 
ATOM     17  C   UNL     1      -1.359  11.718  19.235  0.00  0.00    +0.000 A 
ENDBRANCH   5  11
BRANCH   1  22
ATOM     18  C   UNL     1       5.342   4.334  19.178  0.00  0.00    +0.000 A 
ATOM     19  C   UNL     1       4.716   3.175  19.620  0.00  0.00    +0.000 A 
ATOM     20  C   UNL     1       3.390   3.210  20.049  0.00  0.00    +0.000 A 
ATOM     21  C   UNL     1       2.657   4.407  20.025  0.00  0.00    +0.000 A 
ATOM     22  C   UNL     1       3.279   5.608  19.611  0.00  0.00    +0.000 A 
ATOM     23  C   UNL     1       4.632   5.532  19.191  0.00  0.00    +0.000 A 
BRANCH  18  25
ATOM     24  C   UNL     1       7.441   5.335  18.699  0.00  0.00    +0.000 C 
ATOM     25  O   UNL     1       6.632   4.166  18.760  0.00  0.00    +0.000 OA
ENDBRANCH  18  25
BRANCH  21  26
ATOM     26  O   UNL     1       1.349   4.460  20.453  0.00  0.00    +0.000 OA
ATOM     27  C   UNL     1       0.639   3.220  20.408  0.00  0.00    +0.000 C 
ENDBRANCH  21  26
ENDBRANCH   1  22
BRANCH   3  28
ATOM     28  C   UNL     1       0.062   8.907  21.566  0.00  0.00    +0.000 C 
ATOM     29  O   UNL     1      -0.882   8.156  21.765  0.00  0.00    +0.000 OA
ATOM     30  N   UNL     1       0.290  10.053  22.320  0.00  0.00    +0.000 N 
ATOM     31  H   UNL     1       1.005  10.709  22.032  0.00  0.00    +0.000 HD
BRANCH  30  32
ATOM     32  C   UNL     1      -0.702  10.462  23.302  0.00  0.00    +0.000 C 
BRANCH  32  33
ATOM     33  C   UNL     1      -1.933  11.133  22.691  0.00  0.00    +0.000 C 
BRANCH  33  34
ATOM     34  C   UNL     1      -2.269  12.415  23.416  0.00  0.00    +0.000 A 
ATOM     35  C   UNL     1      -3.590  12.704  23.782  0.00  0.00    +0.000 A 
ATOM     36  C   UNL     1      -3.904  13.914  24.405  0.00  0.00    +0.000 A 
ATOM     37  C   UNL     1      -2.902  14.848  24.664  0.00  0.00    +0.000 A 
ATOM     38  C   UNL     1      -1.586  14.573  24.300  0.00  0.00    +0.000 A 
ATOM     39  C   UNL     1      -1.270  13.365  23.677  0.00  0.00    +0.000 A 
ENDBRANCH  33  34
ENDBRANCH  32  33
ENDBRANCH  30  32
ENDBRANCH   3  28
TORSDOF 8
ENDMDL
MODEL 3
REMARK VINA RESULT:      -8.2      1.163      1.471
REMARK  Name = 
REMARK  11 active torsions:
REMARK  status: ('A' for Active; 'I' for Inactive)
REMARK    1  A    between atoms: C_1  and  O_2
REMARK    2  A    between atoms: O_2  and  C_3
REMARK    3  A    between atoms: C_6  and  O_7
REMARK    4  A    between atoms: O_7  and  C_8
REMARK    5  A    between atoms: C_9  and  C_10
REMARK    6  A    between atoms: C_12  and  C_13
REMARK    7  A    between atoms: N_15  and  C_16
REMARK    8  A    between atoms: C_16  and  C_17
REMARK    9  A    between atoms: C_17  and  C_18
REMARK   10  A    between atoms: C_25  and  C_26
REMARK   11  A    between atoms: C_29  and  C_30
REMARK                            x       y       z     vdW  Elec       q    Type
REMARK                         _______ _______ _______ _____ _____    ______ ____
ROOT
ATOM      1  C   UNL     1       2.437   6.915  19.708  0.00  0.00    +0.000 A 
ATOM      2  C   UNL     1       1.981   7.571  20.876  0.00  0.00    +0.000 A 
ATOM      3  C   UNL     1       1.452   8.872  20.859  0.00  0.00    +0.000 A 
ATOM      4  C   UNL     1       1.454   9.430  19.565  0.00  0.00    +0.000 A 
ATOM      5  C   UNL     1       1.096  10.692  19.096  0.00  0.00    +0.000 A 
ATOM      6  N   UNL     1       1.280  10.595  17.728  0.00  0.00    +0.000 N 
ATOM      7  N   UNL     1       1.770   9.431  17.290  0.00  0.00    +0.000 NA
ATOM      8  C   UNL     1       1.911   8.718  18.403  0.00  0.00    +0.000 A 
ATOM      9  N   UNL     1       2.409   7.461  18.457  0.00  0.00    +0.000 NA
ATOM     10  H   UNL     1       1.129  11.326  17.042  0.00  0.00    +0.000 HD
ENDROOT
BRANCH   5  11
ATOM     11  C   UNL     1       0.701  11.980  19.683  0.00  0.00    +0.000 A 
ATOM     12  C   UNL     1       1.531  12.645  20.592  0.00  0.00    +0.000 A 
ATOM     13  C   UNL     1       1.175  13.887  21.128  0.00  0.00    +0.000 A 
ATOM     14  C   UNL     1       0.005  14.528  20.720  0.00  0.00    +0.000 A 
ATOM     15  C   UNL     1      -0.343  15.890  21.241  0.00  0.00    +0.000 C 
ATOM     16  C   UNL     1      -0.816  13.895  19.785  0.00  0.00    +0.000 A 
ATOM     17  C   UNL     1      -0.481  12.630  19.286  0.00  0.00    +0.000 A 
ENDBRANCH   5  11
BRANCH   1  22
ATOM     18  C   UNL     1       2.288   3.179  20.345  0.00  0.00    +0.000 A 
ATOM     19  C   UNL     1       3.526   2.746  19.889  0.00  0.00    +0.000 A 
ATOM     20  C   UNL     1       4.442   3.657  19.364  0.00  0.00    +0.000 A 
ATOM     21  C   UNL     1       4.140   5.027  19.304  0.00  0.00    +0.000 A 
ATOM     22  C   UNL     1       2.874   5.491  19.732  0.00  0.00    +0.000 A 
ATOM     23  C   UNL     1       1.967   4.531  20.251  0.00  0.00    +0.000 A 
BRANCH  18  25
ATOM     24  C   UNL     1       1.158   2.296  22.239  0.00  0.00    +0.000 C 
ATOM     25  O   UNL     1       1.489   2.195  20.859  0.00  0.00    +0.000 OA
ENDBRANCH  18  25
BRANCH  21  26
ATOM     26  O   UNL     1       5.030   5.939  18.782  0.00  0.00    +0.000 OA
ATOM     27  C   UNL     1       6.409   5.579  18.890  0.00  0.00    +0.000 C 
ENDBRANCH  21  26
ENDBRANCH   1  22
BRANCH   3  28
ATOM     28  C   UNL     1       0.802   9.408  22.060  0.00  0.00    +0.000 C 
ATOM     29  O   UNL     1       1.400   9.438  23.126  0.00  0.00    +0.000 OA
ATOM     30  N   UNL     1      -0.484   9.914  21.898  0.00  0.00    +0.000 N 
ATOM     31  H   UNL     1      -0.984   9.745  21.035  0.00  0.00    +0.000 HD
BRANCH  30  32
ATOM     32  C   UNL     1      -1.213  10.378  23.068  0.00  0.00    +0.000 C 
BRANCH  32  33
ATOM     33  C   UNL     1      -1.386  11.897  23.124  0.00  0.00    +0.000 C 
BRANCH  33  34
ATOM     34  C   UNL     1      -2.844  12.280  23.029  0.00  0.00    +0.000 A 
ATOM     35  C   UNL     1      -3.418  12.607  21.793  0.00  0.00    +0.000 A 
ATOM     36  C   UNL     1      -4.752  13.012  21.716  0.00  0.00    +0.000 A 
ATOM     37  C   UNL     1      -5.525  13.098  22.874  0.00  0.00    +0.000 A 
ATOM     38  C   UNL     1      -4.964  12.780  24.108  0.00  0.00    +0.000 A 
ATOM     39  C   UNL     1      -3.630  12.375  24.187  0.00  0.00    +0.000 A 
ENDBRANCH  33  34
ENDBRANCH  32  33
ENDBRANCH  30  32
ENDBRANCH   3  28
TORSDOF 8
ENDMDL
MODEL 4
REMARK VINA RESULT:      -7.9      1.329      1.583
REMARK  Name = 
REMARK  11 active torsions:
REMARK  status: ('A' for Active; 'I' for Inactive)
REMARK    1  A    between atoms: C_1  and  O_2
REMARK    2  A    between atoms: O_2  and  C_3
REMARK    3  A    between atoms: C_6  and  O_7
REMARK    4  A    between atoms: O_7  and  C_8
REMARK    5  A    between atoms: C_9  and  C_10
REMARK    6  A    between atoms: C_12  and  C_13
REMARK    7  A    between atoms: N_15  and  C_16
REMARK    8  A    between atoms: C_16  and  C_17
REMARK    9  A    between atoms: C_17  and  C_18
REMARK   10  A    between atoms: C_25  and  C_26
REMARK   11  A    between atoms: C_29  and  C_30
REMARK                            x       y       z     vdW  Elec       q    Type
REMARK                         _______ _______ _______ _____ _____    ______ ____
ROOT
ATOM      1  C   UNL     1       2.500   6.917  19.588  0.00  0.00    +0.000 A 
ATOM      2  C   UNL     1       2.034   7.545  20.767  0.00  0.00    +0.000 A 
ATOM      3  C   UNL     1       1.506   8.848  20.775  0.00  0.00    +0.000 A 
ATOM      4  C   UNL     1       1.522   9.435  19.494  0.00  0.00    +0.000 A 
ATOM      5  C   UNL     1       1.170  10.708  19.052  0.00  0.00    +0.000 A 
ATOM      6  N   UNL     1       1.366  10.643  17.684  0.00  0.00    +0.000 N 
ATOM      7  N   UNL     1       1.858   9.489  17.223  0.00  0.00    +0.000 NA
ATOM      8  C   UNL     1       1.988   8.750  18.320  0.00  0.00    +0.000 A 
ATOM      9  N   UNL     1       2.484   7.492  18.350  0.00  0.00    +0.000 NA
ATOM     10  H   UNL     1       1.222  11.390  17.014  0.00  0.00    +0.000 HD
ENDROOT
BRANCH   5  11
ATOM     11  C   UNL     1       0.770  11.983  19.665  0.00  0.00    +0.000 A 
ATOM     12  C   UNL     1       1.572  12.603  20.630  0.00  0.00    +0.000 A 
ATOM     13  C   UNL     1       1.214  13.832  21.192  0.00  0.00    +0.000 A 
ATOM     14  C   UNL     1       0.073  14.507  20.758  0.00  0.00    +0.000 A 
ATOM     15  C   UNL     1      -0.275  15.857  21.309  0.00  0.00    +0.000 C 
ATOM     16  C   UNL     1      -0.718  13.920  19.768  0.00  0.00    +0.000 A 
ATOM     17  C   UNL     1      -0.383  12.666  19.241  0.00  0.00    +0.000 A 
ENDBRANCH   5  11
BRANCH   1  22
ATOM     18  C   UNL     1       2.236   3.136  19.760  0.00  0.00    +0.000 A 
ATOM     19  C   UNL     1       3.559   2.736  19.625  0.00  0.00    +0.000 A 
ATOM     20  C   UNL     1       4.571   3.684  19.476  0.00  0.00    +0.000 A 
ATOM     21  C   UNL     1       4.277   5.057  19.480  0.00  0.00    +0.000 A 
ATOM     22  C   UNL     1       2.935   5.491  19.583  0.00  0.00    +0.000 A 
ATOM     23  C   UNL     1       1.934   4.496  19.723  0.00  0.00    +0.000 A 
BRANCH  18  25
ATOM     24  C   UNL     1       0.404   1.913  18.871  0.00  0.00    +0.000 C 
ATOM     25  O   UNL     1       1.341   2.116  19.923  0.00  0.00    +0.000 OA
ENDBRANCH  18  25
BRANCH  21  26
ATOM     26  O   UNL     1       5.263   6.005  19.327  0.00  0.00    +0.000 OA
ATOM     27  C   UNL     1       5.912   6.015  18.054  0.00  0.00    +0.000 C 
ENDBRANCH  21  26
ENDBRANCH   1  22
BRANCH   3  28
ATOM     28  C   UNL     1       0.846   9.356  21.982  0.00  0.00    +0.000 C 
ATOM     29  O   UNL     1       1.447   9.394  23.046  0.00  0.00    +0.000 OA
ATOM     30  N   UNL     1      -0.453   9.829  21.828  0.00  0.00    +0.000 N 
ATOM     31  H   UNL     1      -0.952   9.653  20.965  0.00  0.00    +0.000 HD
BRANCH  30  32
ATOM     32  C   UNL     1      -1.191  10.263  23.004  0.00  0.00    +0.000 C 
BRANCH  32  33
ATOM     33  C   UNL     1      -1.286  11.784  23.144  0.00  0.00    +0.000 C 
BRANCH  33  34
ATOM     34  C   UNL     1      -2.710  12.256  22.974  0.00  0.00    +0.000 A 
ATOM     35  C   UNL     1      -3.549  12.413  24.085  0.00  0.00    +0.000 A 
ATOM     36  C   UNL     1      -4.881  12.798  23.919  0.00  0.00    +0.000 A 
ATOM     37  C   UNL     1      -5.389  13.026  22.641  0.00  0.00    +0.000 A 
ATOM     38  C   UNL     1      -4.566  12.868  21.529  0.00  0.00    +0.000 A 
ATOM     39  C   UNL     1      -3.234  12.483  21.692  0.00  0.00    +0.000 A 
ENDBRANCH  33  34
ENDBRANCH  32  33
ENDBRANCH  30  32
ENDBRANCH   3  28
TORSDOF 8
ENDMDL
MODEL 5
REMARK VINA RESULT:      -7.9      2.374      5.066
REMARK  Name = 
REMARK  11 active torsions:
REMARK  status: ('A' for Active; 'I' for Inactive)
REMARK    1  A    between atoms: C_1  and  O_2
REMARK    2  A    between atoms: O_2  and  C_3
REMARK    3  A    between atoms: C_6  and  O_7
REMARK    4  A    between atoms: O_7  and  C_8
REMARK    5  A    between atoms: C_9  and  C_10
REMARK    6  A    between atoms: C_12  and  C_13
REMARK    7  A    between atoms: N_15  and  C_16
REMARK    8  A    between atoms: C_16  and  C_17
REMARK    9  A    between atoms: C_17  and  C_18
REMARK   10  A    between atoms: C_25  and  C_26
REMARK   11  A    between atoms: C_29  and  C_30
REMARK                            x       y       z     vdW  Elec       q    Type
REMARK                         _______ _______ _______ _____ _____    ______ ____
ROOT
ATOM      1  C   UNL     1       1.702   8.349  19.579  0.00  0.00    +0.000 A 
ATOM      2  C   UNL     1       1.557   9.584  18.905  0.00  0.00    +0.000 A 
ATOM      3  C   UNL     1       0.936  10.700  19.490  0.00  0.00    +0.000 A 
ATOM      4  C   UNL     1       0.471  10.428  20.792  0.00  0.00    +0.000 A 
ATOM      5  C   UNL     1      -0.250  11.198  21.701  0.00  0.00    +0.000 A 
ATOM      6  N   UNL     1      -0.349  10.381  22.814  0.00  0.00    +0.000 N 
ATOM      7  N   UNL     1       0.180   9.160  22.685  0.00  0.00    +0.000 NA
ATOM      8  C   UNL     1       0.658   9.161  21.445  0.00  0.00    +0.000 A 
ATOM      9  N   UNL     1       1.268   8.109  20.851  0.00  0.00    +0.000 NA
ATOM     10  H   UNL     1      -0.819  10.597  23.685  0.00  0.00    +0.000 HD
ENDROOT
BRANCH   5  11
ATOM     11  C   UNL     1      -0.928  12.502  21.699  0.00  0.00    +0.000 A 
ATOM     12  C   UNL     1      -2.184  12.662  21.103  0.00  0.00    +0.000 A 
ATOM     13  C   UNL     1      -2.849  13.892  21.128  0.00  0.00    +0.000 A 
ATOM     14  C   UNL     1      -2.303  14.982  21.806  0.00  0.00    +0.000 A 
ATOM     15  C   UNL     1      -3.046  16.281  21.892  0.00  0.00    +0.000 C 
ATOM     16  C   UNL     1      -1.067  14.828  22.439  0.00  0.00    +0.000 A 
ATOM     17  C   UNL     1      -0.382  13.609  22.372  0.00  0.00    +0.000 A 
ENDBRANCH   5  11
BRANCH   1  22
ATOM     18  C   UNL     1       4.100   6.534  17.267  0.00  0.00    +0.000 A 
ATOM     19  C   UNL     1       4.010   5.221  17.711  0.00  0.00    +0.000 A 
ATOM     20  C   UNL     1       3.166   4.891  18.771  0.00  0.00    +0.000 A 
ATOM     21  C   UNL     1       2.379   5.871  19.396  0.00  0.00    +0.000 A 
ATOM     22  C   UNL     1       2.476   7.222  18.986  0.00  0.00    +0.000 A 
ATOM     23  C   UNL     1       3.353   7.517  17.911  0.00  0.00    +0.000 A 
BRANCH  18  25
ATOM     24  C   UNL     1       5.442   5.556  15.569  0.00  0.00    +0.000 C 
ATOM     25  O   UNL     1       4.942   6.725  16.207  0.00  0.00    +0.000 OA
ENDBRANCH  18  25
BRANCH  21  26
ATOM     26  O   UNL     1       1.547   5.564  20.449  0.00  0.00    +0.000 OA
ATOM     27  C   UNL     1       1.377   4.169  20.708  0.00  0.00    +0.000 C 
ENDBRANCH  21  26
ENDBRANCH   1  22
BRANCH   3  28
ATOM     28  C   UNL     1       1.010  12.005  18.824  0.00  0.00    +0.000 C 
ATOM     29  O   UNL     1       0.012  12.500  18.320  0.00  0.00    +0.000 OA
ATOM     30  N   UNL     1       2.243  12.648  18.850  0.00  0.00    +0.000 N 
ATOM     31  H   UNL     1       3.065  12.143  19.157  0.00  0.00    +0.000 HD
BRANCH  30  32
ATOM     32  C   UNL     1       2.402  13.902  18.132  0.00  0.00    +0.000 C 
BRANCH  32  33
ATOM     33  C   UNL     1       2.465  15.130  19.042  0.00  0.00    +0.000 C 
BRANCH  33  34
ATOM     34  C   UNL     1       1.397  16.133  18.675  0.00  0.00    +0.000 A 
ATOM     35  C   UNL     1       0.071  15.949  19.090  0.00  0.00    +0.000 A 
ATOM     36  C   UNL     1      -0.924  16.850  18.704  0.00  0.00    +0.000 A 
ATOM     37  C   UNL     1      -0.604  17.941  17.896  0.00  0.00    +0.000 A 
ATOM     38  C   UNL     1       0.709  18.131  17.474  0.00  0.00    +0.000 A 
ATOM     39  C   UNL     1       1.706  17.231  17.858  0.00  0.00    +0.000 A 
ENDBRANCH  33  34
ENDBRANCH  32  33
ENDBRANCH  30  32
ENDBRANCH   3  28
TORSDOF 8
ENDMDL
MODEL 6
REMARK VINA RESULT:      -7.8      2.490      5.167
REMARK  Name = 
REMARK  11 active torsions:
REMARK  status: ('A' for Active; 'I' for Inactive)
REMARK    1  A    between atoms: C_1  and  O_2
REMARK    2  A    between atoms: O_2  and  C_3
REMARK    3  A    between atoms: C_6  and  O_7
REMARK    4  A    between atoms: O_7  and  C_8
REMARK    5  A    between atoms: C_9  and  C_10
REMARK    6  A    between atoms: C_12  and  C_13
REMARK    7  A    between atoms: N_15  and  C_16
REMARK    8  A    between atoms: C_16  and  C_17
REMARK    9  A    between atoms: C_17  and  C_18
REMARK   10  A    between atoms: C_25  and  C_26
REMARK   11  A    between atoms: C_29  and  C_30
REMARK                            x       y       z     vdW  Elec       q    Type
REMARK                         _______ _______ _______ _____ _____    ______ ____
ROOT
ATOM      1  C   UNL     1       1.576   8.341  19.772  0.00  0.00    +0.000 A 
ATOM      2  C   UNL     1       1.320   9.567  19.114  0.00  0.00    +0.000 A 
ATOM      3  C   UNL     1       0.650  10.635  19.733  0.00  0.00    +0.000 A 
ATOM      4  C   UNL     1       0.260  10.325  21.052  0.00  0.00    +0.000 A 
ATOM      5  C   UNL     1      -0.473  11.040  21.996  0.00  0.00    +0.000 A 
ATOM      6  N   UNL     1      -0.469  10.213  23.105  0.00  0.00    +0.000 N 
ATOM      7  N   UNL     1       0.135   9.031  22.945  0.00  0.00    +0.000 NA
ATOM      8  C   UNL     1       0.560   9.071  21.686  0.00  0.00    +0.000 A 
ATOM      9  N   UNL     1       1.213   8.066  21.060  0.00  0.00    +0.000 NA
ATOM     10  H   UNL     1      -0.916  10.392  23.998  0.00  0.00    +0.000 HD
ENDROOT
BRANCH   5  11
ATOM     11  C   UNL     1      -1.237  12.295  22.033  0.00  0.00    +0.000 A 
ATOM     12  C   UNL     1      -0.845  13.356  22.857  0.00  0.00    +0.000 A 
ATOM     13  C   UNL     1      -1.548  14.565  22.870  0.00  0.00    +0.000 A 
ATOM     14  C   UNL     1      -2.629  14.768  22.011  0.00  0.00    +0.000 A 
ATOM     15  C   UNL     1      -3.341  16.086  21.975  0.00  0.00    +0.000 C 
ATOM     16  C   UNL     1      -3.010  13.732  21.155  0.00  0.00    +0.000 A 
ATOM     17  C   UNL     1      -2.334  12.506  21.178  0.00  0.00    +0.000 A 
ENDBRANCH   5  11
BRANCH   1  22
ATOM     18  C   UNL     1       4.018   6.712  17.369  0.00  0.00    +0.000 A 
ATOM     19  C   UNL     1       4.014   5.388  17.788  0.00  0.00    +0.000 A 
ATOM     20  C   UNL     1       3.217   4.990  18.860  0.00  0.00    +0.000 A 
ATOM     21  C   UNL     1       2.390   5.911  19.523  0.00  0.00    +0.000 A 
ATOM     22  C   UNL     1       2.399   7.272  19.139  0.00  0.00    +0.000 A 
ATOM     23  C   UNL     1       3.231   7.638  18.050  0.00  0.00    +0.000 A 
BRANCH  18  25
ATOM     24  C   UNL     1       5.395   5.848  15.638  0.00  0.00    +0.000 C 
ATOM     25  O   UNL     1       4.821   6.972  16.294  0.00  0.00    +0.000 OA
ENDBRANCH  18  25
BRANCH  21  26
ATOM     26  O   UNL     1       1.603   5.536  20.588  0.00  0.00    +0.000 OA
ATOM     27  C   UNL     1       2.005   4.338  21.256  0.00  0.00    +0.000 C 
ENDBRANCH  21  26
ENDBRANCH   1  22
BRANCH   3  28
ATOM     28  C   UNL     1       0.608  11.946  19.076  0.00  0.00    +0.000 C 
ATOM     29  O   UNL     1      -0.190  12.159  18.174  0.00  0.00    +0.000 OA
ATOM     30  N   UNL     1       1.473  12.917  19.568  0.00  0.00    +0.000 N 
ATOM     31  H   UNL     1       2.202  12.656  20.219  0.00  0.00    +0.000 HD
BRANCH  30  32
ATOM     32  C   UNL     1       1.540  14.207  18.900  0.00  0.00    +0.000 C 
BRANCH  32  33
ATOM     33  C   UNL     1       0.612  15.263  19.505  0.00  0.00    +0.000 C 
BRANCH  33  34
ATOM     34  C   UNL     1       0.496  16.466  18.598  0.00  0.00    +0.000 A 
ATOM     35  C   UNL     1      -0.745  17.082  18.384  0.00  0.00    +0.000 A 
ATOM     36  C   UNL     1      -0.858  18.161  17.504  0.00  0.00    +0.000 A 
ATOM     37  C   UNL     1       0.267  18.631  16.827  0.00  0.00    +0.000 A 
ATOM     38  C   UNL     1       1.503  18.023  17.028  0.00  0.00    +0.000 A 
ATOM     39  C   UNL     1       1.619  16.944  17.907  0.00  0.00    +0.000 A 
ENDBRANCH  33  34
ENDBRANCH  32  33
ENDBRANCH  30  32
ENDBRANCH   3  28
TORSDOF 8
ENDMDL
MODEL 7
REMARK VINA RESULT:      -7.8      2.944      5.097
REMARK  Name = 
REMARK  11 active torsions:
REMARK  status: ('A' for Active; 'I' for Inactive)
REMARK    1  A    between atoms: C_1  and  O_2
REMARK    2  A    between atoms: O_2  and  C_3
REMARK    3  A    between atoms: C_6  and  O_7
REMARK    4  A    between atoms: O_7  and  C_8
REMARK    5  A    between atoms: C_9  and  C_10
REMARK    6  A    between atoms: C_12  and  C_13
REMARK    7  A    between atoms: N_15  and  C_16
REMARK    8  A    between atoms: C_16  and  C_17
REMARK    9  A    between atoms: C_17  and  C_18
REMARK   10  A    between atoms: C_25  and  C_26
REMARK   11  A    between atoms: C_29  and  C_30
REMARK                            x       y       z     vdW  Elec       q    Type
REMARK                         _______ _______ _______ _____ _____    ______ ____
ROOT
ATOM      1  C   UNL     1       1.419   8.348  19.673  0.00  0.00    +0.000 A 
ATOM      2  C   UNL     1       0.628   9.156  18.823  0.00  0.00    +0.000 A 
ATOM      3  C   UNL     1      -0.181  10.199  19.304  0.00  0.00    +0.000 A 
ATOM      4  C   UNL     1      -0.118  10.316  20.708  0.00  0.00    +0.000 A 
ATOM      5  C   UNL     1      -0.791  11.145  21.602  0.00  0.00    +0.000 A 
ATOM      6  N   UNL     1      -0.251  10.806  22.830  0.00  0.00    +0.000 N 
ATOM      7  N   UNL     1       0.645   9.815  22.815  0.00  0.00    +0.000 NA
ATOM      8  C   UNL     1       0.716   9.483  21.530  0.00  0.00    +0.000 A 
ATOM      9  N   UNL     1       1.488   8.492  21.029  0.00  0.00    +0.000 NA
ATOM     10  H   UNL     1      -0.502  11.195  23.731  0.00  0.00    +0.000 HD
ENDROOT
BRANCH   5  11
ATOM     11  C   UNL     1      -1.889  12.121  21.539  0.00  0.00    +0.000 A 
ATOM     12  C   UNL     1      -1.878  13.272  22.335  0.00  0.00    +0.000 A 
ATOM     13  C   UNL     1      -2.902  14.221  22.255  0.00  0.00    +0.000 A 
ATOM     14  C   UNL     1      -3.935  14.076  21.328  0.00  0.00    +0.000 A 
ATOM     15  C   UNL     1      -4.995  15.126  21.193  0.00  0.00    +0.000 C 
ATOM     16  C   UNL     1      -3.940  12.952  20.499  0.00  0.00    +0.000 A 
ATOM     17  C   UNL     1      -2.939  11.979  20.615  0.00  0.00    +0.000 A 
ENDBRANCH   5  11
BRANCH   1  22
ATOM     18  C   UNL     1       4.047   6.820  17.403  0.00  0.00    +0.000 A 
ATOM     19  C   UNL     1       4.196   5.545  17.931  0.00  0.00    +0.000 A 
ATOM     20  C   UNL     1       3.447   5.148  19.038  0.00  0.00    +0.000 A 
ATOM     21  C   UNL     1       2.515   6.018  19.625  0.00  0.00    +0.000 A 
ATOM     22  C   UNL     1       2.366   7.333  19.128  0.00  0.00    +0.000 A 
ATOM     23  C   UNL     1       3.153   7.702  18.007  0.00  0.00    +0.000 A 
BRANCH  18  25
ATOM     24  C   UNL     1       5.417   5.962  15.663  0.00  0.00    +0.000 C 
ATOM     25  O   UNL     1       4.818   7.081  16.305  0.00  0.00    +0.000 OA
ENDBRANCH  18  25
BRANCH  21  26
ATOM     26  O   UNL     1       1.772   5.644  20.723  0.00  0.00    +0.000 OA
ATOM     27  C   UNL     1       1.136   4.368  20.626  0.00  0.00    +0.000 C 
ENDBRANCH  21  26
ENDBRANCH   1  22
BRANCH   3  28
ATOM     28  C   UNL     1      -0.804  11.131  18.359  0.00  0.00    +0.000 C 
ATOM     29  O   UNL     1      -0.355  12.260  18.217  0.00  0.00    +0.000 OA
ATOM     30  N   UNL     1      -1.874  10.642  17.616  0.00  0.00    +0.000 N 
ATOM     31  H   UNL     1      -2.291   9.754  17.863  0.00  0.00    +0.000 HD
BRANCH  30  32
ATOM     32  C   UNL     1      -2.588  11.545  16.727  0.00  0.00    +0.000 C 
BRANCH  32  33
ATOM     33  C   UNL     1      -3.928  10.995  16.237  0.00  0.00    +0.000 C 
BRANCH  33  34
ATOM     34  C   UNL     1      -5.040  11.340  17.199  0.00  0.00    +0.000 A 
ATOM     35  C   UNL     1      -5.449  10.423  18.177  0.00  0.00    +0.000 A 
ATOM     36  C   UNL     1      -6.513  10.724  19.030  0.00  0.00    +0.000 A 
ATOM     37  C   UNL     1      -7.182  11.942  18.911  0.00  0.00    +0.000 A 
ATOM     38  C   UNL     1      -6.787  12.858  17.940  0.00  0.00    +0.000 A 
ATOM     39  C   UNL     1      -5.724  12.560  17.085  0.00  0.00    +0.000 A 
ENDBRANCH  33  34
ENDBRANCH  32  33
ENDBRANCH  30  32
ENDBRANCH   3  28
TORSDOF 8
ENDMDL
MODEL 8
REMARK VINA RESULT:      -7.8      2.677      4.848
REMARK  Name = 
REMARK  11 active torsions:
REMARK  status: ('A' for Active; 'I' for Inactive)
REMARK    1  A    between atoms: C_1  and  O_2
REMARK    2  A    between atoms: O_2  and  C_3
REMARK    3  A    between atoms: C_6  and  O_7
REMARK    4  A    between atoms: O_7  and  C_8
REMARK    5  A    between atoms: C_9  and  C_10
REMARK    6  A    between atoms: C_12  and  C_13
REMARK    7  A    between atoms: N_15  and  C_16
REMARK    8  A    between atoms: C_16  and  C_17
REMARK    9  A    between atoms: C_17  and  C_18
REMARK   10  A    between atoms: C_25  and  C_26
REMARK   11  A    between atoms: C_29  and  C_30
REMARK                            x       y       z     vdW  Elec       q    Type
REMARK                         _______ _______ _______ _____ _____    ______ ____
ROOT
ATOM      1  C   UNL     1       1.379   8.113  20.024  0.00  0.00    +0.000 A 
ATOM      2  C   UNL     1       0.591   9.002  19.256  0.00  0.00    +0.000 A 
ATOM      3  C   UNL     1      -0.149  10.050  19.830  0.00  0.00    +0.000 A 
ATOM      4  C   UNL     1      -0.022  10.084  21.233  0.00  0.00    +0.000 A 
ATOM      5  C   UNL     1      -0.618  10.889  22.201  0.00  0.00    +0.000 A 
ATOM      6  N   UNL     1      -0.043  10.457  23.383  0.00  0.00    +0.000 N 
ATOM      7  N   UNL     1       0.806   9.431  23.273  0.00  0.00    +0.000 NA
ATOM      8  C   UNL     1       0.807   9.170  21.970  0.00  0.00    +0.000 A 
ATOM      9  N   UNL     1       1.511   8.176  21.382  0.00  0.00    +0.000 NA
ATOM     10  H   UNL     1      -0.237  10.805  24.315  0.00  0.00    +0.000 HD
ENDROOT
BRANCH   5  11
ATOM     11  C   UNL     1      -1.671  11.914  22.241  0.00  0.00    +0.000 A 
ATOM     12  C   UNL     1      -2.719  11.838  23.165  0.00  0.00    +0.000 A 
ATOM     13  C   UNL     1      -3.704  12.828  23.231  0.00  0.00    +0.000 A 
ATOM     14  C   UNL     1      -3.634  13.957  22.413  0.00  0.00    +0.000 A 
ATOM     15  C   UNL     1      -4.650  15.052  22.530  0.00  0.00    +0.000 C 
ATOM     16  C   UNL     1      -2.573  14.067  21.512  0.00  0.00    +0.000 A 
ATOM     17  C   UNL     1      -1.614  13.051  21.415  0.00  0.00    +0.000 A 
ENDBRANCH   5  11
BRANCH   1  22
ATOM     18  C   UNL     1       3.943   6.641  17.648  0.00  0.00    +0.000 A 
ATOM     19  C   UNL     1       3.966   5.304  18.020  0.00  0.00    +0.000 A 
ATOM     20  C   UNL     1       3.148   4.845  19.052  0.00  0.00    +0.000 A 
ATOM     21  C   UNL     1       2.273   5.718  19.719  0.00  0.00    +0.000 A 
ATOM     22  C   UNL     1       2.253   7.092  19.382  0.00  0.00    +0.000 A 
ATOM     23  C   UNL     1       3.108   7.520  18.334  0.00  0.00    +0.000 A 
BRANCH  18  25
ATOM     24  C   UNL     1       6.169   6.828  16.840  0.00  0.00    +0.000 C 
ATOM     25  O   UNL     1       4.772   6.962  16.609  0.00  0.00    +0.000 OA
ENDBRANCH  18  25
BRANCH  21  26
ATOM     26  O   UNL     1       1.464   5.283  20.744  0.00  0.00    +0.000 OA
ATOM     27  C   UNL     1       1.615   3.908  21.103  0.00  0.00    +0.000 C 
ENDBRANCH  21  26
ENDBRANCH   1  22
BRANCH   3  28
ATOM     28  C   UNL     1      -0.768  11.061  18.966  0.00  0.00    +0.000 C 
ATOM     29  O   UNL     1      -0.158  12.079  18.670  0.00  0.00    +0.000 OA
ATOM     30  N   UNL     1      -2.037  10.769  18.476  0.00  0.00    +0.000 N 
ATOM     31  H   UNL     1      -2.552   9.984  18.854  0.00  0.00    +0.000 HD
BRANCH  30  32
ATOM     32  C   UNL     1      -2.737  11.770  17.687  0.00  0.00    +0.000 C 
BRANCH  32  33
ATOM     33  C   UNL     1      -4.130  11.332  17.231  0.00  0.00    +0.000 C 
BRANCH  33  34
ATOM     34  C   UNL     1      -5.105  11.342  18.384  0.00  0.00    +0.000 A 
ATOM     35  C   UNL     1      -6.075  10.338  18.509  0.00  0.00    +0.000 A 
ATOM     36  C   UNL     1      -7.010  10.380  19.546  0.00  0.00    +0.000 A 
ATOM     37  C   UNL     1      -6.987  11.428  20.466  0.00  0.00    +0.000 A 
ATOM     38  C   UNL     1      -6.031  12.434  20.349  0.00  0.00    +0.000 A 
ATOM     39  C   UNL     1      -5.095  12.394  19.313  0.00  0.00    +0.000 A 
ENDBRANCH  33  34
ENDBRANCH  32  33
ENDBRANCH  30  32
ENDBRANCH   3  28
TORSDOF 8
ENDMDL
MODEL 9
REMARK VINA RESULT:      -7.8      1.452      1.898
REMARK  Name = 
REMARK  11 active torsions:
REMARK  status: ('A' for Active; 'I' for Inactive)
REMARK    1  A    between atoms: C_1  and  O_2
REMARK    2  A    between atoms: O_2  and  C_3
REMARK    3  A    between atoms: C_6  and  O_7
REMARK    4  A    between atoms: O_7  and  C_8
REMARK    5  A    between atoms: C_9  and  C_10
REMARK    6  A    between atoms: C_12  and  C_13
REMARK    7  A    between atoms: N_15  and  C_16
REMARK    8  A    between atoms: C_16  and  C_17
REMARK    9  A    between atoms: C_17  and  C_18
REMARK   10  A    between atoms: C_25  and  C_26
REMARK   11  A    between atoms: C_29  and  C_30
REMARK                            x       y       z     vdW  Elec       q    Type
REMARK                         _______ _______ _______ _____ _____    ______ ____
ROOT
ATOM      1  C   UNL     1       2.009   7.575  19.727  0.00  0.00    +0.000 A 
ATOM      2  C   UNL     1       1.521   8.144  20.926  0.00  0.00    +0.000 A 
ATOM      3  C   UNL     1       1.069   9.471  21.008  0.00  0.00    +0.000 A 
ATOM      4  C   UNL     1       1.182  10.148  19.777  0.00  0.00    +0.000 A 
ATOM      5  C   UNL     1       0.925  11.468  19.415  0.00  0.00    +0.000 A 
ATOM      6  N   UNL     1       1.186  11.490  18.057  0.00  0.00    +0.000 N 
ATOM      7  N   UNL     1       1.634  10.344  17.534  0.00  0.00    +0.000 NA
ATOM      8  C   UNL     1       1.667   9.522  18.577  0.00  0.00    +0.000 A 
ATOM      9  N   UNL     1       2.088   8.237  18.535  0.00  0.00    +0.000 NA
ATOM     10  H   UNL     1       1.119  12.290  17.438  0.00  0.00    +0.000 HD
ENDROOT
BRANCH   5  11
ATOM     11  C   UNL     1       0.568  12.717  20.103  0.00  0.00    +0.000 A 
ATOM     12  C   UNL     1       1.438  13.308  21.026  0.00  0.00    +0.000 A 
ATOM     13  C   UNL     1       1.119  14.513  21.658  0.00  0.00    +0.000 A 
ATOM     14  C   UNL     1      -0.055  15.196  21.337  0.00  0.00    +0.000 A 
ATOM     15  C   UNL     1      -0.365  16.522  21.962  0.00  0.00    +0.000 C 
ATOM     16  C   UNL     1      -0.917  14.639  20.389  0.00  0.00    +0.000 A 
ATOM     17  C   UNL     1      -0.617  13.407  19.793  0.00  0.00    +0.000 A 
ENDBRANCH   5  11
BRANCH   1  22
ATOM     18  C   UNL     1       1.778   3.832  20.303  0.00  0.00    +0.000 A 
ATOM     19  C   UNL     1       2.878   3.352  19.604  0.00  0.00    +0.000 A 
ATOM     20  C   UNL     1       3.724   4.231  18.929  0.00  0.00    +0.000 A 
ATOM     21  C   UNL     1       3.494   5.616  18.958  0.00  0.00    +0.000 A 
ATOM     22  C   UNL     1       2.363   6.130  19.635  0.00  0.00    +0.000 A 
ATOM     23  C   UNL     1       1.522   5.202  20.301  0.00  0.00    +0.000 A 
BRANCH  18  25
ATOM     24  C   UNL     1       1.668   2.205  22.030  0.00  0.00    +0.000 C 
ATOM     25  O   UNL     1       1.041   2.875  20.943  0.00  0.00    +0.000 OA
ENDBRANCH  18  25
BRANCH  21  26
ATOM     26  O   UNL     1       4.314   6.497  18.291  0.00  0.00    +0.000 OA
ATOM     27  C   UNL     1       4.802   6.043  17.027  0.00  0.00    +0.000 C 
ENDBRANCH  21  26
ENDBRANCH   1  22
BRANCH   3  28
ATOM     28  C   UNL     1       0.378   9.931  22.218  0.00  0.00    +0.000 C 
ATOM     29  O   UNL     1       0.885   9.768  23.319  0.00  0.00    +0.000 OA
ATOM     30  N   UNL     1      -0.831  10.593  22.031  0.00  0.00    +0.000 N 
ATOM     31  H   UNL     1      -1.272  10.584  21.120  0.00  0.00    +0.000 HD
BRANCH  30  32
ATOM     32  C   UNL     1      -1.604  10.994  23.196  0.00  0.00    +0.000 C 
BRANCH  32  33
ATOM     33  C   UNL     1      -1.945  12.485  23.226  0.00  0.00    +0.000 C 
BRANCH  33  34
ATOM     34  C   UNL     1      -3.426  12.706  23.033  0.00  0.00    +0.000 A 
ATOM     35  C   UNL     1      -4.290  12.763  24.135  0.00  0.00    +0.000 A 
ATOM     36  C   UNL     1      -5.666  12.914  23.950  0.00  0.00    +0.000 A 
ATOM     37  C   UNL     1      -6.193  13.007  22.663  0.00  0.00    +0.000 A 
ATOM     38  C   UNL     1      -5.344  12.948  21.560  0.00  0.00    +0.000 A 
ATOM     39  C   UNL     1      -3.968  12.796  21.742  0.00  0.00    +0.000 A 
ENDBRANCH  33  34
ENDBRANCH  32  33
ENDBRANCH  30  32
ENDBRANCH   3  28
TORSDOF 8
ENDMDL
