MODEL 1
REMARK VINA RESULT:      -9.4      0.000      0.000
REMARK  Name = 
REMARK  4 active torsions:
REMARK  status: ('A' for Active; 'I' for Inactive)
REMARK    1  A    between atoms: C_2  and  C_27
REMARK    2  A    between atoms: N_3  and  C_4
REMARK    3  A    between atoms: C_8  and  N_9
REMARK    4  A    between atoms: N_9  and  C_10
REMARK                            x       y       z     vdW  Elec       q    Type
REMARK                         _______ _______ _______ _____ _____    ______ ____
ROOT
ATOM      1  N   UNL     1       1.965   6.680  21.143  0.00  0.00    +0.000 N 
ATOM      2  H   UNL     1       1.543   6.387  22.027  0.00  0.00    +0.000 HD
ENDROOT
BRANCH   1   3
ATOM      3  C   UNL     1       1.513   7.970  20.784  0.00  0.00    +0.000 A 
ATOM      4  C   UNL     1       1.578   8.526  19.505  0.00  0.00    +0.000 A 
ATOM      5  C   UNL     1       0.749   9.622  19.158  0.00  0.00    +0.000 A 
ATOM      6  C   UNL     1      -0.104  10.248  20.100  0.00  0.00    +0.000 A 
ATOM      7  C   UNL     1       0.059   9.809  21.406  0.00  0.00    +0.000 A 
ATOM      8  C   UNL     1       0.850   8.694  21.742  0.00  0.00    +0.000 A 
ATOM      9  C   UNL     1      -0.602  10.334  22.650  0.00  0.00    +0.000 C 
ATOM     10  C   UNL     1      -1.566  11.425  22.981  0.00  0.00    +0.000 C 
ATOM     11  C   UNL     1      -1.660  12.475  21.917  0.00  0.00    +0.000 A 
ATOM     12  C   UNL     1      -2.041  13.718  22.471  0.00  0.00    +0.000 A 
ATOM     13  C   UNL     1      -3.158  14.347  21.966  0.00  0.00    +0.000 A 
ATOM     14  C   UNL     1      -3.817  13.785  20.880  0.00  0.00    +0.000 A 
ATOM     15  C   UNL     1      -3.226  12.721  20.163  0.00  0.00    +0.000 A 
ATOM     16  C   UNL     1      -2.035  12.115  20.623  0.00  0.00    +0.000 A 
ATOM     17  C   UNL     1      -1.232  11.191  19.694  0.00  0.00    +0.000 C 
ATOM     18  O   UNL     1      -1.514  11.211  18.491  0.00  0.00    +0.000 OA
ENDBRANCH   1   3
BRANCH   1  23
ATOM     19  C   UNL     1       2.711   4.475  18.242  0.00  0.00    +0.000 A 
ATOM     20  C   UNL     1       1.739   3.488  18.418  0.00  0.00    +0.000 A 
ATOM     21  C   UNL     1       0.890   3.511  19.517  0.00  0.00    +0.000 A 
ATOM     22  C   UNL     1       0.992   4.540  20.438  0.00  0.00    +0.000 A 
ATOM     23  C   UNL     1       1.931   5.561  20.269  0.00  0.00    +0.000 A 
ATOM     24  C   UNL     1       2.845   5.480  19.203  0.00  0.00    +0.000 A 
BRANCH  19  27
ATOM     25  O   UNL     1       5.565   4.118  18.209  0.00  0.00    +0.000 OA
ATOM     26  C   UNL     1       4.943   4.344  17.177  0.00  0.00    +0.000 C 
ATOM     27  N   UNL     1       3.563   4.495  17.116  0.00  0.00    +0.000 N 
ATOM     28  H   UNL     1       3.139   4.481  16.194  0.00  0.00    +0.000 HD
BRANCH  26  29
ATOM     29  C   UNL     1       5.662   4.411  15.906  0.00  0.00    +0.000 A 
ATOM     30  C   UNL     1       5.169   3.939  14.702  0.00  0.00    +0.000 A 
ATOM     31  C   UNL     1       6.096   4.071  13.636  0.00  0.00    +0.000 A 
ATOM     32  C   UNL     1       7.273   4.649  14.057  0.00  0.00    +0.000 A 
ATOM     33  S   UNL     1       7.237   5.043  15.726  0.00  0.00    +0.000 S 
ENDBRANCH  26  29
ENDBRANCH  19  27
ENDBRANCH   1  23
TORSDOF 4
ENDMDL
MODEL 2
REMARK VINA RESULT:      -9.1      3.724      5.466
REMARK  Name = 
REMARK  4 active torsions:
REMARK  status: ('A' for Active; 'I' for Inactive)
REMARK    1  A    between atoms: C_2  and  C_27
REMARK    2  A    between atoms: N_3  and  C_4
REMARK    3  A    between atoms: C_8  and  N_9
REMARK    4  A    between atoms: N_9  and  C_10
REMARK                            x       y       z     vdW  Elec       q    Type
REMARK                         _______ _______ _______ _____ _____    ______ ____
ROOT
ATOM      1  N   UNL     1       4.339   4.353  18.514  0.00  0.00    +0.000 N 
ATOM      2  H   UNL     1       3.973   3.502  18.081  0.00  0.00    +0.000 HD
ENDROOT
BRANCH   1   3
ATOM      3  C   UNL     1       3.281   5.154  19.000  0.00  0.00    +0.000 A 
ATOM      4  C   UNL     1       2.599   4.956  20.201  0.00  0.00    +0.000 A 
ATOM      5  C   UNL     1       1.861   6.015  20.789  0.00  0.00    +0.000 A 
ATOM      6  C   UNL     1       1.714   7.272  20.153  0.00  0.00    +0.000 A 
ATOM      7  C   UNL     1       2.207   7.324  18.858  0.00  0.00    +0.000 A 
ATOM      8  C   UNL     1       2.974   6.288  18.292  0.00  0.00    +0.000 A 
ATOM      9  C   UNL     1       2.114   8.458  17.876  0.00  0.00    +0.000 C 
ATOM     10  C   UNL     1       1.511   9.824  17.857  0.00  0.00    +0.000 C 
ATOM     11  C   UNL     1       0.459  10.019  18.905  0.00  0.00    +0.000 A 
ATOM     12  C   UNL     1      -0.478  10.997  18.499  0.00  0.00    +0.000 A 
ATOM     13  C   UNL     1      -0.696  12.080  19.322  0.00  0.00    +0.000 A 
ATOM     14  C   UNL     1      -0.056  12.131  20.554  0.00  0.00    +0.000 A 
ATOM     15  C   UNL     1       0.618  10.994  21.052  0.00  0.00    +0.000 A 
ATOM     16  C   UNL     1       0.782   9.843  20.250  0.00  0.00    +0.000 A 
ATOM     17  C   UNL     1       1.223   8.516  20.887  0.00  0.00    +0.000 C 
ATOM     18  O   UNL     1       1.172   8.432  22.119  0.00  0.00    +0.000 OA
ENDBRANCH   1   3
BRANCH   1  23
ATOM     19  C   UNL     1       6.869   6.646  17.041  0.00  0.00    +0.000 A 
ATOM     20  C   UNL     1       7.252   5.913  15.916  0.00  0.00    +0.000 A 
ATOM     21  C   UNL     1       6.732   4.646  15.681  0.00  0.00    +0.000 A 
ATOM     22  C   UNL     1       5.803   4.114  16.559  0.00  0.00    +0.000 A 
ATOM     23  C   UNL     1       5.375   4.840  17.673  0.00  0.00    +0.000 A 
ATOM     24  C   UNL     1       5.973   6.082  17.952  0.00  0.00    +0.000 A 
BRANCH  19  27
ATOM     25  O   UNL     1       8.701   7.466  19.101  0.00  0.00    +0.000 OA
ATOM     26  C   UNL     1       8.219   8.280  18.322  0.00  0.00    +0.000 C 
ATOM     27  N   UNL     1       7.355   7.950  17.285  0.00  0.00    +0.000 N 
ATOM     28  H   UNL     1       7.177   8.666  16.588  0.00  0.00    +0.000 HD
BRANCH  26  29
ATOM     29  C   UNL     1       8.600   9.688  18.428  0.00  0.00    +0.000 A 
ATOM     30  C   UNL     1       8.299  10.654  17.485  0.00  0.00    +0.000 A 
ATOM     31  C   UNL     1       8.841  11.926  17.804  0.00  0.00    +0.000 A 
ATOM     32  C   UNL     1       9.538  11.895  18.991  0.00  0.00    +0.000 A 
ATOM     33  S   UNL     1       9.513  10.341  19.714  0.00  0.00    +0.000 S 
ENDBRANCH  26  29
ENDBRANCH  19  27
ENDBRANCH   1  23
TORSDOF 4
ENDMDL
MODEL 3
REMARK VINA RESULT:      -9.0      4.406     10.764
REMARK  Name = 
REMARK  4 active torsions:
REMARK  status: ('A' for Active; 'I' for Inactive)
REMARK    1  A    between atoms: C_2  and  C_27
REMARK    2  A    between atoms: N_3  and  C_4
REMARK    3  A    between atoms: C_8  and  N_9
REMARK    4  A    between atoms: N_9  and  C_10
REMARK                            x       y       z     vdW  Elec       q    Type
REMARK                         _______ _______ _______ _____ _____    ______ ____
ROOT
ATOM      1  N   UNL     1      -0.113  11.159  18.212  0.00  0.00    +0.000 N 
ATOM      2  H   UNL     1       0.297  11.414  17.310  0.00  0.00    +0.000 HD
ENDROOT
BRANCH   1   3
ATOM      3  C   UNL     1       0.692  10.202  18.869  0.00  0.00    +0.000 A 
ATOM      4  C   UNL     1       0.527   9.767  20.184  0.00  0.00    +0.000 A 
ATOM      5  C   UNL     1       1.098   8.541  20.611  0.00  0.00    +0.000 A 
ATOM      6  C   UNL     1       1.920   7.759  19.763  0.00  0.00    +0.000 A 
ATOM      7  C   UNL     1       2.245   8.364  18.557  0.00  0.00    +0.000 A 
ATOM      8  C   UNL     1       1.644   9.559  18.118  0.00  0.00    +0.000 A 
ATOM      9  C   UNL     1       3.175   7.861  17.489  0.00  0.00    +0.000 C 
ATOM     10  C   UNL     1       4.055   6.670  17.297  0.00  0.00    +0.000 C 
ATOM     11  C   UNL     1       4.379   5.963  18.576  0.00  0.00    +0.000 A 
ATOM     12  C   UNL     1       5.620   5.294  18.480  0.00  0.00    +0.000 A 
ATOM     13  C   UNL     1       5.661   3.942  18.739  0.00  0.00    +0.000 A 
ATOM     14  C   UNL     1       4.505   3.302  19.168  0.00  0.00    +0.000 A 
ATOM     15  C   UNL     1       3.374   4.057  19.551  0.00  0.00    +0.000 A 
ATOM     16  C   UNL     1       3.346   5.458  19.366  0.00  0.00    +0.000 A 
ATOM     17  C   UNL     1       2.271   6.306  20.064  0.00  0.00    +0.000 C 
ATOM     18  O   UNL     1       1.622   5.769  20.968  0.00  0.00    +0.000 OA
ENDBRANCH   1   3
BRANCH   1  23
ATOM     19  C   UNL     1      -3.773  11.792  18.419  0.00  0.00    +0.000 A 
ATOM     20  C   UNL     1      -4.265  10.631  17.819  0.00  0.00    +0.000 A 
ATOM     21  C   UNL     1      -3.401   9.680  17.291  0.00  0.00    +0.000 A 
ATOM     22  C   UNL     1      -2.033   9.874  17.383  0.00  0.00    +0.000 A 
ATOM     23  C   UNL     1      -1.511  11.008  18.010  0.00  0.00    +0.000 A 
ATOM     24  C   UNL     1      -2.393  12.008  18.461  0.00  0.00    +0.000 A 
BRANCH  19  27
ATOM     25  O   UNL     1      -4.110  12.372  21.216  0.00  0.00    +0.000 OA
ATOM     26  C   UNL     1      -4.763  12.964  20.363  0.00  0.00    +0.000 C 
ATOM     27  N   UNL     1      -4.628  12.757  18.996  0.00  0.00    +0.000 N 
ATOM     28  H   UNL     1      -5.069  13.434  18.382  0.00  0.00    +0.000 HD
BRANCH  26  29
ATOM     29  C   UNL     1      -5.711  13.998  20.774  0.00  0.00    +0.000 A 
ATOM     30  C   UNL     1      -6.744  14.472  19.985  0.00  0.00    +0.000 A 
ATOM     31  C   UNL     1      -7.477  15.518  20.603  0.00  0.00    +0.000 A 
ATOM     32  C   UNL     1      -6.984  15.809  21.856  0.00  0.00    +0.000 A 
ATOM     33  S   UNL     1      -5.659  14.805  22.278  0.00  0.00    +0.000 S 
ENDBRANCH  26  29
ENDBRANCH  19  27
ENDBRANCH   1  23
TORSDOF 4
ENDMDL
MODEL 4
REMARK VINA RESULT:      -9.0      4.231     10.379
REMARK  Name = 
REMARK  4 active torsions:
REMARK  status: ('A' for Active; 'I' for Inactive)
REMARK    1  A    between atoms: C_2  and  C_27
REMARK    2  A    between atoms: N_3  and  C_4
REMARK    3  A    between atoms: C_8  and  N_9
REMARK    4  A    between atoms: N_9  and  C_10
REMARK                            x       y       z     vdW  Elec       q    Type
REMARK                         _______ _______ _______ _____ _____    ______ ____
ROOT
ATOM      1  N   UNL     1       0.738  11.506  20.612  0.00  0.00    +0.000 N 
ATOM      2  H   UNL     1       1.080  12.363  20.170  0.00  0.00    +0.000 HD
ENDROOT
BRANCH   1   3
ATOM      3  C   UNL     1       1.000  10.387  19.790  0.00  0.00    +0.000 A 
ATOM      4  C   UNL     1       1.404  10.438  18.455  0.00  0.00    +0.000 A 
ATOM      5  C   UNL     1       2.028   9.316  17.853  0.00  0.00    +0.000 A 
ATOM      6  C   UNL     1       2.188   8.087  18.538  0.00  0.00    +0.000 A 
ATOM      7  C   UNL     1       1.549   8.025  19.768  0.00  0.00    +0.000 A 
ATOM      8  C   UNL     1       0.967   9.150  20.382  0.00  0.00    +0.000 A 
ATOM      9  C   UNL     1       1.428   6.845  20.691  0.00  0.00    +0.000 C 
ATOM     10  C   UNL     1       1.859   5.415  20.678  0.00  0.00    +0.000 C 
ATOM     11  C   UNL     1       2.190   4.911  19.307  0.00  0.00    +0.000 A 
ATOM     12  C   UNL     1       1.983   3.515  19.223  0.00  0.00    +0.000 A 
ATOM     13  C   UNL     1       3.032   2.718  18.819  0.00  0.00    +0.000 A 
ATOM     14  C   UNL     1       4.223   3.317  18.428  0.00  0.00    +0.000 A 
ATOM     15  C   UNL     1       4.284   4.714  18.228  0.00  0.00    +0.000 A 
ATOM     16  C   UNL     1       3.187   5.539  18.562  0.00  0.00    +0.000 A 
ATOM     17  C   UNL     1       3.130   6.989  18.055  0.00  0.00    +0.000 C 
ATOM     18  O   UNL     1       3.919   7.309  17.159  0.00  0.00    +0.000 OA
ENDBRANCH   1   3
BRANCH   1  23
ATOM     19  C   UNL     1      -2.820  12.566  20.840  0.00  0.00    +0.000 A 
ATOM     20  C   UNL     1      -2.990  12.590  22.226  0.00  0.00    +0.000 A 
ATOM     21  C   UNL     1      -1.964  12.197  23.076  0.00  0.00    +0.000 A 
ATOM     22  C   UNL     1      -0.749  11.800  22.543  0.00  0.00    +0.000 A 
ATOM     23  C   UNL     1      -0.539  11.799  21.162  0.00  0.00    +0.000 A 
ATOM     24  C   UNL     1      -1.611  12.113  20.307  0.00  0.00    +0.000 A 
BRANCH  19  27
ATOM     25  O   UNL     1      -5.617  11.902  20.942  0.00  0.00    +0.000 OA
ATOM     26  C   UNL     1      -5.166  12.609  20.047  0.00  0.00    +0.000 C 
ATOM     27  N   UNL     1      -3.834  12.994  19.955  0.00  0.00    +0.000 N 
ATOM     28  H   UNL     1      -3.613  13.732  19.295  0.00  0.00    +0.000 HD
BRANCH  26  29
ATOM     29  C   UNL     1      -6.070  13.141  19.028  0.00  0.00    +0.000 A 
ATOM     30  C   UNL     1      -6.082  12.737  17.705  0.00  0.00    +0.000 A 
ATOM     31  C   UNL     1      -7.015  13.458  16.916  0.00  0.00    +0.000 A 
ATOM     32  C   UNL     1      -7.697  14.391  17.666  0.00  0.00    +0.000 A 
ATOM     33  S   UNL     1      -7.218  14.372  19.312  0.00  0.00    +0.000 S 
ENDBRANCH  26  29
ENDBRANCH  19  27
ENDBRANCH   1  23
TORSDOF 4
ENDMDL
MODEL 5
REMARK VINA RESULT:      -8.9      1.878      2.738
REMARK  Name = 
REMARK  4 active torsions:
REMARK  status: ('A' for Active; 'I' for Inactive)
REMARK    1  A    between atoms: C_2  and  C_27
REMARK    2  A    between atoms: N_3  and  C_4
REMARK    3  A    between atoms: C_8  and  N_9
REMARK    4  A    between atoms: N_9  and  C_10
REMARK                            x       y       z     vdW  Elec       q    Type
REMARK                         _______ _______ _______ _____ _____    ______ ____
ROOT
ATOM      1  N   UNL     1       2.850   5.951  19.125  0.00  0.00    +0.000 N 
ATOM      2  H   UNL     1       2.137   5.379  18.665  0.00  0.00    +0.000 HD
ENDROOT
BRANCH   1   3
ATOM      3  C   UNL     1       2.421   7.294  19.219  0.00  0.00    +0.000 A 
ATOM      4  C   UNL     1       2.463   8.234  18.189  0.00  0.00    +0.000 A 
ATOM      5  C   UNL     1       1.653   9.397  18.246  0.00  0.00    +0.000 A 
ATOM      6  C   UNL     1       0.844   9.695  19.369  0.00  0.00    +0.000 A 
ATOM      7  C   UNL     1       1.033   8.853  20.455  0.00  0.00    +0.000 A 
ATOM      8  C   UNL     1       1.804   7.677  20.384  0.00  0.00    +0.000 A 
ATOM      9  C   UNL     1       0.422   8.955  21.825  0.00  0.00    +0.000 C 
ATOM     10  C   UNL     1      -0.505   9.893  22.527  0.00  0.00    +0.000 C 
ATOM     11  C   UNL     1      -0.602  11.233  21.865  0.00  0.00    +0.000 A 
ATOM     12  C   UNL     1      -0.935  12.234  22.805  0.00  0.00    +0.000 A 
ATOM     13  C   UNL     1      -2.049  13.010  22.572  0.00  0.00    +0.000 A 
ATOM     14  C   UNL     1      -2.753  12.841  21.386  0.00  0.00    +0.000 A 
ATOM     15  C   UNL     1      -2.211  12.059  20.342  0.00  0.00    +0.000 A 
ATOM     16  C   UNL     1      -1.023  11.319  20.538  0.00  0.00    +0.000 A 
ATOM     17  C   UNL     1      -0.270  10.736  19.331  0.00  0.00    +0.000 C 
ATOM     18  O   UNL     1      -0.586  11.149  18.211  0.00  0.00    +0.000 OA
ENDBRANCH   1   3
BRANCH   1  23
ATOM     19  C   UNL     1       5.386   4.551  16.792  0.00  0.00    +0.000 A 
ATOM     20  C   UNL     1       6.523   4.585  17.603  0.00  0.00    +0.000 A 
ATOM     21  C   UNL     1       6.470   5.126  18.881  0.00  0.00    +0.000 A 
ATOM     22  C   UNL     1       5.269   5.614  19.368  0.00  0.00    +0.000 A 
ATOM     23  C   UNL     1       4.108   5.561  18.593  0.00  0.00    +0.000 A 
ATOM     24  C   UNL     1       4.191   5.095  17.268  0.00  0.00    +0.000 A 
BRANCH  19  27
ATOM     25  O   UNL     1       6.721   5.559  14.452  0.00  0.00    +0.000 OA
ATOM     26  C   UNL     1       6.048   4.535  14.406  0.00  0.00    +0.000 C 
ATOM     27  N   UNL     1       5.404   3.976  15.503  0.00  0.00    +0.000 N 
ATOM     28  H   UNL     1       5.045   3.032  15.394  0.00  0.00    +0.000 HD
BRANCH  26  29
ATOM     29  C   UNL     1       5.942   3.802  13.145  0.00  0.00    +0.000 A 
ATOM     30  C   UNL     1       4.752   3.366  12.591  0.00  0.00    +0.000 A 
ATOM     31  C   UNL     1       4.938   2.626  11.394  0.00  0.00    +0.000 A 
ATOM     32  C   UNL     1       6.271   2.525  11.065  0.00  0.00    +0.000 A 
ATOM     33  S   UNL     1       7.278   3.338  12.189  0.00  0.00    +0.000 S 
ENDBRANCH  26  29
ENDBRANCH  19  27
ENDBRANCH   1  23
TORSDOF 4
ENDMDL
MODEL 6
REMARK VINA RESULT:      -8.9      3.977      5.686
REMARK  Name = 
REMARK  4 active torsions:
REMARK  status: ('A' for Active; 'I' for Inactive)
REMARK    1  A    between atoms: C_2  and  C_27
REMARK    2  A    between atoms: N_3  and  C_4
REMARK    3  A    between atoms: C_8  and  N_9
REMARK    4  A    between atoms: N_9  and  C_10
REMARK                            x       y       z     vdW  Elec       q    Type
REMARK                         _______ _______ _______ _____ _____    ______ ____
ROOT
ATOM      1  N   UNL     1       4.532   4.397  18.777  0.00  0.00    +0.000 N 
ATOM      2  H   UNL     1       4.213   3.547  18.305  0.00  0.00    +0.000 HD
ENDROOT
BRANCH   1   3
ATOM      3  C   UNL     1       3.428   5.176  19.191  0.00  0.00    +0.000 A 
ATOM      4  C   UNL     1       2.698   4.989  20.365  0.00  0.00    +0.000 A 
ATOM      5  C   UNL     1       1.901   6.040  20.888  0.00  0.00    +0.000 A 
ATOM      6  C   UNL     1       1.744   7.273  20.210  0.00  0.00    +0.000 A 
ATOM      7  C   UNL     1       2.294   7.306  18.937  0.00  0.00    +0.000 A 
ATOM      8  C   UNL     1       3.118   6.280  18.436  0.00  0.00    +0.000 A 
ATOM      9  C   UNL     1       2.212   8.409  17.919  0.00  0.00    +0.000 C 
ATOM     10  C   UNL     1       1.568   9.753  17.834  0.00  0.00    +0.000 C 
ATOM     11  C   UNL     1       0.462   9.942  18.826  0.00  0.00    +0.000 A 
ATOM     12  C   UNL     1      -0.485  10.877  18.350  0.00  0.00    +0.000 A 
ATOM     13  C   UNL     1      -0.774  11.975  19.130  0.00  0.00    +0.000 A 
ATOM     14  C   UNL     1      -0.194  12.081  20.388  0.00  0.00    +0.000 A 
ATOM     15  C   UNL     1       0.492  10.982  20.950  0.00  0.00    +0.000 A 
ATOM     16  C   UNL     1       0.728   9.815  20.189  0.00  0.00    +0.000 A 
ATOM     17  C   UNL     1       1.181   8.520  20.884  0.00  0.00    +0.000 C 
ATOM     18  O   UNL     1       1.076   8.470  22.114  0.00  0.00    +0.000 OA
ENDBRANCH   1   3
BRANCH   1  23
ATOM     19  C   UNL     1       7.424   6.522  17.801  0.00  0.00    +0.000 A 
ATOM     20  C   UNL     1       7.627   6.087  16.489  0.00  0.00    +0.000 A 
ATOM     21  C   UNL     1       6.864   5.057  15.954  0.00  0.00    +0.000 A 
ATOM     22  C   UNL     1       5.871   4.472  16.721  0.00  0.00    +0.000 A 
ATOM     23  C   UNL     1       5.621   4.910  18.024  0.00  0.00    +0.000 A 
ATOM     24  C   UNL     1       6.458   5.891  18.588  0.00  0.00    +0.000 A 
BRANCH  19  27
ATOM     25  O   UNL     1       7.224   9.312  17.132  0.00  0.00    +0.000 OA
ATOM     26  C   UNL     1       8.034   8.916  17.964  0.00  0.00    +0.000 C 
ATOM     27  N   UNL     1       8.161   7.590  18.358  0.00  0.00    +0.000 N 
ATOM     28  H   UNL     1       8.719   7.407  19.186  0.00  0.00    +0.000 HD
BRANCH  26  29
ATOM     29  C   UNL     1       8.895   9.883  18.643  0.00  0.00    +0.000 A 
ATOM     30  C   UNL     1       9.061   9.956  20.015  0.00  0.00    +0.000 A 
ATOM     31  C   UNL     1       9.904  11.025  20.414  0.00  0.00    +0.000 A 
ATOM     32  C   UNL     1      10.365  11.737  19.329  0.00  0.00    +0.000 A 
ATOM     33  S   UNL     1       9.793  11.096  17.845  0.00  0.00    +0.000 S 
ENDBRANCH  26  29
ENDBRANCH  19  27
ENDBRANCH   1  23
TORSDOF 4
ENDMDL
MODEL 7
REMARK VINA RESULT:      -8.8      4.000     10.339
REMARK  Name = 
REMARK  4 active torsions:
REMARK  status: ('A' for Active; 'I' for Inactive)
REMARK    1  A    between atoms: C_2  and  C_27
REMARK    2  A    between atoms: N_3  and  C_4
REMARK    3  A    between atoms: C_8  and  N_9
REMARK    4  A    between atoms: N_9  and  C_10
REMARK                            x       y       z     vdW  Elec       q    Type
REMARK                         _______ _______ _______ _____ _____    ______ ____
ROOT
ATOM      1  N   UNL     1       1.094  10.394  21.021  0.00  0.00    +0.000 N 
ATOM      2  H   UNL     1       1.984  10.639  21.462  0.00  0.00    +0.000 HD
ENDROOT
BRANCH   1   3
ATOM      3  C   UNL     1       1.271   9.330  20.108  0.00  0.00    +0.000 A 
ATOM      4  C   UNL     1       1.582   9.465  18.754  0.00  0.00    +0.000 A 
ATOM      5  C   UNL     1       2.136   8.376  18.034  0.00  0.00    +0.000 A 
ATOM      6  C   UNL     1       2.314   7.100  18.621  0.00  0.00    +0.000 A 
ATOM      7  C   UNL     1       1.761   6.964  19.886  0.00  0.00    +0.000 A 
ATOM      8  C   UNL     1       1.250   8.055  20.615  0.00  0.00    +0.000 A 
ATOM      9  C   UNL     1       1.677   5.726  20.734  0.00  0.00    +0.000 C 
ATOM     10  C   UNL     1       2.071   4.292  20.593  0.00  0.00    +0.000 C 
ATOM     11  C   UNL     1       2.294   3.878  19.171  0.00  0.00    +0.000 A 
ATOM     12  C   UNL     1       2.049   2.496  19.007  0.00  0.00    +0.000 A 
ATOM     13  C   UNL     1       3.048   1.709  18.477  0.00  0.00    +0.000 A 
ATOM     14  C   UNL     1       4.223   2.311  18.044  0.00  0.00    +0.000 A 
ATOM     15  C   UNL     1       4.303   3.717  17.935  0.00  0.00    +0.000 A 
ATOM     16  C   UNL     1       3.251   4.538  18.401  0.00  0.00    +0.000 A 
ATOM     17  C   UNL     1       3.194   6.020  17.999  0.00  0.00    +0.000 C 
ATOM     18  O   UNL     1       3.927   6.386  17.073  0.00  0.00    +0.000 OA
ENDBRANCH   1   3
BRANCH   1  23
ATOM     19  C   UNL     1      -1.525  12.755  19.836  0.00  0.00    +0.000 A 
ATOM     20  C   UNL     1      -0.807  13.954  19.843  0.00  0.00    +0.000 A 
ATOM     21  C   UNL     1       0.505  13.996  20.297  0.00  0.00    +0.000 A 
ATOM     22  C   UNL     1       1.118  12.830  20.725  0.00  0.00    +0.000 A 
ATOM     23  C   UNL     1       0.437  11.611  20.695  0.00  0.00    +0.000 A 
ATOM     24  C   UNL     1      -0.918  11.593  20.320  0.00  0.00    +0.000 A 
BRANCH  19  27
ATOM     25  O   UNL     1      -3.957  12.869  21.366  0.00  0.00    +0.000 OA
ATOM     26  C   UNL     1      -3.980  12.710  20.150  0.00  0.00    +0.000 C 
ATOM     27  N   UNL     1      -2.847  12.678  19.347  0.00  0.00    +0.000 N 
ATOM     28  H   UNL     1      -2.991  12.740  18.344  0.00  0.00    +0.000 HD
BRANCH  26  29
ATOM     29  C   UNL     1      -5.267  12.600  19.465  0.00  0.00    +0.000 A 
ATOM     30  C   UNL     1      -5.428  12.137  18.171  0.00  0.00    +0.000 A 
ATOM     31  C   UNL     1      -6.775  12.191  17.728  0.00  0.00    +0.000 A 
ATOM     32  C   UNL     1      -7.609  12.689  18.705  0.00  0.00    +0.000 A 
ATOM     33  S   UNL     1      -6.761  13.066  20.147  0.00  0.00    +0.000 S 
ENDBRANCH  26  29
ENDBRANCH  19  27
ENDBRANCH   1  23
TORSDOF 4
ENDMDL
MODEL 8
REMARK VINA RESULT:      -8.7      3.719     10.192
REMARK  Name = 
REMARK  4 active torsions:
REMARK  status: ('A' for Active; 'I' for Inactive)
REMARK    1  A    between atoms: C_2  and  C_27
REMARK    2  A    between atoms: N_3  and  C_4
REMARK    3  A    between atoms: C_8  and  N_9
REMARK    4  A    between atoms: N_9  and  C_10
REMARK                            x       y       z     vdW  Elec       q    Type
REMARK                         _______ _______ _______ _____ _____    ______ ____
ROOT
ATOM      1  N   UNL     1       1.151  10.262  21.168  0.00  0.00    +0.000 N 
ATOM      2  H   UNL     1       2.053  10.508  21.582  0.00  0.00    +0.000 HD
ENDROOT
BRANCH   1   3
ATOM      3  C   UNL     1       1.306   9.219  20.227  0.00  0.00    +0.000 A 
ATOM      4  C   UNL     1       1.604   9.386  18.874  0.00  0.00    +0.000 A 
ATOM      5  C   UNL     1       2.138   8.309  18.121  0.00  0.00    +0.000 A 
ATOM      6  C   UNL     1       2.308   7.017  18.673  0.00  0.00    +0.000 A 
ATOM      7  C   UNL     1       1.767   6.855  19.940  0.00  0.00    +0.000 A 
ATOM      8  C   UNL     1       1.276   7.933  20.702  0.00  0.00    +0.000 A 
ATOM      9  C   UNL     1       1.678   5.597  20.757  0.00  0.00    +0.000 C 
ATOM     10  C   UNL     1       2.055   4.163  20.576  0.00  0.00    +0.000 C 
ATOM     11  C   UNL     1       2.258   3.782  19.142  0.00  0.00    +0.000 A 
ATOM     12  C   UNL     1       1.995   2.407  18.946  0.00  0.00    +0.000 A 
ATOM     13  C   UNL     1       2.980   1.624  18.385  0.00  0.00    +0.000 A 
ATOM     14  C   UNL     1       4.156   2.224  17.954  0.00  0.00    +0.000 A 
ATOM     15  C   UNL     1       4.251   3.631  17.880  0.00  0.00    +0.000 A 
ATOM     16  C   UNL     1       3.214   4.451  18.378  0.00  0.00    +0.000 A 
ATOM     17  C   UNL     1       3.169   5.944  18.014  0.00  0.00    +0.000 C 
ATOM     18  O   UNL     1       3.896   6.325  17.090  0.00  0.00    +0.000 OA
ENDBRANCH   1   3
BRANCH   1  23
ATOM     19  C   UNL     1      -1.597  12.634  20.356  0.00  0.00    +0.000 A 
ATOM     20  C   UNL     1      -0.866  13.804  20.138  0.00  0.00    +0.000 A 
ATOM     21  C   UNL     1       0.511  13.828  20.322  0.00  0.00    +0.000 A 
ATOM     22  C   UNL     1       1.170  12.672  20.702  0.00  0.00    +0.000 A 
ATOM     23  C   UNL     1       0.470  11.478  20.893  0.00  0.00    +0.000 A 
ATOM     24  C   UNL     1      -0.933  11.484  20.792  0.00  0.00    +0.000 A 
BRANCH  19  27
ATOM     25  O   UNL     1      -2.959  11.637  18.028  0.00  0.00    +0.000 OA
ATOM     26  C   UNL     1      -3.583  12.103  18.975  0.00  0.00    +0.000 C 
ATOM     27  N   UNL     1      -2.991  12.572  20.142  0.00  0.00    +0.000 N 
ATOM     28  H   UNL     1      -3.606  12.749  20.930  0.00  0.00    +0.000 HD
BRANCH  26  29
ATOM     29  C   UNL     1      -5.044  12.131  18.928  0.00  0.00    +0.000 A 
ATOM     30  C   UNL     1      -5.866  11.974  20.030  0.00  0.00    +0.000 A 
ATOM     31  C   UNL     1      -7.245  11.980  19.697  0.00  0.00    +0.000 A 
ATOM     32  C   UNL     1      -7.437  12.151  18.344  0.00  0.00    +0.000 A 
ATOM     33  S   UNL     1      -5.955  12.320  17.497  0.00  0.00    +0.000 S 
ENDBRANCH  26  29
ENDBRANCH  19  27
ENDBRANCH   1  23
TORSDOF 4
ENDMDL
MODEL 9
REMARK VINA RESULT:      -8.6      5.024      9.583
REMARK  Name = 
REMARK  4 active torsions:
REMARK  status: ('A' for Active; 'I' for Inactive)
REMARK    1  A    between atoms: C_2  and  C_27
REMARK    2  A    between atoms: N_3  and  C_4
REMARK    3  A    between atoms: C_8  and  N_9
REMARK    4  A    between atoms: N_9  and  C_10
REMARK                            x       y       z     vdW  Elec       q    Type
REMARK                         _______ _______ _______ _____ _____    ______ ____
ROOT
ATOM      1  N   UNL     1       0.195  11.308  18.324  0.00  0.00    +0.000 N 
ATOM      2  H   UNL     1      -0.814  11.152  18.386  0.00  0.00    +0.000 HD
ENDROOT
BRANCH   1   3
ATOM      3  C   UNL     1       0.897  10.267  18.973  0.00  0.00    +0.000 A 
ATOM      4  C   UNL     1       0.664   9.821  20.275  0.00  0.00    +0.000 A 
ATOM      5  C   UNL     1       1.114   8.539  20.684  0.00  0.00    +0.000 A 
ATOM      6  C   UNL     1       1.880   7.705  19.834  0.00  0.00    +0.000 A 
ATOM      7  C   UNL     1       2.284   8.303  18.649  0.00  0.00    +0.000 A 
ATOM      8  C   UNL     1       1.803   9.558  18.227  0.00  0.00    +0.000 A 
ATOM      9  C   UNL     1       3.188   7.742  17.588  0.00  0.00    +0.000 C 
ATOM     10  C   UNL     1       3.961   6.481  17.385  0.00  0.00    +0.000 C 
ATOM     11  C   UNL     1       4.192   5.719  18.654  0.00  0.00    +0.000 A 
ATOM     12  C   UNL     1       5.370   4.943  18.566  0.00  0.00    +0.000 A 
ATOM     13  C   UNL     1       5.283   3.587  18.794  0.00  0.00    +0.000 A 
ATOM     14  C   UNL     1       4.065   3.046  19.185  0.00  0.00    +0.000 A 
ATOM     15  C   UNL     1       2.999   3.892  19.564  0.00  0.00    +0.000 A 
ATOM     16  C   UNL     1       3.101   5.292  19.411  0.00  0.00    +0.000 A 
ATOM     17  C   UNL     1       2.092   6.219  20.108  0.00  0.00    +0.000 C 
ATOM     18  O   UNL     1       1.378   5.724  20.986  0.00  0.00    +0.000 OA
ENDBRANCH   1   3
BRANCH   1  23
ATOM     19  C   UNL     1       1.985  14.502  18.980  0.00  0.00    +0.000 A 
ATOM     20  C   UNL     1       0.908  15.340  19.276  0.00  0.00    +0.000 A 
ATOM     21  C   UNL     1      -0.399  14.876  19.195  0.00  0.00    +0.000 A 
ATOM     22  C   UNL     1      -0.636  13.559  18.840  0.00  0.00    +0.000 A 
ATOM     23  C   UNL     1       0.423  12.688  18.574  0.00  0.00    +0.000 A 
ATOM     24  C   UNL     1       1.738  13.189  18.570  0.00  0.00    +0.000 A 
BRANCH  19  27
ATOM     25  O   UNL     1       3.605  15.687  16.920  0.00  0.00    +0.000 OA
ATOM     26  C   UNL     1       4.058  15.476  18.040  0.00  0.00    +0.000 C 
ATOM     27  N   UNL     1       3.324  14.937  19.089  0.00  0.00    +0.000 N 
ATOM     28  H   UNL     1       3.737  14.990  20.014  0.00  0.00    +0.000 HD
BRANCH  26  29
ATOM     29  C   UNL     1       5.439  15.855  18.338  0.00  0.00    +0.000 A 
ATOM     30  C   UNL     1       5.812  17.044  18.938  0.00  0.00    +0.000 A 
ATOM     31  C   UNL     1       7.219  17.187  19.054  0.00  0.00    +0.000 A 
ATOM     32  C   UNL     1       7.882  16.093  18.544  0.00  0.00    +0.000 A 
ATOM     33  S   UNL     1       6.801  14.902  17.949  0.00  0.00    +0.000 S 
ENDBRANCH  26  29
ENDBRANCH  19  27
ENDBRANCH   1  23
TORSDOF 4
ENDMDL
