MODEL 1
REMARK VINA RESULT:      -7.5      0.000      0.000
REMARK  Name = 
REMARK  8 active torsions:
REMARK  status: ('A' for Active; 'I' for Inactive)
REMARK    1  A    between atoms: C_1  and  C_2
REMARK    2  A    between atoms: C_2  and  S_3
REMARK    3  A    between atoms: S_3  and  C_6
REMARK    4  A    between atoms: C_11  and  N_12
REMARK    5  A    between atoms: C_15  and  N_16
REMARK    6  A    between atoms: C_17  and  C_19
REMARK    7  A    between atoms: C_19  and  C_20
REMARK    8  A    between atoms: C_19  and  C_21
REMARK                            x       y       z     vdW  Elec       q    Type
REMARK                         _______ _______ _______ _____ _____    ______ ____
ROOT
ATOM      1  N   UNL     1       4.174   5.295  17.965  0.00  0.00    +0.000 N 
ATOM      2  C   UNL     1       5.110   4.175  18.099  0.00  0.00    +0.000 C 
ATOM      3  C   UNL     1       6.544   4.547  17.754  0.00  0.00    +0.000 C 
ATOM      4  C   UNL     1       6.668   5.317  16.449  0.00  0.00    +0.000 C 
ATOM      5  C   UNL     1       5.723   6.520  16.465  0.00  0.00    +0.000 C 
ATOM      6  C   UNL     1       4.280   6.095  16.728  0.00  0.00    +0.000 C 
ENDROOT
BRANCH   1  12
ATOM      7  C   UNL     1       2.694   4.796  19.951  0.00  0.00    +0.000 A 
ATOM      8  C   UNL     1       1.811   5.317  20.931  0.00  0.00    +0.000 A 
ATOM      9  C   UNL     1       1.457   6.660  20.960  0.00  0.00    +0.000 A 
ATOM     10  C   UNL     1       2.009   7.511  20.024  0.00  0.00    +0.000 A 
ATOM     11  C   UNL     1       2.906   7.012  19.073  0.00  0.00    +0.000 A 
ATOM     12  C   UNL     1       3.278   5.643  18.974  0.00  0.00    +0.000 A 
BRANCH   7  13
ATOM     13  S   UNL     1       2.852   3.006  20.024  0.00  0.00    +0.000 S 
ATOM     14  O   UNL     1       1.969   2.537  21.089  0.00  0.00    +0.000 OA
ATOM     15  O   UNL     1       4.262   2.660  20.094  0.00  0.00    +0.000 OA
BRANCH  13  17
ATOM     16  C   UNL     1       0.629   2.287  18.650  0.00  0.00    +0.000 C 
ATOM     17  C   UNL     1       2.142   2.369  18.527  0.00  0.00    +0.000 C 
ENDBRANCH  13  17
ENDBRANCH   7  13
ENDBRANCH   1  12
BRANCH   4  18
ATOM     18  N   UNL     1       6.458   4.462  15.283  0.00  0.00    +0.000 N 
ATOM     19  C   UNL     1       7.103   4.709  14.088  0.00  0.00    +0.000 C 
ATOM     20  O   UNL     1       7.909   5.625  13.952  0.00  0.00    +0.000 OA
ATOM     21  H   UNL     1       5.744   3.747  15.311  0.00  0.00    +0.000 HD
BRANCH  19  22
ATOM     22  C   UNL     1       6.734   3.748  12.961  0.00  0.00    +0.000 C 
ATOM     23  C   UNL     1       5.219   3.587  12.855  0.00  0.00    +0.000 C 
ATOM     24  C   UNL     1       7.306   4.245  11.633  0.00  0.00    +0.000 C 
ENDBRANCH  19  22
ENDBRANCH   4  18
TORSDOF 5
ENDMDL
MODEL 2
REMARK VINA RESULT:      -7.4      1.022      1.165
REMARK  Name = 
REMARK  8 active torsions:
REMARK  status: ('A' for Active; 'I' for Inactive)
REMARK    1  A    between atoms: C_1  and  C_2
REMARK    2  A    between atoms: C_2  and  S_3
REMARK    3  A    between atoms: S_3  and  C_6
REMARK    4  A    between atoms: C_11  and  N_12
REMARK    5  A    between atoms: C_15  and  N_16
REMARK    6  A    between atoms: C_17  and  C_19
REMARK    7  A    between atoms: C_19  and  C_20
REMARK    8  A    between atoms: C_19  and  C_21
REMARK                            x       y       z     vdW  Elec       q    Type
REMARK                         _______ _______ _______ _____ _____    ______ ____
ROOT
ATOM      1  N   UNL     1       4.177   5.419  17.804  0.00  0.00    +0.000 N 
ATOM      2  C   UNL     1       5.055   4.256  17.957  0.00  0.00    +0.000 C 
ATOM      3  C   UNL     1       6.518   4.571  17.686  0.00  0.00    +0.000 C 
ATOM      4  C   UNL     1       6.735   5.359  16.403  0.00  0.00    +0.000 C 
ATOM      5  C   UNL     1       5.844   6.601  16.401  0.00  0.00    +0.000 C 
ATOM      6  C   UNL     1       4.374   6.236  16.590  0.00  0.00    +0.000 C 
ENDROOT
BRANCH   1  12
ATOM      7  C   UNL     1       2.491   4.940  19.625  0.00  0.00    +0.000 A 
ATOM      8  C   UNL     1       1.602   5.481  20.589  0.00  0.00    +0.000 A 
ATOM      9  C   UNL     1       1.412   6.851  20.724  0.00  0.00    +0.000 A 
ATOM     10  C   UNL     1       2.136   7.704  19.916  0.00  0.00    +0.000 A 
ATOM     11  C   UNL     1       3.040   7.180  18.985  0.00  0.00    +0.000 A 
ATOM     12  C   UNL     1       3.250   5.789  18.779  0.00  0.00    +0.000 A 
BRANCH   7  13
ATOM     13  S   UNL     1       2.426   3.146  19.535  0.00  0.00    +0.000 S 
ATOM     14  O   UNL     1       3.644   2.636  20.159  0.00  0.00    +0.000 OA
ATOM     15  O   UNL     1       2.136   2.752  18.165  0.00  0.00    +0.000 OA
BRANCH  13  17
ATOM     16  C   UNL     1       1.635   2.396  22.016  0.00  0.00    +0.000 C 
ATOM     17  C   UNL     1       1.110   2.628  20.608  0.00  0.00    +0.000 C 
ENDBRANCH  13  17
ENDBRANCH   7  13
ENDBRANCH   1  12
BRANCH   4  18
ATOM     18  N   UNL     1       6.543   4.535  15.212  0.00  0.00    +0.000 N 
ATOM     19  C   UNL     1       7.247   4.778  14.051  0.00  0.00    +0.000 C 
ATOM     20  O   UNL     1       8.093   5.664  13.967  0.00  0.00    +0.000 OA
ATOM     21  H   UNL     1       5.802   3.848  15.196  0.00  0.00    +0.000 HD
BRANCH  19  22
ATOM     22  C   UNL     1       6.890   3.854  12.889  0.00  0.00    +0.000 C 
ATOM     23  C   UNL     1       5.395   3.543  12.881  0.00  0.00    +0.000 C 
ATOM     24  C   UNL     1       7.305   4.489  11.562  0.00  0.00    +0.000 C 
ENDBRANCH  19  22
ENDBRANCH   4  18
TORSDOF 5
ENDMDL
MODEL 3
REMARK VINA RESULT:      -7.4      1.232      1.501
REMARK  Name = 
REMARK  8 active torsions:
REMARK  status: ('A' for Active; 'I' for Inactive)
REMARK    1  A    between atoms: C_1  and  C_2
REMARK    2  A    between atoms: C_2  and  S_3
REMARK    3  A    between atoms: S_3  and  C_6
REMARK    4  A    between atoms: C_11  and  N_12
REMARK    5  A    between atoms: C_15  and  N_16
REMARK    6  A    between atoms: C_17  and  C_19
REMARK    7  A    between atoms: C_19  and  C_20
REMARK    8  A    between atoms: C_19  and  C_21
REMARK                            x       y       z     vdW  Elec       q    Type
REMARK                         _______ _______ _______ _____ _____    ______ ____
ROOT
ATOM      1  N   UNL     1       3.987   5.099  17.772  0.00  0.00    +0.000 N 
ATOM      2  C   UNL     1       4.969   4.020  17.909  0.00  0.00    +0.000 C 
ATOM      3  C   UNL     1       6.394   4.465  17.617  0.00  0.00    +0.000 C 
ATOM      4  C   UNL     1       6.520   5.271  16.333  0.00  0.00    +0.000 C 
ATOM      5  C   UNL     1       5.520   6.428  16.347  0.00  0.00    +0.000 C 
ATOM      6  C   UNL     1       4.092   5.931  16.557  0.00  0.00    +0.000 C 
ENDROOT
BRANCH   1  12
ATOM      7  C   UNL     1       2.039   4.526  19.276  0.00  0.00    +0.000 A 
ATOM      8  C   UNL     1       1.170   4.965  20.308  0.00  0.00    +0.000 A 
ATOM      9  C   UNL     1       1.243   6.249  20.833  0.00  0.00    +0.000 A 
ATOM     10  C   UNL     1       2.213   7.107  20.353  0.00  0.00    +0.000 A 
ATOM     11  C   UNL     1       3.096   6.672  19.359  0.00  0.00    +0.000 A 
ATOM     12  C   UNL     1       3.046   5.383  18.761  0.00  0.00    +0.000 A 
BRANCH   7  13
ATOM     13  S   UNL     1       1.626   2.891  18.655  0.00  0.00    +0.000 S 
ATOM     14  O   UNL     1       1.914   2.886  17.222  0.00  0.00    +0.000 OA
ATOM     15  O   UNL     1       0.283   2.545  19.090  0.00  0.00    +0.000 OA
BRANCH  13  17
ATOM     16  C   UNL     1       3.416   2.358  20.619  0.00  0.00    +0.000 C 
ATOM     17  C   UNL     1       2.803   1.764  19.361  0.00  0.00    +0.000 C 
ENDBRANCH  13  17
ENDBRANCH   7  13
ENDBRANCH   1  12
BRANCH   4  18
ATOM     18  N   UNL     1       6.384   4.434  15.143  0.00  0.00    +0.000 N 
ATOM     19  C   UNL     1       7.092   4.707  13.991  0.00  0.00    +0.000 C 
ATOM     20  O   UNL     1       7.896   5.633  13.915  0.00  0.00    +0.000 OA
ATOM     21  H   UNL     1       5.677   3.712  15.119  0.00  0.00    +0.000 HD
BRANCH  19  22
ATOM     22  C   UNL     1       6.796   3.763  12.828  0.00  0.00    +0.000 C 
ATOM     23  C   UNL     1       5.296   3.509  12.700  0.00  0.00    +0.000 C 
ATOM     24  C   UNL     1       7.348   4.340  11.524  0.00  0.00    +0.000 C 
ENDBRANCH  19  22
ENDBRANCH   4  18
TORSDOF 5
ENDMDL
MODEL 4
REMARK VINA RESULT:      -7.3      1.168      1.531
REMARK  Name = 
REMARK  8 active torsions:
REMARK  status: ('A' for Active; 'I' for Inactive)
REMARK    1  A    between atoms: C_1  and  C_2
REMARK    2  A    between atoms: C_2  and  S_3
REMARK    3  A    between atoms: S_3  and  C_6
REMARK    4  A    between atoms: C_11  and  N_12
REMARK    5  A    between atoms: C_15  and  N_16
REMARK    6  A    between atoms: C_17  and  C_19
REMARK    7  A    between atoms: C_19  and  C_20
REMARK    8  A    between atoms: C_19  and  C_21
REMARK                            x       y       z     vdW  Elec       q    Type
REMARK                         _______ _______ _______ _____ _____    ______ ____
ROOT
ATOM      1  N   UNL     1       4.651   5.640  17.647  0.00  0.00    +0.000 N 
ATOM      2  C   UNL     1       4.428   4.734  16.517  0.00  0.00    +0.000 C 
ATOM      3  C   UNL     1       5.529   3.699  16.352  0.00  0.00    +0.000 C 
ATOM      4  C   UNL     1       6.928   4.293  16.416  0.00  0.00    +0.000 C 
ATOM      5  C   UNL     1       7.077   5.132  17.686  0.00  0.00    +0.000 C 
ATOM      6  C   UNL     1       6.005   6.215  17.771  0.00  0.00    +0.000 C 
ENDROOT
BRANCH   1  12
ATOM      7  C   UNL     1       3.183   5.019  19.609  0.00  0.00    +0.000 A 
ATOM      8  C   UNL     1       2.188   5.446  20.526  0.00  0.00    +0.000 A 
ATOM      9  C   UNL     1       1.628   6.715  20.463  0.00  0.00    +0.000 A 
ATOM     10  C   UNL     1       2.080   7.592  19.497  0.00  0.00    +0.000 A 
ATOM     11  C   UNL     1       3.084   7.191  18.608  0.00  0.00    +0.000 A 
ATOM     12  C   UNL     1       3.669   5.895  18.604  0.00  0.00    +0.000 A 
BRANCH   7  13
ATOM     13  S   UNL     1       3.616   3.284  19.794  0.00  0.00    +0.000 S 
ATOM     14  O   UNL     1       2.989   2.810  21.026  0.00  0.00    +0.000 OA
ATOM     15  O   UNL     1       5.055   3.139  19.652  0.00  0.00    +0.000 OA
BRANCH  13  17
ATOM     16  C   UNL     1       1.289   2.357  18.758  0.00  0.00    +0.000 C 
ATOM     17  C   UNL     1       2.785   2.409  18.492  0.00  0.00    +0.000 C 
ENDBRANCH  13  17
ENDBRANCH   7  13
ENDBRANCH   1  12
BRANCH   4  18
ATOM     18  N   UNL     1       7.260   5.048  15.210  0.00  0.00    +0.000 N 
ATOM     19  C   UNL     1       6.981   4.551  13.954  0.00  0.00    +0.000 C 
ATOM     20  O   UNL     1       6.409   3.479  13.782  0.00  0.00    +0.000 OA
ATOM     21  H   UNL     1       7.807   5.895  15.287  0.00  0.00    +0.000 HD
BRANCH  19  22
ATOM     22  C   UNL     1       7.438   5.446  12.804  0.00  0.00    +0.000 C 
ATOM     23  C   UNL     1       8.881   5.902  13.008  0.00  0.00    +0.000 C 
ATOM     24  C   UNL     1       7.301   4.707  11.472  0.00  0.00    +0.000 C 
ENDBRANCH  19  22
ENDBRANCH   4  18
TORSDOF 5
ENDMDL
MODEL 5
REMARK VINA RESULT:      -7.2      3.807      6.824
REMARK  Name = 
REMARK  8 active torsions:
REMARK  status: ('A' for Active; 'I' for Inactive)
REMARK    1  A    between atoms: C_1  and  C_2
REMARK    2  A    between atoms: C_2  and  S_3
REMARK    3  A    between atoms: S_3  and  C_6
REMARK    4  A    between atoms: C_11  and  N_12
REMARK    5  A    between atoms: C_15  and  N_16
REMARK    6  A    between atoms: C_17  and  C_19
REMARK    7  A    between atoms: C_19  and  C_20
REMARK    8  A    between atoms: C_19  and  C_21
REMARK                            x       y       z     vdW  Elec       q    Type
REMARK                         _______ _______ _______ _____ _____    ______ ____
ROOT
ATOM      1  N   UNL     1       2.480   6.824  18.750  0.00  0.00    +0.000 N 
ATOM      2  C   UNL     1       2.333   7.695  17.580  0.00  0.00    +0.000 C 
ATOM      3  C   UNL     1       2.308   9.174  17.934  0.00  0.00    +0.000 C 
ATOM      4  C   UNL     1       1.368   9.500  19.084  0.00  0.00    +0.000 C 
ATOM      5  C   UNL     1       1.683   8.602  20.282  0.00  0.00    +0.000 C 
ATOM      6  C   UNL     1       1.613   7.124  19.906  0.00  0.00    +0.000 C 
ENDROOT
BRANCH   1  12
ATOM      7  C   UNL     1       3.241   4.417  18.615  0.00  0.00    +0.000 A 
ATOM      8  C   UNL     1       4.332   3.514  18.687  0.00  0.00    +0.000 A 
ATOM      9  C   UNL     1       5.621   3.942  18.978  0.00  0.00    +0.000 A 
ATOM     10  C   UNL     1       5.844   5.291  19.171  0.00  0.00    +0.000 A 
ATOM     11  C   UNL     1       4.779   6.193  19.070  0.00  0.00    +0.000 A 
ATOM     12  C   UNL     1       3.435   5.809  18.809  0.00  0.00    +0.000 A 
BRANCH   7  13
ATOM     13  S   UNL     1       1.657   3.594  18.398  0.00  0.00    +0.000 S 
ATOM     14  O   UNL     1       1.927   2.166  18.253  0.00  0.00    +0.000 OA
ATOM     15  O   UNL     1       0.916   4.267  17.343  0.00  0.00    +0.000 OA
BRANCH  13  17
ATOM     16  C   UNL     1       1.449   2.880  21.004  0.00  0.00    +0.000 C 
ATOM     17  C   UNL     1       0.788   3.742  19.939  0.00  0.00    +0.000 C 
ENDBRANCH  13  17
ENDBRANCH   7  13
ENDBRANCH   1  12
BRANCH   4  18
ATOM     18  N   UNL     1      -0.036   9.425  18.687  0.00  0.00    +0.000 N 
ATOM     19  C   UNL     1      -0.783  10.565  18.476  0.00  0.00    +0.000 C 
ATOM     20  O   UNL     1      -0.306  11.692  18.570  0.00  0.00    +0.000 OA
ATOM     21  H   UNL     1      -0.503   8.528  18.677  0.00  0.00    +0.000 HD
BRANCH  19  22
ATOM     22  C   UNL     1      -2.243  10.305  18.113  0.00  0.00    +0.000 C 
ATOM     23  C   UNL     1      -3.098  11.543  18.374  0.00  0.00    +0.000 C 
ATOM     24  C   UNL     1      -2.357   9.883  16.648  0.00  0.00    +0.000 C 
ENDBRANCH  19  22
ENDBRANCH   4  18
TORSDOF 5
ENDMDL
MODEL 6
REMARK VINA RESULT:      -7.1      1.264      1.651
REMARK  Name = 
REMARK  8 active torsions:
REMARK  status: ('A' for Active; 'I' for Inactive)
REMARK    1  A    between atoms: C_1  and  C_2
REMARK    2  A    between atoms: C_2  and  S_3
REMARK    3  A    between atoms: S_3  and  C_6
REMARK    4  A    between atoms: C_11  and  N_12
REMARK    5  A    between atoms: C_15  and  N_16
REMARK    6  A    between atoms: C_17  and  C_19
REMARK    7  A    between atoms: C_19  and  C_20
REMARK    8  A    between atoms: C_19  and  C_21
REMARK                            x       y       z     vdW  Elec       q    Type
REMARK                         _______ _______ _______ _____ _____    ______ ____
ROOT
ATOM      1  N   UNL     1       3.565   5.821  17.749  0.00  0.00    +0.000 N 
ATOM      2  C   UNL     1       3.082   4.618  17.065  0.00  0.00    +0.000 C 
ATOM      3  C   UNL     1       4.083   3.474  17.086  0.00  0.00    +0.000 C 
ATOM      4  C   UNL     1       5.489   3.899  16.693  0.00  0.00    +0.000 C 
ATOM      5  C   UNL     1       5.926   5.094  17.542  0.00  0.00    +0.000 C 
ATOM      6  C   UNL     1       4.939   6.253  17.425  0.00  0.00    +0.000 C 
ENDROOT
BRANCH   1  12
ATOM      7  C   UNL     1       2.325   5.983  19.945  0.00  0.00    +0.000 A 
ATOM      8  C   UNL     1       1.581   6.808  20.827  0.00  0.00    +0.000 A 
ATOM      9  C   UNL     1       1.264   8.123  20.511  0.00  0.00    +0.000 A 
ATOM     10  C   UNL     1       1.718   8.645  19.316  0.00  0.00    +0.000 A 
ATOM     11  C   UNL     1       2.481   7.849  18.455  0.00  0.00    +0.000 A 
ATOM     12  C   UNL     1       2.806   6.489  18.709  0.00  0.00    +0.000 A 
BRANCH   7  13
ATOM     13  S   UNL     1       2.450   4.280  20.508  0.00  0.00    +0.000 S 
ATOM     14  O   UNL     1       2.117   4.269  21.930  0.00  0.00    +0.000 OA
ATOM     15  O   UNL     1       3.734   3.739  20.095  0.00  0.00    +0.000 OA
BRANCH  13  17
ATOM     16  C   UNL     1       1.593   1.986  19.347  0.00  0.00    +0.000 C 
ATOM     17  C   UNL     1       1.133   3.385  19.723  0.00  0.00    +0.000 C 
ENDBRANCH  13  17
ENDBRANCH   7  13
ENDBRANCH   1  12
BRANCH   4  18
ATOM     18  N   UNL     1       5.605   4.163  15.261  0.00  0.00    +0.000 N 
ATOM     19  C   UNL     1       6.803   4.551  14.698  0.00  0.00    +0.000 C 
ATOM     20  O   UNL     1       7.836   4.656  15.354  0.00  0.00    +0.000 OA
ATOM     21  H   UNL     1       4.772   4.175  14.688  0.00  0.00    +0.000 HD
BRANCH  19  22
ATOM     22  C   UNL     1       6.735   4.832  13.199  0.00  0.00    +0.000 C 
ATOM     23  C   UNL     1       8.051   5.419  12.694  0.00  0.00    +0.000 C 
ATOM     24  C   UNL     1       6.402   3.549  12.435  0.00  0.00    +0.000 C 
ENDBRANCH  19  22
ENDBRANCH   4  18
TORSDOF 5
ENDMDL
MODEL 7
REMARK VINA RESULT:      -7.1      1.486      1.884
REMARK  Name = 
REMARK  8 active torsions:
REMARK  status: ('A' for Active; 'I' for Inactive)
REMARK    1  A    between atoms: C_1  and  C_2
REMARK    2  A    between atoms: C_2  and  S_3
REMARK    3  A    between atoms: S_3  and  C_6
REMARK    4  A    between atoms: C_11  and  N_12
REMARK    5  A    between atoms: C_15  and  N_16
REMARK    6  A    between atoms: C_17  and  C_19
REMARK    7  A    between atoms: C_19  and  C_20
REMARK    8  A    between atoms: C_19  and  C_21
REMARK                            x       y       z     vdW  Elec       q    Type
REMARK                         _______ _______ _______ _____ _____    ______ ____
ROOT
ATOM      1  N   UNL     1       4.650   5.855  17.472  0.00  0.00    +0.000 N 
ATOM      2  C   UNL     1       4.463   4.812  16.459  0.00  0.00    +0.000 C 
ATOM      3  C   UNL     1       5.608   3.813  16.409  0.00  0.00    +0.000 C 
ATOM      4  C   UNL     1       6.979   4.470  16.389  0.00  0.00    +0.000 C 
ATOM      5  C   UNL     1       7.097   5.460  17.549  0.00  0.00    +0.000 C 
ATOM      6  C   UNL     1       5.978   6.499  17.514  0.00  0.00    +0.000 C 
ENDROOT
BRANCH   1  12
ATOM      7  C   UNL     1       3.116   5.354  19.417  0.00  0.00    +0.000 A 
ATOM      8  C   UNL     1       2.124   5.850  20.302  0.00  0.00    +0.000 A 
ATOM      9  C   UNL     1       1.624   7.141  20.194  0.00  0.00    +0.000 A 
ATOM     10  C   UNL     1       2.134   7.970  19.215  0.00  0.00    +0.000 A 
ATOM     11  C   UNL     1       3.137   7.501  18.359  0.00  0.00    +0.000 A 
ATOM     12  C   UNL     1       3.662   6.180  18.400  0.00  0.00    +0.000 A 
BRANCH   7  13
ATOM     13  S   UNL     1       3.466   3.607  19.657  0.00  0.00    +0.000 S 
ATOM     14  O   UNL     1       4.914   3.469  19.790  0.00  0.00    +0.000 OA
ATOM     15  O   UNL     1       2.792   2.844  18.618  0.00  0.00    +0.000 OA
BRANCH  13  17
ATOM     16  C   UNL     1       1.401   2.631  21.116  0.00  0.00    +0.000 C 
ATOM     17  C   UNL     1       2.816   3.170  21.250  0.00  0.00    +0.000 C 
ENDBRANCH  13  17
ENDBRANCH   7  13
ENDBRANCH   1  12
BRANCH   4  18
ATOM     18  N   UNL     1       7.273   5.089  15.098  0.00  0.00    +0.000 N 
ATOM     19  C   UNL     1       6.906   4.486  13.914  0.00  0.00    +0.000 C 
ATOM     20  O   UNL     1       6.283   3.429  13.878  0.00  0.00    +0.000 OA
ATOM     21  H   UNL     1       7.856   5.915  15.063  0.00  0.00    +0.000 HD
BRANCH  19  22
ATOM     22  C   UNL     1       7.333   5.245  12.659  0.00  0.00    +0.000 C 
ATOM     23  C   UNL     1       8.707   5.883  12.849  0.00  0.00    +0.000 C 
ATOM     24  C   UNL     1       7.349   4.305  11.453  0.00  0.00    +0.000 C 
ENDBRANCH  19  22
ENDBRANCH   4  18
TORSDOF 5
ENDMDL
MODEL 8
REMARK VINA RESULT:      -6.9      1.425      1.801
REMARK  Name = 
REMARK  8 active torsions:
REMARK  status: ('A' for Active; 'I' for Inactive)
REMARK    1  A    between atoms: C_1  and  C_2
REMARK    2  A    between atoms: C_2  and  S_3
REMARK    3  A    between atoms: S_3  and  C_6
REMARK    4  A    between atoms: C_11  and  N_12
REMARK    5  A    between atoms: C_15  and  N_16
REMARK    6  A    between atoms: C_17  and  C_19
REMARK    7  A    between atoms: C_19  and  C_20
REMARK    8  A    between atoms: C_19  and  C_21
REMARK                            x       y       z     vdW  Elec       q    Type
REMARK                         _______ _______ _______ _____ _____    ______ ____
ROOT
ATOM      1  N   UNL     1       4.245   5.009  17.189  0.00  0.00    +0.000 N 
ATOM      2  C   UNL     1       5.142   3.850  17.164  0.00  0.00    +0.000 C 
ATOM      3  C   UNL     1       6.576   4.209  16.807  0.00  0.00    +0.000 C 
ATOM      4  C   UNL     1       6.683   5.114  15.589  0.00  0.00    +0.000 C 
ATOM      5  C   UNL     1       5.786   6.339  15.773  0.00  0.00    +0.000 C 
ATOM      6  C   UNL     1       4.338   5.936  16.044  0.00  0.00    +0.000 C 
ENDROOT
BRANCH   1  12
ATOM      7  C   UNL     1       2.537   4.370  18.938  0.00  0.00    +0.000 A 
ATOM      8  C   UNL     1       1.751   4.798  20.039  0.00  0.00    +0.000 A 
ATOM      9  C   UNL     1       1.766   6.114  20.483  0.00  0.00    +0.000 A 
ATOM     10  C   UNL     1       2.594   7.019  19.849  0.00  0.00    +0.000 A 
ATOM     11  C   UNL     1       3.397   6.598  18.783  0.00  0.00    +0.000 A 
ATOM     12  C   UNL     1       3.399   5.274  18.265  0.00  0.00    +0.000 A 
BRANCH   7  13
ATOM     13  S   UNL     1       2.208   2.669  18.456  0.00  0.00    +0.000 S 
ATOM     14  O   UNL     1       2.127   2.641  16.997  0.00  0.00    +0.000 OA
ATOM     15  O   UNL     1       1.076   2.172  19.220  0.00  0.00    +0.000 OA
BRANCH  13  17
ATOM     16  C   UNL     1       4.247   2.198  20.178  0.00  0.00    +0.000 C 
ATOM     17  C   UNL     1       3.665   1.736  18.852  0.00  0.00    +0.000 C 
ENDBRANCH  13  17
ENDBRANCH   7  13
ENDBRANCH   1  12
BRANCH   4  18
ATOM     18  N   UNL     1       6.401   4.400  14.346  0.00  0.00    +0.000 N 
ATOM     19  C   UNL     1       7.066   4.707  13.177  0.00  0.00    +0.000 C 
ATOM     20  O   UNL     1       7.949   5.558  13.125  0.00  0.00    +0.000 OA
ATOM     21  H   UNL     1       5.627   3.751  14.309  0.00  0.00    +0.000 HD
BRANCH  19  22
ATOM     22  C   UNL     1       6.615   3.898  11.963  0.00  0.00    +0.000 C 
ATOM     23  C   UNL     1       7.520   2.687  11.748  0.00  0.00    +0.000 C 
ATOM     24  C   UNL     1       5.164   3.449  12.135  0.00  0.00    +0.000 C 
ENDBRANCH  19  22
ENDBRANCH   4  18
TORSDOF 5
ENDMDL
MODEL 9
REMARK VINA RESULT:      -6.9      1.433      1.804
REMARK  Name = 
REMARK  8 active torsions:
REMARK  status: ('A' for Active; 'I' for Inactive)
REMARK    1  A    between atoms: C_1  and  C_2
REMARK    2  A    between atoms: C_2  and  S_3
REMARK    3  A    between atoms: S_3  and  C_6
REMARK    4  A    between atoms: C_11  and  N_12
REMARK    5  A    between atoms: C_15  and  N_16
REMARK    6  A    between atoms: C_17  and  C_19
REMARK    7  A    between atoms: C_19  and  C_20
REMARK    8  A    between atoms: C_19  and  C_21
REMARK                            x       y       z     vdW  Elec       q    Type
REMARK                         _______ _______ _______ _____ _____    ______ ____
ROOT
ATOM      1  N   UNL     1       4.417   5.188  16.801  0.00  0.00    +0.000 N 
ATOM      2  C   UNL     1       4.883   3.800  16.855  0.00  0.00    +0.000 C 
ATOM      3  C   UNL     1       6.364   3.652  16.543  0.00  0.00    +0.000 C 
ATOM      4  C   UNL     1       6.795   4.413  15.299  0.00  0.00    +0.000 C 
ATOM      5  C   UNL     1       6.346   5.871  15.401  0.00  0.00    +0.000 C 
ATOM      6  C   UNL     1       4.839   5.978  15.628  0.00  0.00    +0.000 C 
ENDROOT
BRANCH   1  12
ATOM      7  C   UNL     1       3.248   5.163  19.042  0.00  0.00    +0.000 A 
ATOM      8  C   UNL     1       2.516   5.904  20.004  0.00  0.00    +0.000 A 
ATOM      9  C   UNL     1       2.160   7.231  19.794  0.00  0.00    +0.000 A 
ATOM     10  C   UNL     1       2.562   7.847  18.626  0.00  0.00    +0.000 A 
ATOM     11  C   UNL     1       3.313   7.134  17.686  0.00  0.00    +0.000 A 
ATOM     12  C   UNL     1       3.676   5.767  17.831  0.00  0.00    +0.000 A 
BRANCH   7  13
ATOM     13  S   UNL     1       3.429   3.428  19.476  0.00  0.00    +0.000 S 
ATOM     14  O   UNL     1       4.854   3.180  19.686  0.00  0.00    +0.000 OA
ATOM     15  O   UNL     1       2.725   2.620  18.494  0.00  0.00    +0.000 OA
BRANCH  13  17
ATOM     16  C   UNL     1       1.241   2.776  20.937  0.00  0.00    +0.000 C 
ATOM     17  C   UNL     1       2.689   3.222  21.076  0.00  0.00    +0.000 C 
ENDBRANCH  13  17
ENDBRANCH   7  13
ENDBRANCH   1  12
BRANCH   4  18
ATOM     18  N   UNL     1       6.327   3.772  14.072  0.00  0.00    +0.000 N 
ATOM     19  C   UNL     1       6.825   4.136  12.838  0.00  0.00    +0.000 C 
ATOM     20  O   UNL     1       7.708   4.979  12.707  0.00  0.00    +0.000 OA
ATOM     21  H   UNL     1       5.544   3.134  14.111  0.00  0.00    +0.000 HD
BRANCH  19  22
ATOM     22  C   UNL     1       6.192   3.401  11.659  0.00  0.00    +0.000 C 
ATOM     23  C   UNL     1       6.819   2.020  11.478  0.00  0.00    +0.000 C 
ATOM     24  C   UNL     1       4.683   3.272  11.865  0.00  0.00    +0.000 C 
ENDBRANCH  19  22
ENDBRANCH   4  18
TORSDOF 5
ENDMDL
