MODEL 1
REMARK VINA RESULT:      -6.4      0.000      0.000
REMARK  Name = 
REMARK  7 active torsions:
REMARK  status: ('A' for Active; 'I' for Inactive)
REMARK    1  A    between atoms: C_2  and  C_3
REMARK    2  A    between atoms: C_3  and  O_4
REMARK    3  A    between atoms: O_4  and  C_5
REMARK    4  A    between atoms: C_5  and  C_7
REMARK    5  A    between atoms: C_8  and  C_9
REMARK    6  A    between atoms: C_12  and  O_13
REMARK    7  A    between atoms: C_14  and  O_15
REMARK                            x       y       z     vdW  Elec       q    Type
REMARK                         _______ _______ _______ _____ _____    ______ ____
ROOT
ATOM      1  C   UNL     1       3.694   3.826  18.084  0.00  0.00    +0.000 A 
ATOM      2  C   UNL     1       2.370   4.131  17.753  0.00  0.00    +0.000 A 
ATOM      3  C   UNL     1       1.339   3.873  18.662  0.00  0.00    +0.000 A 
ATOM      4  C   UNL     1       1.642   3.319  19.902  0.00  0.00    +0.000 A 
ATOM      5  C   UNL     1       2.961   3.054  20.250  0.00  0.00    +0.000 A 
ATOM      6  C   UNL     1       3.990   3.306  19.354  0.00  0.00    +0.000 A 
ENDROOT
BRANCH   1   8
ATOM      7  C   UNL     1       5.135   5.099  16.512  0.00  0.00    +0.000 C 
ATOM      8  C   UNL     1       4.790   3.959  17.125  0.00  0.00    +0.000 C 
BRANCH   7   9
ATOM      9  C   UNL     1       6.415   5.249  15.782  0.00  0.00    +0.000 C 
ATOM     10  S   UNL     1       6.710   4.655  14.253  0.00  0.00    +0.000 S 
BRANCH   9  11
ATOM     11  O   UNL     1       7.419   5.988  16.315  0.00  0.00    +0.000 OA
BRANCH  11  12
ATOM     12  C   UNL     1       7.209   7.100  17.203  0.00  0.00    +0.000 C 
BRANCH  12  14
ATOM     13  C   UNL     1       7.819   5.724  19.175  0.00  0.00    +0.000 C 
ATOM     14  C   UNL     1       7.924   6.875  18.494  0.00  0.00    +0.000 C 
ENDBRANCH  12  14
ENDBRANCH  11  12
ENDBRANCH   9  11
ENDBRANCH   7   9
ENDBRANCH   1   8
BRANCH   4  15
ATOM     15  O   UNL     1       0.670   2.994  20.807  0.00  0.00    +0.000 OA
ATOM     16  H   UNL     1       0.932   2.166  21.246  0.00  0.00    +0.000 HD
ENDBRANCH   4  15
BRANCH   5  17
ATOM     17  O   UNL     1       3.257   2.515  21.468  0.00  0.00    +0.000 OA
ATOM     18  H   UNL     1       3.917   1.818  21.276  0.00  0.00    +0.000 HD
ENDBRANCH   5  17
TORSDOF 7
ENDMDL
MODEL 2
REMARK VINA RESULT:      -6.2      1.189      1.403
REMARK  Name = 
REMARK  7 active torsions:
REMARK  status: ('A' for Active; 'I' for Inactive)
REMARK    1  A    between atoms: C_2  and  C_3
REMARK    2  A    between atoms: C_3  and  O_4
REMARK    3  A    between atoms: O_4  and  C_5
REMARK    4  A    between atoms: C_5  and  C_7
REMARK    5  A    between atoms: C_8  and  C_9
REMARK    6  A    between atoms: C_12  and  O_13
REMARK    7  A    between atoms: C_14  and  O_15
REMARK                            x       y       z     vdW  Elec       q    Type
REMARK                         _______ _______ _______ _____ _____    ______ ____
ROOT
ATOM      1  C   UNL     1       3.163   3.413  17.905  0.00  0.00    +0.000 A 
ATOM      2  C   UNL     1       2.207   2.395  17.860  0.00  0.00    +0.000 A 
ATOM      3  C   UNL     1       1.320   2.212  18.926  0.00  0.00    +0.000 A 
ATOM      4  C   UNL     1       1.391   3.058  20.028  0.00  0.00    +0.000 A 
ATOM      5  C   UNL     1       2.313   4.098  20.057  0.00  0.00    +0.000 A 
ATOM      6  C   UNL     1       3.196   4.286  19.004  0.00  0.00    +0.000 A 
ENDROOT
BRANCH   1   8
ATOM      7  C   UNL     1       5.125   4.527  16.867  0.00  0.00    +0.000 C 
ATOM      8  C   UNL     1       4.191   3.567  16.876  0.00  0.00    +0.000 C 
BRANCH   7   9
ATOM      9  C   UNL     1       6.307   4.472  15.977  0.00  0.00    +0.000 C 
ATOM     10  S   UNL     1       6.251   4.137  14.345  0.00  0.00    +0.000 S 
BRANCH   9  11
ATOM     11  O   UNL     1       7.534   4.795  16.456  0.00  0.00    +0.000 OA
BRANCH  11  12
ATOM     12  C   UNL     1       7.869   4.806  17.855  0.00  0.00    +0.000 C 
BRANCH  12  14
ATOM     13  C   UNL     1       7.737   7.281  17.736  0.00  0.00    +0.000 C 
ATOM     14  C   UNL     1       7.593   6.150  18.443  0.00  0.00    +0.000 C 
ENDBRANCH  12  14
ENDBRANCH  11  12
ENDBRANCH   9  11
ENDBRANCH   7   9
ENDBRANCH   1   8
BRANCH   4  15
ATOM     15  O   UNL     1       0.588   2.892  21.122  0.00  0.00    +0.000 OA
ATOM     16  H   UNL     1       0.619   1.953  21.377  0.00  0.00    +0.000 HD
ENDBRANCH   4  15
BRANCH   5  17
ATOM     17  O   UNL     1       2.378   4.930  21.137  0.00  0.00    +0.000 OA
ATOM     18  H   UNL     1       1.814   4.502  21.813  0.00  0.00    +0.000 HD
ENDBRANCH   5  17
TORSDOF 7
ENDMDL
MODEL 3
REMARK VINA RESULT:      -6.2      1.022      1.064
REMARK  Name = 
REMARK  7 active torsions:
REMARK  status: ('A' for Active; 'I' for Inactive)
REMARK    1  A    between atoms: C_2  and  C_3
REMARK    2  A    between atoms: C_3  and  O_4
REMARK    3  A    between atoms: O_4  and  C_5
REMARK    4  A    between atoms: C_5  and  C_7
REMARK    5  A    between atoms: C_8  and  C_9
REMARK    6  A    between atoms: C_12  and  O_13
REMARK    7  A    between atoms: C_14  and  O_15
REMARK                            x       y       z     vdW  Elec       q    Type
REMARK                         _______ _______ _______ _____ _____    ______ ____
ROOT
ATOM      1  C   UNL     1       3.270   3.772  17.864  0.00  0.00    +0.000 A 
ATOM      2  C   UNL     1       2.387   2.698  17.727  0.00  0.00    +0.000 A 
ATOM      3  C   UNL     1       1.483   2.392  18.751  0.00  0.00    +0.000 A 
ATOM      4  C   UNL     1       1.466   3.171  19.903  0.00  0.00    +0.000 A 
ATOM      5  C   UNL     1       2.314   4.265  20.025  0.00  0.00    +0.000 A 
ATOM      6  C   UNL     1       3.213   4.575  19.015  0.00  0.00    +0.000 A 
ENDROOT
BRANCH   1   8
ATOM      7  C   UNL     1       4.839   5.267  16.651  0.00  0.00    +0.000 C 
ATOM      8  C   UNL     1       4.315   4.056  16.881  0.00  0.00    +0.000 C 
BRANCH   7   9
ATOM      9  C   UNL     1       6.080   5.455  15.866  0.00  0.00    +0.000 C 
ATOM     10  S   UNL     1       6.510   4.544  14.538  0.00  0.00    +0.000 S 
BRANCH   9  11
ATOM     11  O   UNL     1       6.916   6.484  16.152  0.00  0.00    +0.000 OA
BRANCH  11  12
ATOM     12  C   UNL     1       6.975   7.135  17.433  0.00  0.00    +0.000 C 
BRANCH  12  14
ATOM     13  C   UNL     1       7.351   5.664  19.395  0.00  0.00    +0.000 C 
ATOM     14  C   UNL     1       7.849   6.365  18.366  0.00  0.00    +0.000 C 
ENDBRANCH  12  14
ENDBRANCH  11  12
ENDBRANCH   9  11
ENDBRANCH   7   9
ENDBRANCH   1   8
BRANCH   4  15
ATOM     15  O   UNL     1       0.645   2.884  20.958  0.00  0.00    +0.000 OA
ATOM     16  H   UNL     1       1.057   3.238  21.765  0.00  0.00    +0.000 HD
ENDBRANCH   4  15
BRANCH   5  17
ATOM     17  O   UNL     1       2.293   5.030  21.155  0.00  0.00    +0.000 OA
ATOM     18  H   UNL     1       1.758   5.813  20.913  0.00  0.00    +0.000 HD
ENDBRANCH   5  17
TORSDOF 7
ENDMDL
MODEL 4
REMARK VINA RESULT:      -6.2      1.219      1.438
REMARK  Name = 
REMARK  7 active torsions:
REMARK  status: ('A' for Active; 'I' for Inactive)
REMARK    1  A    between atoms: C_2  and  C_3
REMARK    2  A    between atoms: C_3  and  O_4
REMARK    3  A    between atoms: O_4  and  C_5
REMARK    4  A    between atoms: C_5  and  C_7
REMARK    5  A    between atoms: C_8  and  C_9
REMARK    6  A    between atoms: C_12  and  O_13
REMARK    7  A    between atoms: C_14  and  O_15
REMARK                            x       y       z     vdW  Elec       q    Type
REMARK                         _______ _______ _______ _____ _____    ______ ____
ROOT
ATOM      1  C   UNL     1       3.576   3.827  17.832  0.00  0.00    +0.000 A 
ATOM      2  C   UNL     1       3.302   4.825  18.771  0.00  0.00    +0.000 A 
ATOM      3  C   UNL     1       2.192   4.715  19.615  0.00  0.00    +0.000 A 
ATOM      4  C   UNL     1       1.367   3.599  19.518  0.00  0.00    +0.000 A 
ATOM      5  C   UNL     1       1.661   2.584  18.614  0.00  0.00    +0.000 A 
ATOM      6  C   UNL     1       2.759   2.686  17.774  0.00  0.00    +0.000 A 
ENDROOT
BRANCH   1   8
ATOM      7  C   UNL     1       5.063   5.110  16.314  0.00  0.00    +0.000 C 
ATOM      8  C   UNL     1       4.648   3.954  16.845  0.00  0.00    +0.000 C 
BRANCH   7   9
ATOM      9  C   UNL     1       6.327   5.221  15.550  0.00  0.00    +0.000 C 
ATOM     10  S   UNL     1       6.628   4.456  14.099  0.00  0.00    +0.000 S 
BRANCH   9  11
ATOM     11  O   UNL     1       7.306   6.059  15.971  0.00  0.00    +0.000 OA
BRANCH  11  12
ATOM     12  C   UNL     1       7.316   6.691  17.264  0.00  0.00    +0.000 C 
BRANCH  12  14
ATOM     13  C   UNL     1       7.002   5.556  19.448  0.00  0.00    +0.000 C 
ATOM     14  C   UNL     1       7.708   5.709  18.317  0.00  0.00    +0.000 C 
ENDBRANCH  12  14
ENDBRANCH  11  12
ENDBRANCH   9  11
ENDBRANCH   7   9
ENDBRANCH   1   8
BRANCH   4  15
ATOM     15  O   UNL     1       0.237   3.465  20.277  0.00  0.00    +0.000 OA
ATOM     16  H   UNL     1       0.227   2.564  20.644  0.00  0.00    +0.000 HD
ENDBRANCH   4  15
BRANCH   5  17
ATOM     17  O   UNL     1       0.852   1.488  18.524  0.00  0.00    +0.000 OA
ATOM     18  H   UNL     1       1.465   0.726  18.556  0.00  0.00    +0.000 HD
ENDBRANCH   5  17
TORSDOF 7
ENDMDL
MODEL 5
REMARK VINA RESULT:      -6.1      1.227      1.416
REMARK  Name = 
REMARK  7 active torsions:
REMARK  status: ('A' for Active; 'I' for Inactive)
REMARK    1  A    between atoms: C_2  and  C_3
REMARK    2  A    between atoms: C_3  and  O_4
REMARK    3  A    between atoms: O_4  and  C_5
REMARK    4  A    between atoms: C_5  and  C_7
REMARK    5  A    between atoms: C_8  and  C_9
REMARK    6  A    between atoms: C_12  and  O_13
REMARK    7  A    between atoms: C_14  and  O_15
REMARK                            x       y       z     vdW  Elec       q    Type
REMARK                         _______ _______ _______ _____ _____    ______ ____
ROOT
ATOM      1  C   UNL     1       3.257   3.792  17.888  0.00  0.00    +0.000 A 
ATOM      2  C   UNL     1       2.361   2.729  17.745  0.00  0.00    +0.000 A 
ATOM      3  C   UNL     1       1.462   2.421  18.772  0.00  0.00    +0.000 A 
ATOM      4  C   UNL     1       1.462   3.186  19.933  0.00  0.00    +0.000 A 
ATOM      5  C   UNL     1       2.323   4.270  20.061  0.00  0.00    +0.000 A 
ATOM      6  C   UNL     1       3.218   4.582  19.048  0.00  0.00    +0.000 A 
ENDROOT
BRANCH   1   8
ATOM      7  C   UNL     1       4.862   5.275  16.708  0.00  0.00    +0.000 C 
ATOM      8  C   UNL     1       4.298   4.076  16.901  0.00  0.00    +0.000 C 
BRANCH   7   9
ATOM      9  C   UNL     1       6.098   5.449  15.912  0.00  0.00    +0.000 C 
ATOM     10  S   UNL     1       6.464   4.592  14.529  0.00  0.00    +0.000 S 
BRANCH   9  11
ATOM     11  O   UNL     1       6.984   6.423  16.236  0.00  0.00    +0.000 OA
BRANCH  11  12
ATOM     12  C   UNL     1       6.748   7.414  17.252  0.00  0.00    +0.000 C 
BRANCH  12  14
ATOM     13  C   UNL     1       8.305   9.167  18.064  0.00  0.00    +0.000 C 
ATOM     14  C   UNL     1       8.042   7.871  17.840  0.00  0.00    +0.000 C 
ENDBRANCH  12  14
ENDBRANCH  11  12
ENDBRANCH   9  11
ENDBRANCH   7   9
ENDBRANCH   1   8
BRANCH   4  15
ATOM     15  O   UNL     1       0.645   2.896  20.991  0.00  0.00    +0.000 OA
ATOM     16  H   UNL     1      -0.234   3.267  20.802  0.00  0.00    +0.000 HD
ENDBRANCH   4  15
BRANCH   5  17
ATOM     17  O   UNL     1       2.318   5.022  21.200  0.00  0.00    +0.000 OA
ATOM     18  H   UNL     1       2.352   4.369  21.928  0.00  0.00    +0.000 HD
ENDBRANCH   5  17
TORSDOF 7
ENDMDL
MODEL 6
REMARK VINA RESULT:      -6.0      2.054      3.012
REMARK  Name = 
REMARK  7 active torsions:
REMARK  status: ('A' for Active; 'I' for Inactive)
REMARK    1  A    between atoms: C_2  and  C_3
REMARK    2  A    between atoms: C_3  and  O_4
REMARK    3  A    between atoms: O_4  and  C_5
REMARK    4  A    between atoms: C_5  and  C_7
REMARK    5  A    between atoms: C_8  and  C_9
REMARK    6  A    between atoms: C_12  and  O_13
REMARK    7  A    between atoms: C_14  and  O_15
REMARK                            x       y       z     vdW  Elec       q    Type
REMARK                         _______ _______ _______ _____ _____    ______ ____
ROOT
ATOM      1  C   UNL     1       3.613   5.255  18.465  0.00  0.00    +0.000 A 
ATOM      2  C   UNL     1       2.875   5.658  19.582  0.00  0.00    +0.000 A 
ATOM      3  C   UNL     1       1.805   4.879  20.038  0.00  0.00    +0.000 A 
ATOM      4  C   UNL     1       1.488   3.697  19.376  0.00  0.00    +0.000 A 
ATOM      5  C   UNL     1       2.247   3.274  18.291  0.00  0.00    +0.000 A 
ATOM      6  C   UNL     1       3.308   4.040  17.832  0.00  0.00    +0.000 A 
ENDROOT
BRANCH   1   8
ATOM      7  C   UNL     1       5.970   5.939  18.085  0.00  0.00    +0.000 C 
ATOM      8  C   UNL     1       4.657   6.093  17.875  0.00  0.00    +0.000 C 
BRANCH   7   9
ATOM      9  C   UNL     1       6.990   6.614  17.251  0.00  0.00    +0.000 C 
ATOM     10  S   UNL     1       7.748   8.044  17.650  0.00  0.00    +0.000 S 
BRANCH   9  11
ATOM     11  O   UNL     1       7.438   6.024  16.115  0.00  0.00    +0.000 OA
BRANCH  11  12
ATOM     12  C   UNL     1       7.001   4.732  15.659  0.00  0.00    +0.000 C 
BRANCH  12  14
ATOM     13  C   UNL     1       6.093   3.736  13.575  0.00  0.00    +0.000 C 
ATOM     14  C   UNL     1       6.516   4.816  14.249  0.00  0.00    +0.000 C 
ENDBRANCH  12  14
ENDBRANCH  11  12
ENDBRANCH   9  11
ENDBRANCH   7   9
ENDBRANCH   1   8
BRANCH   4  15
ATOM     15  O   UNL     1       0.419   2.927  19.743  0.00  0.00    +0.000 OA
ATOM     16  H   UNL     1       0.358   2.940  20.713  0.00  0.00    +0.000 HD
ENDBRANCH   4  15
BRANCH   5  17
ATOM     17  O   UNL     1       1.936   2.112  17.646  0.00  0.00    +0.000 OA
ATOM     18  H   UNL     1       1.807   1.458  18.363  0.00  0.00    +0.000 HD
ENDBRANCH   5  17
TORSDOF 7
ENDMDL
MODEL 7
REMARK VINA RESULT:      -6.0      1.239      1.686
REMARK  Name = 
REMARK  7 active torsions:
REMARK  status: ('A' for Active; 'I' for Inactive)
REMARK    1  A    between atoms: C_2  and  C_3
REMARK    2  A    between atoms: C_3  and  O_4
REMARK    3  A    between atoms: O_4  and  C_5
REMARK    4  A    between atoms: C_5  and  C_7
REMARK    5  A    between atoms: C_8  and  C_9
REMARK    6  A    between atoms: C_12  and  O_13
REMARK    7  A    between atoms: C_14  and  O_15
REMARK                            x       y       z     vdW  Elec       q    Type
REMARK                         _______ _______ _______ _____ _____    ______ ____
ROOT
ATOM      1  C   UNL     1       3.709   3.815  18.005  0.00  0.00    +0.000 A 
ATOM      2  C   UNL     1       3.606   4.673  19.104  0.00  0.00    +0.000 A 
ATOM      3  C   UNL     1       2.501   4.595  19.959  0.00  0.00    +0.000 A 
ATOM      4  C   UNL     1       1.510   3.650  19.712  0.00  0.00    +0.000 A 
ATOM      5  C   UNL     1       1.630   2.768  18.645  0.00  0.00    +0.000 A 
ATOM      6  C   UNL     1       2.722   2.839  17.792  0.00  0.00    +0.000 A 
ENDROOT
BRANCH   1   8
ATOM      7  C   UNL     1       5.094   5.070  16.371  0.00  0.00    +0.000 C 
ATOM      8  C   UNL     1       4.776   3.939  17.013  0.00  0.00    +0.000 C 
BRANCH   7   9
ATOM      9  C   UNL     1       6.352   5.217  15.603  0.00  0.00    +0.000 C 
ATOM     10  S   UNL     1       6.582   4.666  14.046  0.00  0.00    +0.000 S 
BRANCH   9  11
ATOM     11  O   UNL     1       7.389   5.917  16.124  0.00  0.00    +0.000 OA
BRANCH  11  12
ATOM     12  C   UNL     1       7.417   6.422  17.471  0.00  0.00    +0.000 C 
BRANCH  12  14
ATOM     13  C   UNL     1       8.521   8.527  18.184  0.00  0.00    +0.000 C 
ATOM     14  C   UNL     1       7.574   7.907  17.464  0.00  0.00    +0.000 C 
ENDBRANCH  12  14
ENDBRANCH  11  12
ENDBRANCH   9  11
ENDBRANCH   7   9
ENDBRANCH   1   8
BRANCH   4  15
ATOM     15  O   UNL     1       0.382   3.567  20.481  0.00  0.00    +0.000 OA
ATOM     16  H   UNL     1       0.605   3.874  21.376  0.00  0.00    +0.000 HD
ENDBRANCH   4  15
BRANCH   5  17
ATOM     17  O   UNL     1       0.659   1.840  18.406  0.00  0.00    +0.000 OA
ATOM     18  H   UNL     1       0.706   1.231  19.171  0.00  0.00    +0.000 HD
ENDBRANCH   5  17
TORSDOF 7
ENDMDL
MODEL 8
REMARK VINA RESULT:      -6.0      0.978      1.798
REMARK  Name = 
REMARK  7 active torsions:
REMARK  status: ('A' for Active; 'I' for Inactive)
REMARK    1  A    between atoms: C_2  and  C_3
REMARK    2  A    between atoms: C_3  and  O_4
REMARK    3  A    between atoms: O_4  and  C_5
REMARK    4  A    between atoms: C_5  and  C_7
REMARK    5  A    between atoms: C_8  and  C_9
REMARK    6  A    between atoms: C_12  and  O_13
REMARK    7  A    between atoms: C_14  and  O_15
REMARK                            x       y       z     vdW  Elec       q    Type
REMARK                         _______ _______ _______ _____ _____    ______ ____
ROOT
ATOM      1  C   UNL     1       3.720   3.236  18.685  0.00  0.00    +0.000 A 
ATOM      2  C   UNL     1       4.345   2.557  19.734  0.00  0.00    +0.000 A 
ATOM      3  C   UNL     1       3.656   2.316  20.928  0.00  0.00    +0.000 A 
ATOM      4  C   UNL     1       2.341   2.750  21.058  0.00  0.00    +0.000 A 
ATOM      5  C   UNL     1       1.704   3.389  20.001  0.00  0.00    +0.000 A 
ATOM      6  C   UNL     1       2.380   3.632  18.815  0.00  0.00    +0.000 A 
ENDROOT
BRANCH   1   8
ATOM      7  C   UNL     1       4.519   4.873  16.996  0.00  0.00    +0.000 C 
ATOM      8  C   UNL     1       4.435   3.623  17.468  0.00  0.00    +0.000 C 
BRANCH   7   9
ATOM      9  C   UNL     1       5.481   5.256  15.938  0.00  0.00    +0.000 C 
ATOM     10  S   UNL     1       5.736   4.397  14.532  0.00  0.00    +0.000 S 
BRANCH   9  11
ATOM     11  O   UNL     1       6.163   6.424  16.030  0.00  0.00    +0.000 OA
BRANCH  11  12
ATOM     12  C   UNL     1       6.318   7.167  17.252  0.00  0.00    +0.000 C 
BRANCH  12  14
ATOM     13  C   UNL     1       7.719   5.906  18.866  0.00  0.00    +0.000 C 
ATOM     14  C   UNL     1       7.621   6.832  17.900  0.00  0.00    +0.000 C 
ENDBRANCH  12  14
ENDBRANCH  11  12
ENDBRANCH   9  11
ENDBRANCH   7   9
ENDBRANCH   1   8
BRANCH   4  15
ATOM     15  O   UNL     1       1.638   2.592  22.221  0.00  0.00    +0.000 OA
ATOM     16  H   UNL     1       0.690   2.653  22.010  0.00  0.00    +0.000 HD
ENDBRANCH   4  15
BRANCH   5  17
ATOM     17  O   UNL     1       0.412   3.810  20.130  0.00  0.00    +0.000 OA
ATOM     18  H   UNL     1       0.367   4.199  21.027  0.00  0.00    +0.000 HD
ENDBRANCH   5  17
TORSDOF 7
ENDMDL
MODEL 9
REMARK VINA RESULT:      -5.9      2.792      6.344
REMARK  Name = 
REMARK  7 active torsions:
REMARK  status: ('A' for Active; 'I' for Inactive)
REMARK    1  A    between atoms: C_2  and  C_3
REMARK    2  A    between atoms: C_3  and  O_4
REMARK    3  A    between atoms: O_4  and  C_5
REMARK    4  A    between atoms: C_5  and  C_7
REMARK    5  A    between atoms: C_8  and  C_9
REMARK    6  A    between atoms: C_12  and  O_13
REMARK    7  A    between atoms: C_14  and  O_15
REMARK                            x       y       z     vdW  Elec       q    Type
REMARK                         _______ _______ _______ _____ _____    ______ ____
ROOT
ATOM      1  C   UNL     1       4.601   5.104  17.350  0.00  0.00    +0.000 A 
ATOM      2  C   UNL     1       4.624   4.202  16.283  0.00  0.00    +0.000 A 
ATOM      3  C   UNL     1       5.676   4.227  15.361  0.00  0.00    +0.000 A 
ATOM      4  C   UNL     1       6.703   5.151  15.520  0.00  0.00    +0.000 A 
ATOM      5  C   UNL     1       6.705   6.021  16.604  0.00  0.00    +0.000 A 
ATOM      6  C   UNL     1       5.665   6.003  17.522  0.00  0.00    +0.000 A 
ENDROOT
BRANCH   1   8
ATOM      7  C   UNL     1       3.480   5.858  19.434  0.00  0.00    +0.000 C 
ATOM      8  C   UNL     1       3.465   5.202  18.267  0.00  0.00    +0.000 C 
BRANCH   7   9
ATOM      9  C   UNL     1       2.240   6.172  20.180  0.00  0.00    +0.000 C 
ATOM     10  S   UNL     1       1.652   7.711  20.436  0.00  0.00    +0.000 S 
BRANCH   9  11
ATOM     11  O   UNL     1       1.445   5.171  20.631  0.00  0.00    +0.000 OA
BRANCH  11  12
ATOM     12  C   UNL     1       1.939   3.995  21.297  0.00  0.00    +0.000 C 
BRANCH  12  14
ATOM     13  C   UNL     1       1.733   2.224  19.571  0.00  0.00    +0.000 C 
ATOM     14  C   UNL     1       1.309   2.770  20.720  0.00  0.00    +0.000 C 
ENDBRANCH  12  14
ENDBRANCH  11  12
ENDBRANCH   9  11
ENDBRANCH   7   9
ENDBRANCH   1   8
BRANCH   4  15
ATOM     15  O   UNL     1       7.727   5.259  14.619  0.00  0.00    +0.000 OA
ATOM     16  H   UNL     1       8.168   6.113  14.766  0.00  0.00    +0.000 HD
ENDBRANCH   4  15
BRANCH   5  17
ATOM     17  O   UNL     1       7.716   6.924  16.761  0.00  0.00    +0.000 OA
ATOM     18  H   UNL     1       7.920   7.226  15.853  0.00  0.00    +0.000 HD
ENDBRANCH   5  17
TORSDOF 7
ENDMDL
