MODEL 1
REMARK VINA RESULT:      -8.1      0.000      0.000
REMARK  Name = 
REMARK  3 active torsions:
REMARK  status: ('A' for Active; 'I' for Inactive)
REMARK    1  A    between atoms: C_1  and  C_2
REMARK    2  A    between atoms: C_2  and  C_3
REMARK    3  A    between atoms: N_10  and  C_11
REMARK                            x       y       z     vdW  Elec       q    Type
REMARK                         _______ _______ _______ _____ _____    ______ ____
ROOT
ATOM      1  C   UNL     1       1.760   4.183  17.958  0.00  0.00    +0.000 C 
ATOM      2  C   UNL     1       2.617   4.589  19.171  0.00  0.00    +0.000 C 
ATOM      3  C   UNL     1       2.704   6.129  19.229  0.00  0.00    +0.000 C 
ATOM      4  N   UNL     1       1.806   4.272  20.349  0.00  0.00    +0.000 NA
ATOM      5  C   UNL     1       2.142   3.262  21.063  0.00  0.00    +0.000 C 
ATOM      6  N   UNL     1       1.398   2.963  22.153  0.00  0.00    +0.000 N 
ATOM      7  N   UNL     1       3.174   2.435  20.796  0.00  0.00    +0.000 NA
ATOM      8  C   UNL     1       4.028   2.794  19.893  0.00  0.00    +0.000 C 
ATOM      9  N   UNL     1       5.102   1.977  19.738  0.00  0.00    +0.000 N 
ATOM     10  N   UNL     1       3.942   3.928  19.115  0.00  0.00    +0.000 N 
ATOM     11  H   UNL     1       0.472   3.366  22.113  0.00  0.00    +0.000 HD
ATOM     12  H   UNL     1       1.425   1.981  22.382  0.00  0.00    +0.000 HD
ATOM     13  H   UNL     1       5.133   1.252  20.445  0.00  0.00    +0.000 HD
ATOM     14  H   UNL     1       5.990   2.430  19.589  0.00  0.00    +0.000 HD
ENDROOT
BRANCH  10  15
ATOM     15  C   UNL     1       4.792   4.213  18.008  0.00  0.00    +0.000 A 
ATOM     16  C   UNL     1       4.418   3.744  16.728  0.00  0.00    +0.000 A 
ATOM     17  C   UNL     1       5.200   3.968  15.589  0.00  0.00    +0.000 A 
ATOM     18  C   UNL     1       6.340   4.753  15.682  0.00  0.00    +0.000 A 
ATOM     19 CL   UNL     1       7.279   5.067  14.278  0.00  0.00    +0.000 Cl
ATOM     20  C   UNL     1       6.725   5.274  16.911  0.00  0.00    +0.000 A 
ATOM     21  C   UNL     1       5.987   4.972  18.069  0.00  0.00    +0.000 A 
ATOM     22 CL   UNL     1       6.705   5.500  19.557  0.00  0.00    +0.000 Cl
ENDBRANCH  10  15
TORSDOF 1
ENDMDL
MODEL 2
REMARK VINA RESULT:      -7.1      2.515      4.276
REMARK  Name = 
REMARK  3 active torsions:
REMARK  status: ('A' for Active; 'I' for Inactive)
REMARK    1  A    between atoms: C_1  and  C_2
REMARK    2  A    between atoms: C_2  and  C_3
REMARK    3  A    between atoms: N_10  and  C_11
REMARK                            x       y       z     vdW  Elec       q    Type
REMARK                         _______ _______ _______ _____ _____    ______ ____
ROOT
ATOM      1  C   UNL     1       2.331   3.689  17.550  0.00  0.00    +0.000 C 
ATOM      2  C   UNL     1       2.672   3.767  19.050  0.00  0.00    +0.000 C 
ATOM      3  C   UNL     1       1.359   3.785  19.861  0.00  0.00    +0.000 C 
ATOM      4  N   UNL     1       3.240   2.462  19.392  0.00  0.00    +0.000 NA
ATOM      5  C   UNL     1       4.501   2.385  19.606  0.00  0.00    +0.000 C 
ATOM      6  N   UNL     1       5.034   1.183  19.924  0.00  0.00    +0.000 N 
ATOM      7  N   UNL     1       5.366   3.416  19.506  0.00  0.00    +0.000 NA
ATOM      8  C   UNL     1       4.884   4.612  19.407  0.00  0.00    +0.000 C 
ATOM      9  N   UNL     1       5.796   5.618  19.415  0.00  0.00    +0.000 N 
ATOM     10  N   UNL     1       3.546   4.932  19.323  0.00  0.00    +0.000 N 
ATOM     11  H   UNL     1       4.442   0.411  19.646  0.00  0.00    +0.000 HD
ATOM     12  H   UNL     1       5.999   1.101  19.643  0.00  0.00    +0.000 HD
ATOM     13  H   UNL     1       6.731   5.283  19.614  0.00  0.00    +0.000 HD
ATOM     14  H   UNL     1       5.546   6.443  19.938  0.00  0.00    +0.000 HD
ENDROOT
BRANCH  10  15
ATOM     15  C   UNL     1       3.045   6.234  19.036  0.00  0.00    +0.000 A 
ATOM     16  C   UNL     1       2.184   6.851  19.972  0.00  0.00    +0.000 A 
ATOM     17  C   UNL     1       1.637   8.122  19.765  0.00  0.00    +0.000 A 
ATOM     18  C   UNL     1       2.012   8.857  18.651  0.00  0.00    +0.000 A 
ATOM     19 CL   UNL     1       1.378  10.437  18.414  0.00  0.00    +0.000 Cl
ATOM     20  C   UNL     1       2.891   8.312  17.724  0.00  0.00    +0.000 A 
ATOM     21  C   UNL     1       3.368   7.000  17.888  0.00  0.00    +0.000 A 
ATOM     22 CL   UNL     1       4.273   6.372  16.548  0.00  0.00    +0.000 Cl
ENDBRANCH  10  15
TORSDOF 1
ENDMDL
MODEL 3
REMARK VINA RESULT:      -6.8      2.723      4.784
REMARK  Name = 
REMARK  3 active torsions:
REMARK  status: ('A' for Active; 'I' for Inactive)
REMARK    1  A    between atoms: C_1  and  C_2
REMARK    2  A    between atoms: C_2  and  C_3
REMARK    3  A    between atoms: N_10  and  C_11
REMARK                            x       y       z     vdW  Elec       q    Type
REMARK                         _______ _______ _______ _____ _____    ______ ____
ROOT
ATOM      1  C   UNL     1       1.429   3.977  17.607  0.00  0.00    +0.000 C 
ATOM      2  C   UNL     1       1.963   3.624  19.008  0.00  0.00    +0.000 C 
ATOM      3  C   UNL     1       0.767   3.400  19.957  0.00  0.00    +0.000 C 
ATOM      4  N   UNL     1       2.528   2.279  18.885  0.00  0.00    +0.000 NA
ATOM      5  C   UNL     1       3.804   2.152  18.899  0.00  0.00    +0.000 C 
ATOM      6  N   UNL     1       4.334   0.913  18.787  0.00  0.00    +0.000 N 
ATOM      7  N   UNL     1       4.681   3.174  18.982  0.00  0.00    +0.000 NA
ATOM      8  C   UNL     1       4.229   4.346  19.293  0.00  0.00    +0.000 C 
ATOM      9  N   UNL     1       5.166   5.313  19.466  0.00  0.00    +0.000 N 
ATOM     10  N   UNL     1       2.902   4.667  19.483  0.00  0.00    +0.000 N 
ATOM     11  H   UNL     1       3.687   0.250  18.382  0.00  0.00    +0.000 HD
ATOM     12  H   UNL     1       5.252   0.921  18.369  0.00  0.00    +0.000 HD
ATOM     13  H   UNL     1       6.107   4.941  19.435  0.00  0.00    +0.000 HD
ATOM     14  H   UNL     1       5.012   5.952  20.231  0.00  0.00    +0.000 HD
ENDROOT
BRANCH  10  15
ATOM     15  C   UNL     1       2.410   5.994  19.648  0.00  0.00    +0.000 A 
ATOM     16  C   UNL     1       1.685   6.307  20.820  0.00  0.00    +0.000 A 
ATOM     17  C   UNL     1       1.156   7.581  21.058  0.00  0.00    +0.000 A 
ATOM     18  C   UNL     1       1.418   8.610  20.166  0.00  0.00    +0.000 A 
ATOM     19 CL   UNL     1       0.808  10.186  20.476  0.00  0.00    +0.000 Cl
ATOM     20  C   UNL     1       2.164   8.363  19.021  0.00  0.00    +0.000 A 
ATOM     21  C   UNL     1       2.617   7.062  18.740  0.00  0.00    +0.000 A 
ATOM     22 CL   UNL     1       3.337   6.855  17.175  0.00  0.00    +0.000 Cl
ENDBRANCH  10  15
TORSDOF 1
ENDMDL
MODEL 4
REMARK VINA RESULT:      -6.7      1.588      1.685
REMARK  Name = 
REMARK  3 active torsions:
REMARK  status: ('A' for Active; 'I' for Inactive)
REMARK    1  A    between atoms: C_1  and  C_2
REMARK    2  A    between atoms: C_2  and  C_3
REMARK    3  A    between atoms: N_10  and  C_11
REMARK                            x       y       z     vdW  Elec       q    Type
REMARK                         _______ _______ _______ _____ _____    ______ ____
ROOT
ATOM      1  C   UNL     1       2.489   2.150  17.472  0.00  0.00    +0.000 C 
ATOM      2  C   UNL     1       2.415   3.487  18.233  0.00  0.00    +0.000 C 
ATOM      3  C   UNL     1       1.449   4.434  17.489  0.00  0.00    +0.000 C 
ATOM      4  N   UNL     1       1.686   3.196  19.469  0.00  0.00    +0.000 NA
ATOM      5  C   UNL     1       2.344   3.163  20.569  0.00  0.00    +0.000 C 
ATOM      6  N   UNL     1       1.677   2.895  21.716  0.00  0.00    +0.000 N 
ATOM      7  N   UNL     1       3.676   3.343  20.678  0.00  0.00    +0.000 NA
ATOM      8  C   UNL     1       4.319   3.799  19.652  0.00  0.00    +0.000 C 
ATOM      9  N   UNL     1       5.637   4.060  19.850  0.00  0.00    +0.000 N 
ATOM     10  N   UNL     1       3.771   4.057  18.415  0.00  0.00    +0.000 N 
ATOM     11  H   UNL     1       0.794   2.433  21.551  0.00  0.00    +0.000 HD
ATOM     12  H   UNL     1       2.263   2.459  22.411  0.00  0.00    +0.000 HD
ATOM     13  H   UNL     1       5.902   3.963  20.822  0.00  0.00    +0.000 HD
ATOM     14  H   UNL     1       5.996   4.897  19.418  0.00  0.00    +0.000 HD
ENDROOT
BRANCH  10  15
ATOM     15  C   UNL     1       4.525   4.387  17.252  0.00  0.00    +0.000 A 
ATOM     16  C   UNL     1       5.202   3.353  16.566  0.00  0.00    +0.000 A 
ATOM     17  C   UNL     1       5.975   3.590  15.424  0.00  0.00    +0.000 A 
ATOM     18  C   UNL     1       6.018   4.863  14.877  0.00  0.00    +0.000 A 
ATOM     19 CL   UNL     1       6.931   5.151  13.450  0.00  0.00    +0.000 Cl
ATOM     20  C   UNL     1       5.334   5.905  15.489  0.00  0.00    +0.000 A 
ATOM     21  C   UNL     1       4.633   5.683  16.688  0.00  0.00    +0.000 A 
ATOM     22 CL   UNL     1       4.017   7.110  17.456  0.00  0.00    +0.000 Cl
ENDBRANCH  10  15
TORSDOF 1
ENDMDL
MODEL 5
REMARK VINA RESULT:      -6.7      1.278      1.752
REMARK  Name = 
REMARK  3 active torsions:
REMARK  status: ('A' for Active; 'I' for Inactive)
REMARK    1  A    between atoms: C_1  and  C_2
REMARK    2  A    between atoms: C_2  and  C_3
REMARK    3  A    between atoms: N_10  and  C_11
REMARK                            x       y       z     vdW  Elec       q    Type
REMARK                         _______ _______ _______ _____ _____    ______ ____
ROOT
ATOM      1  C   UNL     1       1.640   4.404  18.319  0.00  0.00    +0.000 C 
ATOM      2  C   UNL     1       2.589   4.642  19.508  0.00  0.00    +0.000 C 
ATOM      3  C   UNL     1       2.795   6.161  19.688  0.00  0.00    +0.000 C 
ATOM      4  N   UNL     1       1.820   4.282  20.701  0.00  0.00    +0.000 NA
ATOM      5  C   UNL     1       2.116   3.193  21.309  0.00  0.00    +0.000 C 
ATOM      6  N   UNL     1       1.411   2.854  22.413  0.00  0.00    +0.000 N 
ATOM      7  N   UNL     1       3.067   2.322  20.914  0.00  0.00    +0.000 NA
ATOM      8  C   UNL     1       3.896   2.696  19.995  0.00  0.00    +0.000 C 
ATOM      9  N   UNL     1       4.896   1.822  19.711  0.00  0.00    +0.000 N 
ATOM     10  N   UNL     1       3.855   3.897  19.320  0.00  0.00    +0.000 N 
ATOM     11  H   UNL     1       0.517   3.324  22.462  0.00  0.00    +0.000 HD
ATOM     12  H   UNL     1       1.376   1.856  22.558  0.00  0.00    +0.000 HD
ATOM     13  H   UNL     1       4.910   1.038  20.352  0.00  0.00    +0.000 HD
ATOM     14  H   UNL     1       5.806   2.222  19.546  0.00  0.00    +0.000 HD
ENDROOT
BRANCH  10  15
ATOM     15  C   UNL     1       4.664   4.215  18.192  0.00  0.00    +0.000 A 
ATOM     16  C   UNL     1       5.764   5.085  18.370  0.00  0.00    +0.000 A 
ATOM     17  C   UNL     1       6.603   5.460  17.314  0.00  0.00    +0.000 A 
ATOM     18  C   UNL     1       6.421   4.899  16.060  0.00  0.00    +0.000 A 
ATOM     19 CL   UNL     1       7.475   5.322  14.771  0.00  0.00    +0.000 Cl
ATOM     20  C   UNL     1       5.381   4.004  15.845  0.00  0.00    +0.000 A 
ATOM     21  C   UNL     1       4.484   3.699  16.884  0.00  0.00    +0.000 A 
ATOM     22 CL   UNL     1       3.111   2.748  16.417  0.00  0.00    +0.000 Cl
ENDBRANCH  10  15
TORSDOF 1
ENDMDL
MODEL 6
REMARK VINA RESULT:      -6.7      3.345      5.862
REMARK  Name = 
REMARK  3 active torsions:
REMARK  status: ('A' for Active; 'I' for Inactive)
REMARK    1  A    between atoms: C_1  and  C_2
REMARK    2  A    between atoms: C_2  and  C_3
REMARK    3  A    between atoms: N_10  and  C_11
REMARK                            x       y       z     vdW  Elec       q    Type
REMARK                         _______ _______ _______ _____ _____    ______ ____
ROOT
ATOM      1  C   UNL     1       7.645   4.660  17.827  0.00  0.00    +0.000 C 
ATOM      2  C   UNL     1       6.813   5.619  16.957  0.00  0.00    +0.000 C 
ATOM      3  C   UNL     1       6.820   7.019  17.608  0.00  0.00    +0.000 C 
ATOM      4  N   UNL     1       7.601   5.830  15.741  0.00  0.00    +0.000 NA
ATOM      5  C   UNL     1       7.202   5.277  14.655  0.00  0.00    +0.000 C 
ATOM      6  N   UNL     1       7.924   5.467  13.527  0.00  0.00    +0.000 N 
ATOM      7  N   UNL     1       6.121   4.476  14.548  0.00  0.00    +0.000 NA
ATOM      8  C   UNL     1       5.293   4.429  15.540  0.00  0.00    +0.000 C 
ATOM      9  N   UNL     1       4.171   3.691  15.338  0.00  0.00    +0.000 N 
ATOM     10  N   UNL     1       5.450   5.078  16.745  0.00  0.00    +0.000 N 
ATOM     11  H   UNL     1       8.873   5.757  13.718  0.00  0.00    +0.000 HD
ATOM     12  H   UNL     1       7.836   4.700  12.878  0.00  0.00    +0.000 HD
ATOM     13  H   UNL     1       4.094   3.371  14.380  0.00  0.00    +0.000 HD
ATOM     14  H   UNL     1       3.313   4.074  15.703  0.00  0.00    +0.000 HD
ENDROOT
BRANCH  10  15
ATOM     15  C   UNL     1       4.621   4.873  17.885  0.00  0.00    +0.000 A 
ATOM     16  C   UNL     1       4.704   3.640  18.571  0.00  0.00    +0.000 A 
ATOM     17  C   UNL     1       3.918   3.350  19.692  0.00  0.00    +0.000 A 
ATOM     18  C   UNL     1       3.087   4.327  20.219  0.00  0.00    +0.000 A 
ATOM     19 CL   UNL     1       2.152   3.990  21.621  0.00  0.00    +0.000 Cl
ATOM     20  C   UNL     1       3.004   5.571  19.607  0.00  0.00    +0.000 A 
ATOM     21  C   UNL     1       3.726   5.828  18.429  0.00  0.00    +0.000 A 
ATOM     22 CL   UNL     1       3.356   7.335  17.653  0.00  0.00    +0.000 Cl
ENDBRANCH  10  15
TORSDOF 1
ENDMDL
MODEL 7
REMARK VINA RESULT:      -6.5      1.330      1.427
REMARK  Name = 
REMARK  3 active torsions:
REMARK  status: ('A' for Active; 'I' for Inactive)
REMARK    1  A    between atoms: C_1  and  C_2
REMARK    2  A    between atoms: C_2  and  C_3
REMARK    3  A    between atoms: N_10  and  C_11
REMARK                            x       y       z     vdW  Elec       q    Type
REMARK                         _______ _______ _______ _____ _____    ______ ____
ROOT
ATOM      1  C   UNL     1       2.797   5.787  17.859  0.00  0.00    +0.000 C 
ATOM      2  C   UNL     1       3.793   5.107  18.817  0.00  0.00    +0.000 C 
ATOM      3  C   UNL     1       4.801   6.161  19.322  0.00  0.00    +0.000 C 
ATOM      4  N   UNL     1       3.026   4.796  20.025  0.00  0.00    +0.000 NA
ATOM      5  C   UNL     1       2.720   3.572  20.252  0.00  0.00    +0.000 C 
ATOM      6  N   UNL     1       2.012   3.276  21.366  0.00  0.00    +0.000 N 
ATOM      7  N   UNL     1       3.020   2.537  19.440  0.00  0.00    +0.000 NA
ATOM      8  C   UNL     1       3.862   2.737  18.479  0.00  0.00    +0.000 C 
ATOM      9  N   UNL     1       4.207   1.638  17.759  0.00  0.00    +0.000 N 
ATOM     10  N   UNL     1       4.438   3.947  18.158  0.00  0.00    +0.000 N 
ATOM     11  H   UNL     1       1.521   4.078  21.738  0.00  0.00    +0.000 HD
ATOM     12  H   UNL     1       1.450   2.446  21.259  0.00  0.00    +0.000 HD
ATOM     13  H   UNL     1       3.833   0.788  18.161  0.00  0.00    +0.000 HD
ATOM     14  H   UNL     1       5.178   1.565  17.495  0.00  0.00    +0.000 HD
ENDROOT
BRANCH  10  15
ATOM     15  C   UNL     1       5.220   4.183  16.991  0.00  0.00    +0.000 A 
ATOM     16  C   UNL     1       4.595   4.097  15.726  0.00  0.00    +0.000 A 
ATOM     17  C   UNL     1       5.291   4.302  14.530  0.00  0.00    +0.000 A 
ATOM     18  C   UNL     1       6.620   4.692  14.567  0.00  0.00    +0.000 A 
ATOM     19 CL   UNL     1       7.468   4.988  13.101  0.00  0.00    +0.000 Cl
ATOM     20  C   UNL     1       7.268   4.834  15.788  0.00  0.00    +0.000 A 
ATOM     21  C   UNL     1       6.592   4.540  16.985  0.00  0.00    +0.000 A 
ATOM     22 CL   UNL     1       7.582   4.542  18.409  0.00  0.00    +0.000 Cl
ENDBRANCH  10  15
TORSDOF 1
ENDMDL
MODEL 8
REMARK VINA RESULT:      -6.4      1.279      2.351
REMARK  Name = 
REMARK  3 active torsions:
REMARK  status: ('A' for Active; 'I' for Inactive)
REMARK    1  A    between atoms: C_1  and  C_2
REMARK    2  A    between atoms: C_2  and  C_3
REMARK    3  A    between atoms: N_10  and  C_11
REMARK                            x       y       z     vdW  Elec       q    Type
REMARK                         _______ _______ _______ _____ _____    ______ ____
ROOT
ATOM      1  C   UNL     1       4.807   2.782  19.639  0.00  0.00    +0.000 C 
ATOM      2  C   UNL     1       3.563   2.943  18.744  0.00  0.00    +0.000 C 
ATOM      3  C   UNL     1       3.468   1.728  17.797  0.00  0.00    +0.000 C 
ATOM      4  N   UNL     1       2.414   2.746  19.630  0.00  0.00    +0.000 NA
ATOM      5  C   UNL     1       1.715   3.770  19.954  0.00  0.00    +0.000 C 
ATOM      6  N   UNL     1       0.651   3.597  20.772  0.00  0.00    +0.000 N 
ATOM      7  N   UNL     1       1.975   5.036  19.569  0.00  0.00    +0.000 NA
ATOM      8  C   UNL     1       2.848   5.225  18.634  0.00  0.00    +0.000 C 
ATOM      9  N   UNL     1       2.993   6.508  18.212  0.00  0.00    +0.000 N 
ATOM     10  N   UNL     1       3.601   4.241  18.031  0.00  0.00    +0.000 N 
ATOM     11  H   UNL     1       0.705   2.737  21.301  0.00  0.00    +0.000 HD
ATOM     12  H   UNL     1       0.444   4.420  21.317  0.00  0.00    +0.000 HD
ATOM     13  H   UNL     1       2.303   7.124  18.623  0.00  0.00    +0.000 HD
ATOM     14  H   UNL     1       3.110   6.642  17.220  0.00  0.00    +0.000 HD
ENDROOT
BRANCH  10  15
ATOM     15  C   UNL     1       4.679   4.487  17.134  0.00  0.00    +0.000 A 
ATOM     16  C   UNL     1       4.537   4.104  15.781  0.00  0.00    +0.000 A 
ATOM     17  C   UNL     1       5.550   4.298  14.835  0.00  0.00    +0.000 A 
ATOM     18  C   UNL     1       6.708   4.969  15.197  0.00  0.00    +0.000 A 
ATOM     19 CL   UNL     1       7.937   5.248  14.029  0.00  0.00    +0.000 Cl
ATOM     20  C   UNL     1       6.877   5.405  16.505  0.00  0.00    +0.000 A 
ATOM     21  C   UNL     1       5.896   5.129  17.474  0.00  0.00    +0.000 A 
ATOM     22 CL   UNL     1       6.337   5.531  19.103  0.00  0.00    +0.000 Cl
ENDBRANCH  10  15
TORSDOF 1
ENDMDL
MODEL 9
REMARK VINA RESULT:      -6.4      3.088      4.061
REMARK  Name = 
REMARK  3 active torsions:
REMARK  status: ('A' for Active; 'I' for Inactive)
REMARK    1  A    between atoms: C_1  and  C_2
REMARK    2  A    between atoms: C_2  and  C_3
REMARK    3  A    between atoms: N_10  and  C_11
REMARK                            x       y       z     vdW  Elec       q    Type
REMARK                         _______ _______ _______ _____ _____    ______ ____
ROOT
ATOM      1  C   UNL     1       2.581   3.494  17.004  0.00  0.00    +0.000 C 
ATOM      2  C   UNL     1       2.695   3.408  18.538  0.00  0.00    +0.000 C 
ATOM      3  C   UNL     1       1.276   3.430  19.146  0.00  0.00    +0.000 C 
ATOM      4  N   UNL     1       3.141   2.043  18.823  0.00  0.00    +0.000 NA
ATOM      5  C   UNL     1       4.351   1.868  19.209  0.00  0.00    +0.000 C 
ATOM      6  N   UNL     1       4.772   0.610  19.475  0.00  0.00    +0.000 N 
ATOM      7  N   UNL     1       5.269   2.848  19.343  0.00  0.00    +0.000 NA
ATOM      8  C   UNL     1       4.865   4.076  19.299  0.00  0.00    +0.000 C 
ATOM      9  N   UNL     1       5.812   5.018  19.544  0.00  0.00    +0.000 N 
ATOM     10  N   UNL     1       3.572   4.484  19.055  0.00  0.00    +0.000 N 
ATOM     11  H   UNL     1       4.193  -0.093  19.037  0.00  0.00    +0.000 HD
ATOM     12  H   UNL     1       5.763   0.495  19.332  0.00  0.00    +0.000 HD
ATOM     13  H   UNL     1       6.688   4.607  19.842  0.00  0.00    +0.000 HD
ATOM     14  H   UNL     1       5.525   5.803  20.107  0.00  0.00    +0.000 HD
ENDROOT
BRANCH  10  15
ATOM     15  C   UNL     1       3.182   5.837  18.834  0.00  0.00    +0.000 A 
ATOM     16  C   UNL     1       3.667   6.503  17.686  0.00  0.00    +0.000 A 
ATOM     17  C   UNL     1       3.344   7.834  17.398  0.00  0.00    +0.000 A 
ATOM     18  C   UNL     1       2.446   8.513  18.208  0.00  0.00    +0.000 A 
ATOM     19 CL   UNL     1       2.013  10.134  17.835  0.00  0.00    +0.000 Cl
ATOM     20  C   UNL     1       1.907   7.887  19.324  0.00  0.00    +0.000 A 
ATOM     21  C   UNL     1       2.303   6.580  19.661  0.00  0.00    +0.000 A 
ATOM     22 CL   UNL     1       1.727   6.009  21.194  0.00  0.00    +0.000 Cl
ENDBRANCH  10  15
TORSDOF 1
ENDMDL
