MODEL 1
REMARK VINA RESULT:      -7.8      0.000      0.000
REMARK  Name = 
REMARK  9 active torsions:
REMARK  status: ('A' for Active; 'I' for Inactive)
REMARK    1  A    between atoms: N_1  and  CA_2
REMARK    2  A    between atoms: CA_2  and  C_3
REMARK    3  A    between atoms: CA_2  and  C_18
REMARK    4  A    between atoms: C_3  and  C_4
REMARK    5  A    between atoms: C_4  and  C_5
REMARK    6  A    between atoms: C_4  and  C_15
REMARK    7  A    between atoms: C_5  and  C_6
REMARK    8  A    between atoms: C_15  and  O_17
REMARK    9  A    between atoms: C_18  and  OXT_20
REMARK                            x       y       z     vdW  Elec       q    Type
REMARK                         _______ _______ _______ _____ _____    ______ ____
ROOT
ATOM      1  C   UNL     1       5.651   5.592  16.089  0.00  0.00    +0.000 C 
ENDROOT
BRANCH   1   2
ATOM      2  C   UNL     1       6.197   5.010  14.803  0.00  0.00    +0.000 C 
ATOM      3  O   UNL     1       5.546   4.305  14.046  0.00  0.00    +0.000 OA
BRANCH   2   4
ATOM      4  O   UNL     1       7.500   5.275  14.585  0.00  0.00    +0.000 OA
ATOM      5  H   UNL     1       7.668   5.868  13.825  0.00  0.00    +0.000 HD
ENDBRANCH   2   4
ENDBRANCH   1   2
BRANCH   1   6
ATOM      6  C   UNL     1       6.844   6.037  16.959  0.00  0.00    +0.000 C 
BRANCH   6   7
ATOM      7  CA  UNL     1       7.208   5.029  18.059  0.00  0.00    +0.000 C 
BRANCH   7   8
ATOM      8  N   UNL     1       8.210   4.067  17.545  0.00  0.00    +0.000 NA
ATOM      9  H1  UNL     1       8.924   3.939  18.271  0.00  0.00    +0.000 HD
ATOM     10  H2  UNL     1       8.737   4.548  16.805  0.00  0.00    +0.000 HD
ENDBRANCH   7   8
BRANCH   7  11
ATOM     11  C   UNL     1       7.773   5.781  19.275  0.00  0.00    +0.000 C 
ATOM     12  O   UNL     1       7.705   5.364  20.424  0.00  0.00    +0.000 OA
BRANCH  11  13
ATOM     13  OXT UNL     1       8.360   6.957  18.965  0.00  0.00    +0.000 OA
ATOM     14  HXT UNL     1       9.170   7.161  19.473  0.00  0.00    +0.000 HD
ENDBRANCH  11  13
ENDBRANCH   7  11
ENDBRANCH   6   7
ENDBRANCH   1   6
BRANCH   1  15
ATOM     15  C   UNL     1       4.777   4.515  16.746  0.00  0.00    +0.000 C 
BRANCH  15  16
ATOM     16  C   UNL     1       3.769   5.039  17.737  0.00  0.00    +0.000 A 
ATOM     17  C   UNL     1       3.634   6.381  18.040  0.00  0.00    +0.000 A 
ATOM     18  S   UNL     1       2.495   6.678  19.266  0.00  0.00    +0.000 S 
ATOM     19  C   UNL     1       2.122   5.007  19.424  0.00  0.00    +0.000 A 
ATOM     20  C   UNL     1       1.207   4.434  20.330  0.00  0.00    +0.000 A 
ATOM     21  C   UNL     1       1.001   3.054  20.303  0.00  0.00    +0.000 A 
ATOM     22  C   UNL     1       1.690   2.259  19.400  0.00  0.00    +0.000 A 
ATOM     23  C   UNL     1       2.616   2.830  18.521  0.00  0.00    +0.000 A 
ATOM     24  C   UNL     1       2.853   4.229  18.519  0.00  0.00    +0.000 A 
ENDBRANCH  15  16
ENDBRANCH   1  15
TORSDOF 9
ENDMDL
MODEL 2
REMARK VINA RESULT:      -7.6      1.068      1.319
REMARK  Name = 
REMARK  9 active torsions:
REMARK  status: ('A' for Active; 'I' for Inactive)
REMARK    1  A    between atoms: N_1  and  CA_2
REMARK    2  A    between atoms: CA_2  and  C_3
REMARK    3  A    between atoms: CA_2  and  C_18
REMARK    4  A    between atoms: C_3  and  C_4
REMARK    5  A    between atoms: C_4  and  C_5
REMARK    6  A    between atoms: C_4  and  C_15
REMARK    7  A    between atoms: C_5  and  C_6
REMARK    8  A    between atoms: C_15  and  O_17
REMARK    9  A    between atoms: C_18  and  OXT_20
REMARK                            x       y       z     vdW  Elec       q    Type
REMARK                         _______ _______ _______ _____ _____    ______ ____
ROOT
ATOM      1  C   UNL     1       6.094   5.036  16.293  0.00  0.00    +0.000 C 
ENDROOT
BRANCH   1   2
ATOM      2  C   UNL     1       6.642   4.687  14.926  0.00  0.00    +0.000 C 
ATOM      3  O   UNL     1       6.271   3.724  14.271  0.00  0.00    +0.000 OA
BRANCH   2   4
ATOM      4  O   UNL     1       7.636   5.495  14.507  0.00  0.00    +0.000 OA
ATOM      5  H   UNL     1       8.532   5.112  14.600  0.00  0.00    +0.000 HD
ENDBRANCH   2   4
ENDBRANCH   1   2
BRANCH   1   6
ATOM      6  C   UNL     1       7.227   4.860  17.324  0.00  0.00    +0.000 C 
BRANCH   6   7
ATOM      7  CA  UNL     1       7.182   5.888  18.464  0.00  0.00    +0.000 C 
BRANCH   7   8
ATOM      8  N   UNL     1       7.848   5.334  19.666  0.00  0.00    +0.000 NA
ATOM      9  H1  UNL     1       8.720   5.854  19.811  0.00  0.00    +0.000 HD
ATOM     10  H2  UNL     1       8.193   4.398  19.414  0.00  0.00    +0.000 HD
ENDBRANCH   7   8
BRANCH   7  11
ATOM     11  C   UNL     1       7.889   7.179  18.018  0.00  0.00    +0.000 C 
ATOM     12  O   UNL     1       7.769   7.669  16.903  0.00  0.00    +0.000 OA
BRANCH  11  13
ATOM     13  OXT UNL     1       8.666   7.733  18.974  0.00  0.00    +0.000 OA
ATOM     14  HXT UNL     1       9.446   7.204  19.229  0.00  0.00    +0.000 HD
ENDBRANCH  11  13
ENDBRANCH   7  11
ENDBRANCH   6   7
ENDBRANCH   1   6
BRANCH   1  15
ATOM     15  C   UNL     1       4.883   4.126  16.548  0.00  0.00    +0.000 C 
BRANCH  15  16
ATOM     16  C   UNL     1       3.849   4.700  17.482  0.00  0.00    +0.000 A 
ATOM     17  C   UNL     1       3.775   6.045  17.793  0.00  0.00    +0.000 A 
ATOM     18  S   UNL     1       2.582   6.398  18.951  0.00  0.00    +0.000 S 
ATOM     19  C   UNL     1       2.101   4.751  19.063  0.00  0.00    +0.000 A 
ATOM     20  C   UNL     1       1.097   4.225  19.902  0.00  0.00    +0.000 A 
ATOM     21  C   UNL     1       0.811   2.861  19.844  0.00  0.00    +0.000 A 
ATOM     22  C   UNL     1       1.507   2.034  18.974  0.00  0.00    +0.000 A 
ATOM     23  C   UNL     1       2.519   2.557  18.162  0.00  0.00    +0.000 A 
ATOM     24  C   UNL     1       2.839   3.940  18.194  0.00  0.00    +0.000 A 
ENDBRANCH  15  16
ENDBRANCH   1  15
TORSDOF 9
ENDMDL
MODEL 3
REMARK VINA RESULT:      -7.4      1.631      2.438
REMARK  Name = 
REMARK  9 active torsions:
REMARK  status: ('A' for Active; 'I' for Inactive)
REMARK    1  A    between atoms: N_1  and  CA_2
REMARK    2  A    between atoms: CA_2  and  C_3
REMARK    3  A    between atoms: CA_2  and  C_18
REMARK    4  A    between atoms: C_3  and  C_4
REMARK    5  A    between atoms: C_4  and  C_5
REMARK    6  A    between atoms: C_4  and  C_15
REMARK    7  A    between atoms: C_5  and  C_6
REMARK    8  A    between atoms: C_15  and  O_17
REMARK    9  A    between atoms: C_18  and  OXT_20
REMARK                            x       y       z     vdW  Elec       q    Type
REMARK                         _______ _______ _______ _____ _____    ______ ____
ROOT
ATOM      1  C   UNL     1       5.783   4.974  16.340  0.00  0.00    +0.000 C 
ENDROOT
BRANCH   1   2
ATOM      2  C   UNL     1       6.442   4.769  14.993  0.00  0.00    +0.000 C 
ATOM      3  O   UNL     1       6.003   4.026  14.128  0.00  0.00    +0.000 OA
BRANCH   2   4
ATOM      4  O   UNL     1       7.606   5.430  14.841  0.00  0.00    +0.000 OA
ATOM      5  H   UNL     1       8.375   4.854  14.652  0.00  0.00    +0.000 HD
ENDBRANCH   2   4
ENDBRANCH   1   2
BRANCH   1   6
ATOM      6  C   UNL     1       6.861   4.812  17.431  0.00  0.00    +0.000 C 
BRANCH   6   7
ATOM      7  CA  UNL     1       6.838   5.929  18.484  0.00  0.00    +0.000 C 
BRANCH   7   8
ATOM      8  N   UNL     1       7.277   5.394  19.794  0.00  0.00    +0.000 NA
ATOM      9  H1  UNL     1       8.237   5.715  19.959  0.00  0.00    +0.000 HD
ATOM     10  H2  UNL     1       7.404   4.380  19.677  0.00  0.00    +0.000 HD
ENDBRANCH   7   8
BRANCH   7  11
ATOM     11  C   UNL     1       7.771   7.069  18.042  0.00  0.00    +0.000 C 
ATOM     12  O   UNL     1       7.757   7.564  16.922  0.00  0.00    +0.000 OA
BRANCH  11  13
ATOM     13  OXT UNL     1       8.621   7.484  19.006  0.00  0.00    +0.000 OA
ATOM     14  HXT UNL     1       9.429   6.944  19.103  0.00  0.00    +0.000 HD
ENDBRANCH  11  13
ENDBRANCH   7  11
ENDBRANCH   6   7
ENDBRANCH   1   6
BRANCH   1  15
ATOM     15  C   UNL     1       4.638   3.957  16.450  0.00  0.00    +0.000 C 
BRANCH  15  16
ATOM     16  C   UNL     1       3.991   3.881  17.810  0.00  0.00    +0.000 A 
ATOM     17  C   UNL     1       3.926   2.716  18.552  0.00  0.00    +0.000 A 
ATOM     18  S   UNL     1       3.049   2.894  19.997  0.00  0.00    +0.000 S 
ATOM     19  C   UNL     1       2.739   4.557  19.690  0.00  0.00    +0.000 A 
ATOM     20  C   UNL     1       1.994   5.436  20.502  0.00  0.00    +0.000 A 
ATOM     21  C   UNL     1       1.866   6.770  20.117  0.00  0.00    +0.000 A 
ATOM     22  C   UNL     1       2.462   7.224  18.950  0.00  0.00    +0.000 A 
ATOM     23  C   UNL     1       3.180   6.342  18.135  0.00  0.00    +0.000 A 
ATOM     24  C   UNL     1       3.330   4.977  18.493  0.00  0.00    +0.000 A 
ENDBRANCH  15  16
ENDBRANCH   1  15
TORSDOF 9
ENDMDL
MODEL 4
REMARK VINA RESULT:      -7.4      1.006      1.146
REMARK  Name = 
REMARK  9 active torsions:
REMARK  status: ('A' for Active; 'I' for Inactive)
REMARK    1  A    between atoms: N_1  and  CA_2
REMARK    2  A    between atoms: CA_2  and  C_3
REMARK    3  A    between atoms: CA_2  and  C_18
REMARK    4  A    between atoms: C_3  and  C_4
REMARK    5  A    between atoms: C_4  and  C_5
REMARK    6  A    between atoms: C_4  and  C_15
REMARK    7  A    between atoms: C_5  and  C_6
REMARK    8  A    between atoms: C_15  and  O_17
REMARK    9  A    between atoms: C_18  and  OXT_20
REMARK                            x       y       z     vdW  Elec       q    Type
REMARK                         _______ _______ _______ _____ _____    ______ ____
ROOT
ATOM      1  C   UNL     1       6.023   5.068  16.175  0.00  0.00    +0.000 C 
ENDROOT
BRANCH   1   2
ATOM      2  C   UNL     1       6.600   4.838  14.795  0.00  0.00    +0.000 C 
ATOM      3  O   UNL     1       6.102   4.091  13.966  0.00  0.00    +0.000 OA
BRANCH   2   4
ATOM      4  O   UNL     1       7.763   5.480  14.568  0.00  0.00    +0.000 OA
ATOM      5  H   UNL     1       8.341   5.556  15.355  0.00  0.00    +0.000 HD
ENDBRANCH   2   4
ENDBRANCH   1   2
BRANCH   1   6
ATOM      6  C   UNL     1       7.000   4.472  17.209  0.00  0.00    +0.000 C 
BRANCH   6   7
ATOM      7  CA  UNL     1       7.687   5.531  18.084  0.00  0.00    +0.000 C 
BRANCH   7   8
ATOM      8  N   UNL     1       7.284   6.886  17.641  0.00  0.00    +0.000 NA
ATOM      9  H1  UNL     1       8.061   7.526  17.839  0.00  0.00    +0.000 HD
ATOM     10  H2  UNL     1       6.561   7.213  18.295  0.00  0.00    +0.000 HD
ENDBRANCH   7   8
BRANCH   7  11
ATOM     11  C   UNL     1       7.290   5.317  19.554  0.00  0.00    +0.000 C 
ATOM     12  O   UNL     1       8.050   5.497  20.496  0.00  0.00    +0.000 OA
BRANCH  11  13
ATOM     13  OXT UNL     1       6.013   4.907  19.720  0.00  0.00    +0.000 OA
ATOM     14  HXT UNL     1       5.910   4.076  20.223  0.00  0.00    +0.000 HD
ENDBRANCH  11  13
ENDBRANCH   7  11
ENDBRANCH   6   7
ENDBRANCH   1   6
BRANCH   1  15
ATOM     15  C   UNL     1       4.629   4.425  16.203  0.00  0.00    +0.000 C 
BRANCH  15  16
ATOM     16  C   UNL     1       3.720   4.939  17.290  0.00  0.00    +0.000 A 
ATOM     17  C   UNL     1       3.724   6.252  17.721  0.00  0.00    +0.000 A 
ATOM     18  S   UNL     1       2.673   6.529  19.029  0.00  0.00    +0.000 S 
ATOM     19  C   UNL     1       2.154   4.890  19.052  0.00  0.00    +0.000 A 
ATOM     20  C   UNL     1       1.230   4.315  19.949  0.00  0.00    +0.000 A 
ATOM     21  C   UNL     1       0.896   2.969  19.807  0.00  0.00    +0.000 A 
ATOM     22  C   UNL     1       1.467   2.206  18.799  0.00  0.00    +0.000 A 
ATOM     23  C   UNL     1       2.403   2.775  17.928  0.00  0.00    +0.000 A 
ATOM     24  C   UNL     1       2.769   4.142  18.042  0.00  0.00    +0.000 A 
ENDBRANCH  15  16
ENDBRANCH   1  15
TORSDOF 9
ENDMDL
MODEL 5
REMARK VINA RESULT:      -7.2      1.676      3.721
REMARK  Name = 
REMARK  9 active torsions:
REMARK  status: ('A' for Active; 'I' for Inactive)
REMARK    1  A    between atoms: N_1  and  CA_2
REMARK    2  A    between atoms: CA_2  and  C_3
REMARK    3  A    between atoms: CA_2  and  C_18
REMARK    4  A    between atoms: C_3  and  C_4
REMARK    5  A    between atoms: C_4  and  C_5
REMARK    6  A    between atoms: C_4  and  C_15
REMARK    7  A    between atoms: C_5  and  C_6
REMARK    8  A    between atoms: C_15  and  O_17
REMARK    9  A    between atoms: C_18  and  OXT_20
REMARK                            x       y       z     vdW  Elec       q    Type
REMARK                         _______ _______ _______ _____ _____    ______ ____
ROOT
ATOM      1  C   UNL     1       5.892   4.342  16.532  0.00  0.00    +0.000 C 
ENDROOT
BRANCH   1   2
ATOM      2  C   UNL     1       7.108   5.035  17.107  0.00  0.00    +0.000 C 
ATOM      3  O   UNL     1       7.508   6.128  16.734  0.00  0.00    +0.000 OA
BRANCH   2   4
ATOM      4  O   UNL     1       7.769   4.313  18.034  0.00  0.00    +0.000 OA
ATOM      5  H   UNL     1       8.207   4.851  18.725  0.00  0.00    +0.000 HD
ENDBRANCH   2   4
ENDBRANCH   1   2
BRANCH   1   6
ATOM      6  C   UNL     1       6.319   3.615  15.242  0.00  0.00    +0.000 C 
BRANCH   6   7
ATOM      7  CA  UNL     1       6.226   4.492  13.985  0.00  0.00    +0.000 C 
BRANCH   7   8
ATOM      8  N   UNL     1       7.519   5.177  13.754  0.00  0.00    +0.000 NA
ATOM      9  H1  UNL     1       7.856   4.908  12.824  0.00  0.00    +0.000 HD
ATOM     10  H2  UNL     1       8.210   4.731  14.372  0.00  0.00    +0.000 HD
ENDBRANCH   7   8
BRANCH   7  11
ATOM     11  C   UNL     1       5.870   3.616  12.773  0.00  0.00    +0.000 C 
ATOM     12  O   UNL     1       4.750   3.554  12.283  0.00  0.00    +0.000 OA
BRANCH  11  13
ATOM     13  OXT UNL     1       6.913   2.907  12.287  0.00  0.00    +0.000 OA
ATOM     14  HXT UNL     1       6.676   2.048  11.887  0.00  0.00    +0.000 HD
ENDBRANCH  11  13
ENDBRANCH   7  11
ENDBRANCH   6   7
ENDBRANCH   1   6
BRANCH   1  15
ATOM     15  C   UNL     1       4.816   5.415  16.307  0.00  0.00    +0.000 C 
BRANCH  15  16
ATOM     16  C   UNL     1       3.824   5.558  17.432  0.00  0.00    +0.000 A 
ATOM     17  C   UNL     1       3.667   6.724  18.158  0.00  0.00    +0.000 A 
ATOM     18  S   UNL     1       2.554   6.572  19.434  0.00  0.00    +0.000 S 
ATOM     19  C   UNL     1       2.222   4.930  19.044  0.00  0.00    +0.000 A 
ATOM     20  C   UNL     1       1.343   4.067  19.729  0.00  0.00    +0.000 A 
ATOM     21  C   UNL     1       1.166   2.766  19.257  0.00  0.00    +0.000 A 
ATOM     22  C   UNL     1       1.849   2.329  18.133  0.00  0.00    +0.000 A 
ATOM     23  C   UNL     1       2.740   3.181  17.472  0.00  0.00    +0.000 A 
ATOM     24  C   UNL     1       2.946   4.511  17.923  0.00  0.00    +0.000 A 
ENDBRANCH  15  16
ENDBRANCH   1  15
TORSDOF 9
ENDMDL
MODEL 6
REMARK VINA RESULT:      -7.2      2.304      3.887
REMARK  Name = 
REMARK  9 active torsions:
REMARK  status: ('A' for Active; 'I' for Inactive)
REMARK    1  A    between atoms: N_1  and  CA_2
REMARK    2  A    between atoms: CA_2  and  C_3
REMARK    3  A    between atoms: CA_2  and  C_18
REMARK    4  A    between atoms: C_3  and  C_4
REMARK    5  A    between atoms: C_4  and  C_5
REMARK    6  A    between atoms: C_4  and  C_15
REMARK    7  A    between atoms: C_5  and  C_6
REMARK    8  A    between atoms: C_15  and  O_17
REMARK    9  A    between atoms: C_18  and  OXT_20
REMARK                            x       y       z     vdW  Elec       q    Type
REMARK                         _______ _______ _______ _____ _____    ______ ____
ROOT
ATOM      1  C   UNL     1       5.902   4.518  16.065  0.00  0.00    +0.000 C 
ENDROOT
BRANCH   1   2
ATOM      2  C   UNL     1       7.217   5.074  16.565  0.00  0.00    +0.000 C 
ATOM      3  O   UNL     1       7.560   6.240  16.425  0.00  0.00    +0.000 OA
BRANCH   2   4
ATOM      4  O   UNL     1       8.027   4.157  17.128  0.00  0.00    +0.000 OA
ATOM      5  H   UNL     1       7.758   3.879  18.028  0.00  0.00    +0.000 HD
ENDBRANCH   2   4
ENDBRANCH   1   2
BRANCH   1   6
ATOM      6  C   UNL     1       5.780   4.848  14.564  0.00  0.00    +0.000 C 
BRANCH   6   7
ATOM      7  CA  UNL     1       6.732   4.030  13.679  0.00  0.00    +0.000 C 
BRANCH   7   8
ATOM      8  N   UNL     1       5.949   3.125  12.805  0.00  0.00    +0.000 NA
ATOM      9  H1  UNL     1       5.106   2.844  13.317  0.00  0.00    +0.000 HD
ATOM     10  H2  UNL     1       6.471   2.240  12.745  0.00  0.00    +0.000 HD
ENDBRANCH   7   8
BRANCH   7  11
ATOM     11  C   UNL     1       7.583   4.983  12.823  0.00  0.00    +0.000 C 
ATOM     12  O   UNL     1       7.555   5.008  11.600  0.00  0.00    +0.000 OA
BRANCH  11  13
ATOM     13  OXT UNL     1       8.376   5.803  13.547  0.00  0.00    +0.000 OA
ATOM     14  HXT UNL     1       9.208   5.398  13.862  0.00  0.00    +0.000 HD
ENDBRANCH  11  13
ENDBRANCH   7  11
ENDBRANCH   6   7
ENDBRANCH   1   6
BRANCH   1  15
ATOM     15  C   UNL     1       4.787   5.134  16.923  0.00  0.00    +0.000 C 
BRANCH  15  16
ATOM     16  C   UNL     1       3.923   4.133  17.648  0.00  0.00    +0.000 A 
ATOM     17  C   UNL     1       3.877   2.793  17.314  0.00  0.00    +0.000 A 
ATOM     18  S   UNL     1       2.742   1.916  18.225  0.00  0.00    +0.000 S 
ATOM     19  C   UNL     1       2.281   3.308  19.124  0.00  0.00    +0.000 A 
ATOM     20  C   UNL     1       1.296   3.368  20.131  0.00  0.00    +0.000 A 
ATOM     21  C   UNL     1       1.069   4.579  20.785  0.00  0.00    +0.000 A 
ATOM     22  C   UNL     1       1.800   5.707  20.446  0.00  0.00    +0.000 A 
ATOM     23  C   UNL     1       2.758   5.648  19.428  0.00  0.00    +0.000 A 
ATOM     24  C   UNL     1       3.017   4.434  18.740  0.00  0.00    +0.000 A 
ENDBRANCH  15  16
ENDBRANCH   1  15
TORSDOF 9
ENDMDL
MODEL 7
REMARK VINA RESULT:      -7.2      2.300      3.870
REMARK  Name = 
REMARK  9 active torsions:
REMARK  status: ('A' for Active; 'I' for Inactive)
REMARK    1  A    between atoms: N_1  and  CA_2
REMARK    2  A    between atoms: CA_2  and  C_3
REMARK    3  A    between atoms: CA_2  and  C_18
REMARK    4  A    between atoms: C_3  and  C_4
REMARK    5  A    between atoms: C_4  and  C_5
REMARK    6  A    between atoms: C_4  and  C_15
REMARK    7  A    between atoms: C_5  and  C_6
REMARK    8  A    between atoms: C_15  and  O_17
REMARK    9  A    between atoms: C_18  and  OXT_20
REMARK                            x       y       z     vdW  Elec       q    Type
REMARK                         _______ _______ _______ _____ _____    ______ ____
ROOT
ATOM      1  C   UNL     1       5.946   4.450  16.116  0.00  0.00    +0.000 C 
ENDROOT
BRANCH   1   2
ATOM      2  C   UNL     1       7.294   4.935  16.602  0.00  0.00    +0.000 C 
ATOM      3  O   UNL     1       8.083   4.240  17.226  0.00  0.00    +0.000 OA
BRANCH   2   4
ATOM      4  O   UNL     1       7.539   6.235  16.347  0.00  0.00    +0.000 OA
ATOM      5  H   UNL     1       8.396   6.405  15.905  0.00  0.00    +0.000 HD
ENDBRANCH   2   4
ENDBRANCH   1   2
BRANCH   1   6
ATOM      6  C   UNL     1       5.815   4.810  14.623  0.00  0.00    +0.000 C 
BRANCH   6   7
ATOM      7  CA  UNL     1       6.786   4.035  13.720  0.00  0.00    +0.000 C 
BRANCH   7   8
ATOM      8  N   UNL     1       6.025   3.166  12.793  0.00  0.00    +0.000 NA
ATOM      9  H1  UNL     1       6.347   2.202  12.929  0.00  0.00    +0.000 HD
ATOM     10  H2  UNL     1       6.359   3.374  11.842  0.00  0.00    +0.000 HD
ENDBRANCH   7   8
BRANCH   7  11
ATOM     11  C   UNL     1       7.648   5.029  12.923  0.00  0.00    +0.000 C 
ATOM     12  O   UNL     1       8.400   5.844  13.440  0.00  0.00    +0.000 OA
BRANCH  11  13
ATOM     13  OXT UNL     1       7.501   4.926  11.584  0.00  0.00    +0.000 OA
ATOM     14  HXT UNL     1       8.152   4.347  11.141  0.00  0.00    +0.000 HD
ENDBRANCH  11  13
ENDBRANCH   7  11
ENDBRANCH   6   7
ENDBRANCH   1   6
BRANCH   1  15
ATOM     15  C   UNL     1       4.876   5.104  17.003  0.00  0.00    +0.000 C 
BRANCH  15  16
ATOM     16  C   UNL     1       3.947   4.135  17.689  0.00  0.00    +0.000 A 
ATOM     17  C   UNL     1       3.842   2.805  17.329  0.00  0.00    +0.000 A 
ATOM     18  S   UNL     1       2.644   1.970  18.199  0.00  0.00    +0.000 S 
ATOM     19  C   UNL     1       2.233   3.367  19.114  0.00  0.00    +0.000 A 
ATOM     20  C   UNL     1       1.231   3.459  20.101  0.00  0.00    +0.000 A 
ATOM     21  C   UNL     1       1.050   4.667  20.773  0.00  0.00    +0.000 A 
ATOM     22  C   UNL     1       1.844   5.764  20.472  0.00  0.00    +0.000 A 
ATOM     23  C   UNL     1       2.820   5.675  19.474  0.00  0.00    +0.000 A 
ATOM     24  C   UNL     1       3.033   4.462  18.767  0.00  0.00    +0.000 A 
ENDBRANCH  15  16
ENDBRANCH   1  15
TORSDOF 9
ENDMDL
MODEL 8
REMARK VINA RESULT:      -7.1      0.961      1.185
REMARK  Name = 
REMARK  9 active torsions:
REMARK  status: ('A' for Active; 'I' for Inactive)
REMARK    1  A    between atoms: N_1  and  CA_2
REMARK    2  A    between atoms: CA_2  and  C_3
REMARK    3  A    between atoms: CA_2  and  C_18
REMARK    4  A    between atoms: C_3  and  C_4
REMARK    5  A    between atoms: C_4  and  C_5
REMARK    6  A    between atoms: C_4  and  C_15
REMARK    7  A    between atoms: C_5  and  C_6
REMARK    8  A    between atoms: C_15  and  O_17
REMARK    9  A    between atoms: C_18  and  OXT_20
REMARK                            x       y       z     vdW  Elec       q    Type
REMARK                         _______ _______ _______ _____ _____    ______ ____
ROOT
ATOM      1  C   UNL     1       6.090   5.080  16.320  0.00  0.00    +0.000 C 
ENDROOT
BRANCH   1   2
ATOM      2  C   UNL     1       6.810   4.701  15.044  0.00  0.00    +0.000 C 
ATOM      3  O   UNL     1       7.670   5.392  14.518  0.00  0.00    +0.000 OA
BRANCH   2   4
ATOM      4  O   UNL     1       6.377   3.555  14.484  0.00  0.00    +0.000 OA
ATOM      5  H   UNL     1       5.518   3.237  14.830  0.00  0.00    +0.000 HD
ENDBRANCH   2   4
ENDBRANCH   1   2
BRANCH   1   6
ATOM      6  C   UNL     1       6.919   4.558  17.511  0.00  0.00    +0.000 C 
BRANCH   6   7
ATOM      7  CA  UNL     1       6.674   5.334  18.813  0.00  0.00    +0.000 C 
BRANCH   7   8
ATOM      8  N   UNL     1       5.960   4.473  19.784  0.00  0.00    +0.000 NA
ATOM      9  H1  UNL     1       5.899   4.982  20.672  0.00  0.00    +0.000 HD
ATOM     10  H2  UNL     1       6.594   3.698  20.022  0.00  0.00    +0.000 HD
ENDBRANCH   7   8
BRANCH   7  11
ATOM     11  C   UNL     1       8.021   5.787  19.401  0.00  0.00    +0.000 C 
ATOM     12  O   UNL     1       8.678   5.120  20.189  0.00  0.00    +0.000 OA
BRANCH  11  13
ATOM     13  OXT UNL     1       8.423   7.002  18.969  0.00  0.00    +0.000 OA
ATOM     14  HXT UNL     1       7.765   7.716  19.075  0.00  0.00    +0.000 HD
ENDBRANCH  11  13
ENDBRANCH   7  11
ENDBRANCH   6   7
ENDBRANCH   1   6
BRANCH   1  15
ATOM     15  C   UNL     1       4.678   4.483  16.245  0.00  0.00    +0.000 C 
BRANCH  15  16
ATOM     16  C   UNL     1       3.724   4.985  17.299  0.00  0.00    +0.000 A 
ATOM     17  C   UNL     1       3.652   6.311  17.683  0.00  0.00    +0.000 A 
ATOM     18  S   UNL     1       2.567   6.577  18.964  0.00  0.00    +0.000 S 
ATOM     19  C   UNL     1       2.133   4.915  19.037  0.00  0.00    +0.000 A 
ATOM     20  C   UNL     1       1.224   4.324  19.938  0.00  0.00    +0.000 A 
ATOM     21  C   UNL     1       0.962   2.957  19.838  0.00  0.00    +0.000 A 
ATOM     22  C   UNL     1       1.590   2.192  18.867  0.00  0.00    +0.000 A 
ATOM     23  C   UNL     1       2.509   2.778  17.991  0.00  0.00    +0.000 A 
ATOM     24  C   UNL     1       2.802   4.166  18.063  0.00  0.00    +0.000 A 
ENDBRANCH  15  16
ENDBRANCH   1  15
TORSDOF 9
ENDMDL
MODEL 9
REMARK VINA RESULT:      -7.0      1.695      2.548
REMARK  Name = 
REMARK  9 active torsions:
REMARK  status: ('A' for Active; 'I' for Inactive)
REMARK    1  A    between atoms: N_1  and  CA_2
REMARK    2  A    between atoms: CA_2  and  C_3
REMARK    3  A    between atoms: CA_2  and  C_18
REMARK    4  A    between atoms: C_3  and  C_4
REMARK    5  A    between atoms: C_4  and  C_5
REMARK    6  A    between atoms: C_4  and  C_15
REMARK    7  A    between atoms: C_5  and  C_6
REMARK    8  A    between atoms: C_15  and  O_17
REMARK    9  A    between atoms: C_18  and  OXT_20
REMARK                            x       y       z     vdW  Elec       q    Type
REMARK                         _______ _______ _______ _____ _____    ______ ____
ROOT
ATOM      1  C   UNL     1       6.157   5.020  15.886  0.00  0.00    +0.000 C 
ENDROOT
BRANCH   1   2
ATOM      2  C   UNL     1       6.835   4.690  14.573  0.00  0.00    +0.000 C 
ATOM      3  O   UNL     1       7.672   5.405  14.041  0.00  0.00    +0.000 OA
BRANCH   2   4
ATOM      4  O   UNL     1       6.389   3.560  13.990  0.00  0.00    +0.000 OA
ATOM      5  H   UNL     1       5.414   3.480  13.959  0.00  0.00    +0.000 HD
ENDBRANCH   2   4
ENDBRANCH   1   2
BRANCH   1   6
ATOM      6  C   UNL     1       7.096   4.592  17.031  0.00  0.00    +0.000 C 
BRANCH   6   7
ATOM      7  CA  UNL     1       7.656   5.774  17.837  0.00  0.00    +0.000 C 
BRANCH   7   8
ATOM      8  N   UNL     1       6.919   7.011  17.491  0.00  0.00    +0.000 NA
ATOM      9  H1  UNL     1       6.085   7.058  18.087  0.00  0.00    +0.000 HD
ATOM     10  H2  UNL     1       6.510   6.867  16.558  0.00  0.00    +0.000 HD
ENDBRANCH   7   8
BRANCH   7  11
ATOM     11  C   UNL     1       7.517   5.480  19.340  0.00  0.00    +0.000 C 
ATOM     12  O   UNL     1       8.464   5.246  20.078  0.00  0.00    +0.000 OA
BRANCH  11  13
ATOM     13  OXT UNL     1       6.241   5.502  19.784  0.00  0.00    +0.000 OA
ATOM     14  HXT UNL     1       6.091   5.038  20.631  0.00  0.00    +0.000 HD
ENDBRANCH  11  13
ENDBRANCH   7  11
ENDBRANCH   6   7
ENDBRANCH   1   6
BRANCH   1  15
ATOM     15  C   UNL     1       4.803   4.298  15.898  0.00  0.00    +0.000 C 
BRANCH  15  16
ATOM     16  C   UNL     1       4.141   4.222  17.250  0.00  0.00    +0.000 A 
ATOM     17  C   UNL     1       4.012   3.045  17.964  0.00  0.00    +0.000 A 
ATOM     18  S   UNL     1       3.133   3.232  19.406  0.00  0.00    +0.000 S 
ATOM     19  C   UNL     1       2.908   4.915  19.136  0.00  0.00    +0.000 A 
ATOM     20  C   UNL     1       2.200   5.810  19.964  0.00  0.00    +0.000 A 
ATOM     21  C   UNL     1       2.142   7.158  19.610  0.00  0.00    +0.000 A 
ATOM     22  C   UNL     1       2.769   7.609  18.459  0.00  0.00    +0.000 A 
ATOM     23  C   UNL     1       3.449   6.713  17.628  0.00  0.00    +0.000 A 
ATOM     24  C   UNL     1       3.529   5.333  17.954  0.00  0.00    +0.000 A 
ENDBRANCH  15  16
ENDBRANCH   1  15
TORSDOF 9
ENDMDL
