MODEL 1
REMARK VINA RESULT:      -7.5      0.000      0.000
REMARK  Name = 
REMARK  7 active torsions:
REMARK  status: ('A' for Active; 'I' for Inactive)
REMARK    1  A    between atoms: C_1  and  C_2
REMARK    2  A    between atoms: C_2  and  C_10
REMARK    3  A    between atoms: C_3  and  C_4
REMARK    4  A    between atoms: N_11  and  N_12
REMARK    5  A    between atoms: N_15  and  C_16
REMARK    6  A    between atoms: C_16  and  C_17
REMARK    7  A    between atoms: C_20  and  C_21
REMARK                            x       y       z     vdW  Elec       q    Type
REMARK                         _______ _______ _______ _____ _____    ______ ____
ROOT
ATOM      1  N   UNL     1       1.395   9.149  18.987  0.00  0.00    +0.000 N 
ATOM      2  C   UNL     1       1.105  10.572  18.775  0.00  0.00    +0.000 C 
ATOM      3  C   UNL     1      -0.324  10.876  19.288  0.00  0.00    +0.000 C 
ATOM      4  N   UNL     1      -0.598  10.456  20.688  0.00  0.00    +0.000 NA
ATOM      5  C   UNL     1      -0.142   9.056  20.856  0.00  0.00    +0.000 C 
ATOM      6  C   UNL     1       1.309   8.806  20.410  0.00  0.00    +0.000 C 
ENDROOT
BRANCH   1   8
ATOM      7  C   UNL     1       2.619   7.368  18.663  0.00  0.00    +0.000 C 
ATOM      8  N   UNL     1       2.276   8.526  18.184  0.00  0.00    +0.000 NA
BRANCH   7  10
ATOM      9  C   UNL     1       4.348   7.016  16.863  0.00  0.00    +0.000 C 
ATOM     10  C   UNL     1       3.487   6.415  17.934  0.00  0.00    +0.000 C 
ATOM     11  C   UNL     1       3.474   5.103  18.208  0.00  0.00    +0.000 C 
BRANCH  11  12
ATOM     12  C   UNL     1       2.606   4.389  19.157  0.00  0.00    +0.000 A 
ATOM     13  C   UNL     1       1.534   3.626  18.688  0.00  0.00    +0.000 A 
ATOM     14  C   UNL     1       0.757   2.872  19.574  0.00  0.00    +0.000 A 
ATOM     15  C   UNL     1       1.049   2.886  20.937  0.00  0.00    +0.000 A 
ATOM     16  C   UNL     1       2.106   3.659  21.415  0.00  0.00    +0.000 A 
ATOM     17  C   UNL     1       2.885   4.412  20.528  0.00  0.00    +0.000 A 
ENDBRANCH  11  12
ENDBRANCH   7  10
ENDBRANCH   1   8
BRANCH   4  18
ATOM     18  C   UNL     1       0.064  11.381  21.622  0.00  0.00    +0.000 C 
BRANCH  18  19
ATOM     19  C   UNL     1      -0.877  12.247  22.428  0.00  0.00    +0.000 A 
ATOM     20  C   UNL     1      -0.605  13.612  22.599  0.00  0.00    +0.000 A 
ATOM     21  C   UNL     1      -1.513  14.438  23.266  0.00  0.00    +0.000 A 
ATOM     22  C   UNL     1      -2.704  13.911  23.777  0.00  0.00    +0.000 A 
ATOM     23  C   UNL     1      -3.725  14.804  24.415  0.00  0.00    +0.000 C 
ATOM     24  C   UNL     1      -2.958  12.541  23.642  0.00  0.00    +0.000 A 
ATOM     25  C   UNL     1      -2.050  11.715  22.977  0.00  0.00    +0.000 A 
ENDBRANCH  18  19
ENDBRANCH   4  18
TORSDOF 5
ENDMDL
MODEL 2
REMARK VINA RESULT:      -7.4      0.362      1.406
REMARK  Name = 
REMARK  7 active torsions:
REMARK  status: ('A' for Active; 'I' for Inactive)
REMARK    1  A    between atoms: C_1  and  C_2
REMARK    2  A    between atoms: C_2  and  C_10
REMARK    3  A    between atoms: C_3  and  C_4
REMARK    4  A    between atoms: N_11  and  N_12
REMARK    5  A    between atoms: N_15  and  C_16
REMARK    6  A    between atoms: C_16  and  C_17
REMARK    7  A    between atoms: C_20  and  C_21
REMARK                            x       y       z     vdW  Elec       q    Type
REMARK                         _______ _______ _______ _____ _____    ______ ____
ROOT
ATOM      1  N   UNL     1       1.386   8.845  18.912  0.00  0.00    +0.000 N 
ATOM      2  C   UNL     1       0.924  10.211  18.640  0.00  0.00    +0.000 C 
ATOM      3  C   UNL     1      -0.447  10.427  19.327  0.00  0.00    +0.000 C 
ATOM      4  N   UNL     1      -0.484  10.108  20.779  0.00  0.00    +0.000 NA
ATOM      5  C   UNL     1       0.133   8.776  20.984  0.00  0.00    +0.000 C 
ATOM      6  C   UNL     1       1.528   8.622  20.355  0.00  0.00    +0.000 C 
ENDROOT
BRANCH   1   8
ATOM      7  C   UNL     1       2.825   7.233  18.590  0.00  0.00    +0.000 C 
ATOM      8  N   UNL     1       2.210   8.237  18.041  0.00  0.00    +0.000 NA
BRANCH   7  10
ATOM      9  C   UNL     1       4.618   6.965  16.839  0.00  0.00    +0.000 C 
ATOM     10  C   UNL     1       3.707   6.313  17.835  0.00  0.00    +0.000 C 
ATOM     11  C   UNL     1       3.662   4.986  18.023  0.00  0.00    +0.000 C 
BRANCH  11  12
ATOM     12  C   UNL     1       2.746   4.229  18.889  0.00  0.00    +0.000 A 
ATOM     13  C   UNL     1       2.771   4.421  20.273  0.00  0.00    +0.000 A 
ATOM     14  C   UNL     1       1.845   3.774  21.097  0.00  0.00    +0.000 A 
ATOM     15  C   UNL     1       0.892   2.924  20.536  0.00  0.00    +0.000 A 
ATOM     16  C   UNL     1       0.872   2.713  19.158  0.00  0.00    +0.000 A 
ATOM     17  C   UNL     1       1.799   3.362  18.333  0.00  0.00    +0.000 A 
ENDBRANCH  11  12
ENDBRANCH   7  10
ENDBRANCH   1   8
BRANCH   4  18
ATOM     18  C   UNL     1       0.199  11.168  21.538  0.00  0.00    +0.000 C 
BRANCH  18  19
ATOM     19  C   UNL     1      -0.724  12.124  22.260  0.00  0.00    +0.000 A 
ATOM     20  C   UNL     1      -1.887  11.647  22.879  0.00  0.00    +0.000 A 
ATOM     21  C   UNL     1      -2.698  12.506  23.623  0.00  0.00    +0.000 A 
ATOM     22  C   UNL     1      -2.361  13.857  23.757  0.00  0.00    +0.000 A 
ATOM     23  C   UNL     1      -3.175  14.768  24.626  0.00  0.00    +0.000 C 
ATOM     24  C   UNL     1      -1.221  14.343  23.106  0.00  0.00    +0.000 A 
ATOM     25  C   UNL     1      -0.411  13.485  22.360  0.00  0.00    +0.000 A 
ENDBRANCH  18  19
ENDBRANCH   4  18
TORSDOF 5
ENDMDL
MODEL 3
REMARK VINA RESULT:      -7.3      0.939      1.195
REMARK  Name = 
REMARK  7 active torsions:
REMARK  status: ('A' for Active; 'I' for Inactive)
REMARK    1  A    between atoms: C_1  and  C_2
REMARK    2  A    between atoms: C_2  and  C_10
REMARK    3  A    between atoms: C_3  and  C_4
REMARK    4  A    between atoms: N_11  and  N_12
REMARK    5  A    between atoms: N_15  and  C_16
REMARK    6  A    between atoms: C_16  and  C_17
REMARK    7  A    between atoms: C_20  and  C_21
REMARK                            x       y       z     vdW  Elec       q    Type
REMARK                         _______ _______ _______ _____ _____    ______ ____
ROOT
ATOM      1  N   UNL     1       1.442   8.642  19.420  0.00  0.00    +0.000 N 
ATOM      2  C   UNL     1       1.310   9.687  18.399  0.00  0.00    +0.000 C 
ATOM      3  C   UNL     1      -0.177  10.105  18.293  0.00  0.00    +0.000 C 
ATOM      4  N   UNL     1      -0.817  10.500  19.578  0.00  0.00    +0.000 NA
ATOM      5  C   UNL     1      -0.512   9.463  20.592  0.00  0.00    +0.000 C 
ATOM      6  C   UNL     1       0.984   9.129  20.726  0.00  0.00    +0.000 C 
ENDROOT
BRANCH   1   8
ATOM      7  C   UNL     1       2.535   7.245  18.144  0.00  0.00    +0.000 C 
ATOM      8  N   UNL     1       2.449   7.755  19.335  0.00  0.00    +0.000 NA
BRANCH   7  10
ATOM      9  C   UNL     1       4.615   6.896  16.766  0.00  0.00    +0.000 C 
ATOM     10  C   UNL     1       3.622   6.327  17.733  0.00  0.00    +0.000 C 
ATOM     11  C   UNL     1       3.684   5.066  18.185  0.00  0.00    +0.000 C 
BRANCH  11  12
ATOM     12  C   UNL     1       2.718   4.369  19.049  0.00  0.00    +0.000 A 
ATOM     13  C   UNL     1       1.703   3.594  18.482  0.00  0.00    +0.000 A 
ATOM     14  C   UNL     1       0.835   2.857  19.294  0.00  0.00    +0.000 A 
ATOM     15  C   UNL     1       0.978   2.899  20.680  0.00  0.00    +0.000 A 
ATOM     16  C   UNL     1       1.977   3.684  21.254  0.00  0.00    +0.000 A 
ATOM     17  C   UNL     1       2.847   4.421  20.441  0.00  0.00    +0.000 A 
ENDBRANCH  11  12
ENDBRANCH   7  10
ENDBRANCH   1   8
BRANCH   4  18
ATOM     18  C   UNL     1      -0.344  11.835  19.976  0.00  0.00    +0.000 C 
BRANCH  18  19
ATOM     19  C   UNL     1      -1.145  12.485  21.083  0.00  0.00    +0.000 A 
ATOM     20  C   UNL     1      -2.533  12.627  20.957  0.00  0.00    +0.000 A 
ATOM     21  C   UNL     1      -3.292  13.144  22.009  0.00  0.00    +0.000 A 
ATOM     22  C   UNL     1      -2.673  13.532  23.202  0.00  0.00    +0.000 A 
ATOM     23  C   UNL     1      -3.487  14.004  24.369  0.00  0.00    +0.000 C 
ATOM     24  C   UNL     1      -1.282  13.428  23.314  0.00  0.00    +0.000 A 
ATOM     25  C   UNL     1      -0.523  12.913  22.262  0.00  0.00    +0.000 A 
ENDBRANCH  18  19
ENDBRANCH   4  18
TORSDOF 5
ENDMDL
MODEL 4
REMARK VINA RESULT:      -7.2      0.785      1.585
REMARK  Name = 
REMARK  7 active torsions:
REMARK  status: ('A' for Active; 'I' for Inactive)
REMARK    1  A    between atoms: C_1  and  C_2
REMARK    2  A    between atoms: C_2  and  C_10
REMARK    3  A    between atoms: C_3  and  C_4
REMARK    4  A    between atoms: N_11  and  N_12
REMARK    5  A    between atoms: N_15  and  C_16
REMARK    6  A    between atoms: C_16  and  C_17
REMARK    7  A    between atoms: C_20  and  C_21
REMARK                            x       y       z     vdW  Elec       q    Type
REMARK                         _______ _______ _______ _____ _____    ______ ____
ROOT
ATOM      1  N   UNL     1       1.484   8.917  19.603  0.00  0.00    +0.000 N 
ATOM      2  C   UNL     1       1.127   8.251  20.862  0.00  0.00    +0.000 C 
ATOM      3  C   UNL     1       1.399   9.220  22.039  0.00  0.00    +0.000 C 
ATOM      4  N   UNL     1       0.761  10.559  21.918  0.00  0.00    +0.000 NA
ATOM      5  C   UNL     1       1.048  11.095  20.567  0.00  0.00    +0.000 C 
ATOM      6  C   UNL     1       0.692  10.138  19.417  0.00  0.00    +0.000 C 
ENDROOT
BRANCH   1   8
ATOM      7  C   UNL     1       2.936   7.496  18.800  0.00  0.00    +0.000 C 
ATOM      8  N   UNL     1       1.860   8.177  18.546  0.00  0.00    +0.000 NA
BRANCH   7  10
ATOM      9  C   UNL     1       4.283   7.087  16.710  0.00  0.00    +0.000 C 
ATOM     10  C   UNL     1       3.511   6.508  17.858  0.00  0.00    +0.000 C 
ATOM     11  C   UNL     1       3.324   5.190  18.021  0.00  0.00    +0.000 C 
BRANCH  11  12
ATOM     12  C   UNL     1       2.508   4.516  19.041  0.00  0.00    +0.000 A 
ATOM     13  C   UNL     1       1.453   3.683  18.657  0.00  0.00    +0.000 A 
ATOM     14  C   UNL     1       0.728   2.967  19.615  0.00  0.00    +0.000 A 
ATOM     15  C   UNL     1       1.053   3.088  20.965  0.00  0.00    +0.000 A 
ATOM     16  C   UNL     1       2.092   3.931  21.358  0.00  0.00    +0.000 A 
ATOM     17  C   UNL     1       2.819   4.647  20.399  0.00  0.00    +0.000 A 
ENDBRANCH  11  12
ENDBRANCH   7  10
ENDBRANCH   1   8
BRANCH   4  18
ATOM     18  C   UNL     1      -0.682  10.446  22.186  0.00  0.00    +0.000 C 
BRANCH  18  19
ATOM     19  C   UNL     1      -1.327  11.706  22.719  0.00  0.00    +0.000 A 
ATOM     20  C   UNL     1      -2.616  11.659  23.267  0.00  0.00    +0.000 A 
ATOM     21  C   UNL     1      -3.183  12.798  23.842  0.00  0.00    +0.000 A 
ATOM     22  C   UNL     1      -2.474  14.003  23.873  0.00  0.00    +0.000 A 
ATOM     23  C   UNL     1      -3.036  15.207  24.566  0.00  0.00    +0.000 C 
ATOM     24  C   UNL     1      -1.202  14.061  23.290  0.00  0.00    +0.000 A 
ATOM     25  C   UNL     1      -0.635  12.923  22.713  0.00  0.00    +0.000 A 
ENDBRANCH  18  19
ENDBRANCH   4  18
TORSDOF 5
ENDMDL
MODEL 5
REMARK VINA RESULT:      -7.2      2.522      3.392
REMARK  Name = 
REMARK  7 active torsions:
REMARK  status: ('A' for Active; 'I' for Inactive)
REMARK    1  A    between atoms: C_1  and  C_2
REMARK    2  A    between atoms: C_2  and  C_10
REMARK    3  A    between atoms: C_3  and  C_4
REMARK    4  A    between atoms: N_11  and  N_12
REMARK    5  A    between atoms: N_15  and  C_16
REMARK    6  A    between atoms: C_16  and  C_17
REMARK    7  A    between atoms: C_20  and  C_21
REMARK                            x       y       z     vdW  Elec       q    Type
REMARK                         _______ _______ _______ _____ _____    ______ ____
ROOT
ATOM      1  N   UNL     1       1.638   9.567  18.030  0.00  0.00    +0.000 N 
ATOM      2  C   UNL     1       0.212   9.322  17.782  0.00  0.00    +0.000 C 
ATOM      3  C   UNL     1      -0.595   9.719  19.042  0.00  0.00    +0.000 C 
ATOM      4  N   UNL     1      -0.348  11.098  19.545  0.00  0.00    +0.000 NA
ATOM      5  C   UNL     1       1.116  11.311  19.627  0.00  0.00    +0.000 C 
ATOM      6  C   UNL     1       1.878  10.982  18.332  0.00  0.00    +0.000 C 
ENDROOT
BRANCH   1   8
ATOM      7  C   UNL     1       2.866   7.760  18.026  0.00  0.00    +0.000 C 
ATOM      8  N   UNL     1       2.560   8.841  17.374  0.00  0.00    +0.000 NA
BRANCH   7  10
ATOM      9  C   UNL     1       4.752   7.185  16.456  0.00  0.00    +0.000 C 
ATOM     10  C   UNL     1       3.769   6.717  17.487  0.00  0.00    +0.000 C 
ATOM     11  C   UNL     1       3.684   5.440  17.887  0.00  0.00    +0.000 C 
BRANCH  11  12
ATOM     12  C   UNL     1       2.702   4.847  18.807  0.00  0.00    +0.000 A 
ATOM     13  C   UNL     1       1.727   3.971  18.323  0.00  0.00    +0.000 A 
ATOM     14  C   UNL     1       0.845   3.333  19.202  0.00  0.00    +0.000 A 
ATOM     15  C   UNL     1       0.934   3.577  20.572  0.00  0.00    +0.000 A 
ATOM     16  C   UNL     1       1.892   4.464  21.061  0.00  0.00    +0.000 A 
ATOM     17  C   UNL     1       2.775   5.101  20.182  0.00  0.00    +0.000 A 
ENDBRANCH  11  12
ENDBRANCH   7  10
ENDBRANCH   1   8
BRANCH   4  18
ATOM     18  C   UNL     1      -1.011  12.073  18.664  0.00  0.00    +0.000 C 
BRANCH  18  19
ATOM     19  C   UNL     1      -2.507  11.890  18.533  0.00  0.00    +0.000 A 
ATOM     20  C   UNL     1      -3.357  12.268  19.581  0.00  0.00    +0.000 A 
ATOM     21  C   UNL     1      -4.743  12.186  19.435  0.00  0.00    +0.000 A 
ATOM     22  C   UNL     1      -5.301  11.721  18.239  0.00  0.00    +0.000 A 
ATOM     23  C   UNL     1      -6.787  11.714  18.038  0.00  0.00    +0.000 C 
ATOM     24  C   UNL     1      -4.453  11.306  17.206  0.00  0.00    +0.000 A 
ATOM     25  C   UNL     1      -3.067  11.386  17.353  0.00  0.00    +0.000 A 
ENDBRANCH  18  19
ENDBRANCH   4  18
TORSDOF 5
ENDMDL
MODEL 6
REMARK VINA RESULT:      -7.1      0.956      1.403
REMARK  Name = 
REMARK  7 active torsions:
REMARK  status: ('A' for Active; 'I' for Inactive)
REMARK    1  A    between atoms: C_1  and  C_2
REMARK    2  A    between atoms: C_2  and  C_10
REMARK    3  A    between atoms: C_3  and  C_4
REMARK    4  A    between atoms: N_11  and  N_12
REMARK    5  A    between atoms: N_15  and  C_16
REMARK    6  A    between atoms: C_16  and  C_17
REMARK    7  A    between atoms: C_20  and  C_21
REMARK                            x       y       z     vdW  Elec       q    Type
REMARK                         _______ _______ _______ _____ _____    ______ ____
ROOT
ATOM      1  N   UNL     1       1.529   8.618  19.336  0.00  0.00    +0.000 N 
ATOM      2  C   UNL     1       1.336   9.649  18.308  0.00  0.00    +0.000 C 
ATOM      3  C   UNL     1      -0.169  10.004  18.225  0.00  0.00    +0.000 C 
ATOM      4  N   UNL     1      -0.802  10.383  19.517  0.00  0.00    +0.000 NA
ATOM      5  C   UNL     1      -0.438   9.368  20.534  0.00  0.00    +0.000 C 
ATOM      6  C   UNL     1       1.072   9.098  20.645  0.00  0.00    +0.000 C 
ENDROOT
BRANCH   1   8
ATOM      7  C   UNL     1       2.585   7.164  18.094  0.00  0.00    +0.000 C 
ATOM      8  N   UNL     1       2.570   7.773  19.241  0.00  0.00    +0.000 NA
BRANCH   7  10
ATOM      9  C   UNL     1       4.669   6.854  16.711  0.00  0.00    +0.000 C 
ATOM     10  C   UNL     1       3.681   6.262  17.670  0.00  0.00    +0.000 C 
ATOM     11  C   UNL     1       3.755   4.996  18.106  0.00  0.00    +0.000 C 
BRANCH  11  12
ATOM     12  C   UNL     1       2.797   4.279  18.960  0.00  0.00    +0.000 A 
ATOM     13  C   UNL     1       2.879   4.389  20.351  0.00  0.00    +0.000 A 
ATOM     14  C   UNL     1       1.919   3.784  21.169  0.00  0.00    +0.000 A 
ATOM     15  C   UNL     1       0.876   3.059  20.596  0.00  0.00    +0.000 A 
ATOM     16  C   UNL     1       0.797   2.929  19.209  0.00  0.00    +0.000 A 
ATOM     17  C   UNL     1       1.757   3.536  18.390  0.00  0.00    +0.000 A 
ENDBRANCH  11  12
ENDBRANCH   7  10
ENDBRANCH   1   8
BRANCH   4  18
ATOM     18  C   UNL     1      -0.379  11.740  19.897  0.00  0.00    +0.000 C 
BRANCH  18  19
ATOM     19  C   UNL     1      -1.173  12.357  21.026  0.00  0.00    +0.000 A 
ATOM     20  C   UNL     1      -0.533  12.732  22.215  0.00  0.00    +0.000 A 
ATOM     21  C   UNL     1      -1.240  13.383  23.228  0.00  0.00    +0.000 A 
ATOM     22  C   UNL     1      -2.601  13.665  23.070  0.00  0.00    +0.000 A 
ATOM     23  C   UNL     1      -3.349  14.442  24.111  0.00  0.00    +0.000 C 
ATOM     24  C   UNL     1      -3.252  13.256  21.899  0.00  0.00    +0.000 A 
ATOM     25  C   UNL     1      -2.545  12.603  20.888  0.00  0.00    +0.000 A 
ENDBRANCH  18  19
ENDBRANCH   4  18
TORSDOF 5
ENDMDL
MODEL 7
REMARK VINA RESULT:      -7.0      1.961      2.975
REMARK  Name = 
REMARK  7 active torsions:
REMARK  status: ('A' for Active; 'I' for Inactive)
REMARK    1  A    between atoms: C_1  and  C_2
REMARK    2  A    between atoms: C_2  and  C_10
REMARK    3  A    between atoms: C_3  and  C_4
REMARK    4  A    between atoms: N_11  and  N_12
REMARK    5  A    between atoms: N_15  and  C_16
REMARK    6  A    between atoms: C_16  and  C_17
REMARK    7  A    between atoms: C_20  and  C_21
REMARK                            x       y       z     vdW  Elec       q    Type
REMARK                         _______ _______ _______ _____ _____    ______ ____
ROOT
ATOM      1  N   UNL     1       2.487   7.827  18.948  0.00  0.00    +0.000 N 
ATOM      2  C   UNL     1       1.398   7.864  19.931  0.00  0.00    +0.000 C 
ATOM      3  C   UNL     1       1.104   9.338  20.302  0.00  0.00    +0.000 C 
ATOM      4  N   UNL     1       0.841  10.241  19.149  0.00  0.00    +0.000 NA
ATOM      5  C   UNL     1       1.906  10.034  18.139  0.00  0.00    +0.000 C 
ATOM      6  C   UNL     1       2.118   8.566  17.735  0.00  0.00    +0.000 C 
ENDROOT
BRANCH   1   8
ATOM      7  C   UNL     1       3.277   6.232  17.681  0.00  0.00    +0.000 C 
ATOM      8  N   UNL     1       3.278   6.742  18.875  0.00  0.00    +0.000 NA
BRANCH   7  10
ATOM      9  C   UNL     1       5.134   5.399  16.195  0.00  0.00    +0.000 C 
ATOM     10  C   UNL     1       4.147   5.101  17.282  0.00  0.00    +0.000 C 
ATOM     11  C   UNL     1       4.028   3.891  17.850  0.00  0.00    +0.000 C 
BRANCH  11  12
ATOM     12  C   UNL     1       3.037   3.456  18.845  0.00  0.00    +0.000 A 
ATOM     13  C   UNL     1       3.399   3.339  20.190  0.00  0.00    +0.000 A 
ATOM     14  C   UNL     1       2.443   3.012  21.156  0.00  0.00    +0.000 A 
ATOM     15  C   UNL     1       1.119   2.795  20.777  0.00  0.00    +0.000 A 
ATOM     16  C   UNL     1       0.753   2.892  19.435  0.00  0.00    +0.000 A 
ATOM     17  C   UNL     1       1.710   3.220  18.467  0.00  0.00    +0.000 A 
ENDBRANCH  11  12
ENDBRANCH   7  10
ENDBRANCH   1   8
BRANCH   4  18
ATOM     18  C   UNL     1      -0.504   9.981  18.612  0.00  0.00    +0.000 C 
BRANCH  18  19
ATOM     19  C   UNL     1      -1.563  10.965  19.054  0.00  0.00    +0.000 A 
ATOM     20  C   UNL     1      -2.772  11.062  18.351  0.00  0.00    +0.000 A 
ATOM     21  C   UNL     1      -3.790  11.904  18.803  0.00  0.00    +0.000 A 
ATOM     22  C   UNL     1      -3.615  12.665  19.963  0.00  0.00    +0.000 A 
ATOM     23  C   UNL     1      -4.733  13.502  20.508  0.00  0.00    +0.000 C 
ATOM     24  C   UNL     1      -2.393  12.599  20.645  0.00  0.00    +0.000 A 
ATOM     25  C   UNL     1      -1.374  11.759  20.191  0.00  0.00    +0.000 A 
ENDBRANCH  18  19
ENDBRANCH   4  18
TORSDOF 5
ENDMDL
MODEL 8
REMARK VINA RESULT:      -7.0      1.063      1.480
REMARK  Name = 
REMARK  7 active torsions:
REMARK  status: ('A' for Active; 'I' for Inactive)
REMARK    1  A    between atoms: C_1  and  C_2
REMARK    2  A    between atoms: C_2  and  C_10
REMARK    3  A    between atoms: C_3  and  C_4
REMARK    4  A    between atoms: N_11  and  N_12
REMARK    5  A    between atoms: N_15  and  C_16
REMARK    6  A    between atoms: C_16  and  C_17
REMARK    7  A    between atoms: C_20  and  C_21
REMARK                            x       y       z     vdW  Elec       q    Type
REMARK                         _______ _______ _______ _____ _____    ______ ____
ROOT
ATOM      1  N   UNL     1       1.652   8.255  19.748  0.00  0.00    +0.000 N 
ATOM      2  C   UNL     1       1.524   9.428  18.874  0.00  0.00    +0.000 C 
ATOM      3  C   UNL     1       0.051   9.906  18.886  0.00  0.00    +0.000 C 
ATOM      4  N   UNL     1      -0.523  10.155  20.236  0.00  0.00    +0.000 NA
ATOM      5  C   UNL     1      -0.221   8.986  21.097  0.00  0.00    +0.000 C 
ATOM      6  C   UNL     1       1.263   8.586  21.123  0.00  0.00    +0.000 C 
ENDROOT
BRANCH   1   8
ATOM      7  C   UNL     1       2.654   7.014  18.255  0.00  0.00    +0.000 C 
ATOM      8  N   UNL     1       2.619   7.352  19.508  0.00  0.00    +0.000 NA
BRANCH   7  10
ATOM      9  C   UNL     1       4.615   6.762  16.692  0.00  0.00    +0.000 C 
ATOM     10  C   UNL     1       3.691   6.123  17.684  0.00  0.00    +0.000 C 
ATOM     11  C   UNL     1       3.768   4.828  18.025  0.00  0.00    +0.000 C 
BRANCH  11  12
ATOM     12  C   UNL     1       2.862   4.071  18.902  0.00  0.00    +0.000 A 
ATOM     13  C   UNL     1       3.139   3.959  20.267  0.00  0.00    +0.000 A 
ATOM     14  C   UNL     1       2.239   3.318  21.124  0.00  0.00    +0.000 A 
ATOM     15  C   UNL     1       1.058   2.781  20.615  0.00  0.00    +0.000 A 
ATOM     16  C   UNL     1       0.782   2.873  19.251  0.00  0.00    +0.000 A 
ATOM     17  C   UNL     1       1.683   3.516  18.393  0.00  0.00    +0.000 A 
ENDBRANCH  11  12
ENDBRANCH   7  10
ENDBRANCH   1   8
BRANCH   4  18
ATOM     18  C   UNL     1       0.017  11.411  20.782  0.00  0.00    +0.000 C 
BRANCH  18  19
ATOM     19  C   UNL     1      -1.012  12.321  21.412  0.00  0.00    +0.000 A 
ATOM     20  C   UNL     1      -1.983  12.944  20.615  0.00  0.00    +0.000 A 
ATOM     21  C   UNL     1      -2.991  13.715  21.198  0.00  0.00    +0.000 A 
ATOM     22  C   UNL     1      -3.042  13.879  22.586  0.00  0.00    +0.000 A 
ATOM     23  C   UNL     1      -4.170  14.629  23.229  0.00  0.00    +0.000 C 
ATOM     24  C   UNL     1      -2.050  13.290  23.380  0.00  0.00    +0.000 A 
ATOM     25  C   UNL     1      -1.041  12.521  22.797  0.00  0.00    +0.000 A 
ENDBRANCH  18  19
ENDBRANCH   4  18
TORSDOF 5
ENDMDL
MODEL 9
REMARK VINA RESULT:      -7.0      0.913      1.158
REMARK  Name = 
REMARK  7 active torsions:
REMARK  status: ('A' for Active; 'I' for Inactive)
REMARK    1  A    between atoms: C_1  and  C_2
REMARK    2  A    between atoms: C_2  and  C_10
REMARK    3  A    between atoms: C_3  and  C_4
REMARK    4  A    between atoms: N_11  and  N_12
REMARK    5  A    between atoms: N_15  and  C_16
REMARK    6  A    between atoms: C_16  and  C_17
REMARK    7  A    between atoms: C_20  and  C_21
REMARK                            x       y       z     vdW  Elec       q    Type
REMARK                         _______ _______ _______ _____ _____    ______ ____
ROOT
ATOM      1  N   UNL     1       1.593   9.005  18.726  0.00  0.00    +0.000 N 
ATOM      2  C   UNL     1       1.054  10.226  18.115  0.00  0.00    +0.000 C 
ATOM      3  C   UNL     1      -0.451  10.340  18.460  0.00  0.00    +0.000 C 
ATOM      4  N   UNL     1      -0.778  10.253  19.909  0.00  0.00    +0.000 NA
ATOM      5  C   UNL     1      -0.077   9.078  20.479  0.00  0.00    +0.000 C 
ATOM      6  C   UNL     1       1.432   9.038  20.184  0.00  0.00    +0.000 C 
ENDROOT
BRANCH   1   8
ATOM      7  C   UNL     1       2.621   7.113  18.358  0.00  0.00    +0.000 C 
ATOM      8  N   UNL     1       2.654   8.397  18.167  0.00  0.00    +0.000 NA
BRANCH   7  10
ATOM      9  C   UNL     1       4.507   6.775  16.720  0.00  0.00    +0.000 C 
ATOM     10  C   UNL     1       3.602   6.180  17.757  0.00  0.00    +0.000 C 
ATOM     11  C   UNL     1       3.647   4.887  18.110  0.00  0.00    +0.000 C 
BRANCH  11  12
ATOM     12  C   UNL     1       2.752   4.172  19.031  0.00  0.00    +0.000 A 
ATOM     13  C   UNL     1       1.631   3.499  18.538  0.00  0.00    +0.000 A 
ATOM     14  C   UNL     1       0.823   2.743  19.393  0.00  0.00    +0.000 A 
ATOM     15  C   UNL     1       1.133   2.663  20.750  0.00  0.00    +0.000 A 
ATOM     16  C   UNL     1       2.239   3.347  21.254  0.00  0.00    +0.000 A 
ATOM     17  C   UNL     1       3.049   4.103  20.397  0.00  0.00    +0.000 A 
ENDBRANCH  11  12
ENDBRANCH   7  10
ENDBRANCH   1   8
BRANCH   4  18
ATOM     18  C   UNL     1      -0.405  11.511  20.577  0.00  0.00    +0.000 C 
BRANCH  18  19
ATOM     19  C   UNL     1      -1.525  12.173  21.349  0.00  0.00    +0.000 A 
ATOM     20  C   UNL     1      -1.804  11.776  22.664  0.00  0.00    +0.000 A 
ATOM     21  C   UNL     1      -2.776  12.441  23.414  0.00  0.00    +0.000 A 
ATOM     22  C   UNL     1      -3.487  13.510  22.860  0.00  0.00    +0.000 A 
ATOM     23  C   UNL     1      -4.468  14.288  23.685  0.00  0.00    +0.000 C 
ATOM     24  C   UNL     1      -3.237  13.882  21.534  0.00  0.00    +0.000 A 
ATOM     25  C   UNL     1      -2.267  13.216  20.783  0.00  0.00    +0.000 A 
ENDBRANCH  18  19
ENDBRANCH   4  18
TORSDOF 5
ENDMDL
