MODEL 1
REMARK VINA RESULT:      -6.8      0.000      0.000
REMARK  Name = 
REMARK  8 active torsions:
REMARK  status: ('A' for Active; 'I' for Inactive)
REMARK    1  A    between atoms: C_1  and  C_2
REMARK    2  A    between atoms: C_2  and  C_3
REMARK    3  A    between atoms: C_6  and  C_7
REMARK    4  A    between atoms: C_7  and  N_8
REMARK    5  A    between atoms: N_8  and  C_9
REMARK    6  A    between atoms: N_8  and  C_10
REMARK    7  A    between atoms: C_10  and  C_11
REMARK    8  A    between atoms: C_10  and  C_12
REMARK                            x       y       z     vdW  Elec       q    Type
REMARK                         _______ _______ _______ _____ _____    ______ ____
ROOT
ATOM      1  C   UNL     1       6.377   6.425  17.573  0.00  0.00    +0.000 C 
ATOM      2  C   UNL     1       7.309   7.636  17.354  0.00  0.00    +0.000 C 
ENDROOT
BRANCH   1   3
ATOM      3  C   UNL     1       4.851   6.804  17.402  0.00  0.00    +0.000 C 
ATOM      4  O   UNL     1       4.406   7.332  16.392  0.00  0.00    +0.000 OA
ATOM      5  N   UNL     1       3.995   6.516  18.471  0.00  0.00    +0.000 N 
ATOM      6  C   UNL     1       2.570   6.826  18.281  0.00  0.00    +0.000 C 
ATOM      7  C   UNL     1       1.647   6.407  19.425  0.00  0.00    +0.000 C 
ATOM      8  C   UNL     1       1.968   5.008  19.869  0.00  0.00    +0.000 A 
ATOM      9  C   UNL     1       0.979   4.114  20.270  0.00  0.00    +0.000 A 
ATOM     10  C   UNL     1       1.333   2.847  20.732  0.00  0.00    +0.000 A 
ATOM     11  C   UNL     1       2.676   2.475  20.805  0.00  0.00    +0.000 A 
ATOM     12  C   UNL     1       3.669   3.364  20.407  0.00  0.00    +0.000 A 
ATOM     13  C   UNL     1       3.317   4.633  19.932  0.00  0.00    +0.000 A 
ATOM     14  C   UNL     1       4.372   5.638  19.573  0.00  0.00    +0.000 C 
ENDBRANCH   1   3
BRANCH   1  15
ATOM     15  N   UNL     1       6.809   5.261  16.737  0.00  0.00    +0.000 NA
ATOM     16  C   UNL     1       7.604   4.297  17.501  0.00  0.00    +0.000 C 
BRANCH  15  17
ATOM     17  C   UNL     1       7.567   5.679  15.526  0.00  0.00    +0.000 C 
BRANCH  17  21
ATOM     18  C   UNL     1       6.148   3.573  12.563  0.00  0.00    +0.000 A 
ATOM     19  C   UNL     1       7.098   4.460  12.103  0.00  0.00    +0.000 A 
ATOM     20  N   UNL     1       7.686   5.251  13.065  0.00  0.00    +0.000 NA
ATOM     21  C   UNL     1       7.181   4.968  14.251  0.00  0.00    +0.000 A 
ATOM     22  S   UNL     1       6.021   3.699  14.269  0.00  0.00    +0.000 S 
BRANCH  18  24
ATOM     23  C   UNL     1       4.146   3.358  11.104  0.00  0.00    +0.000 C 
ATOM     24  C   UNL     1       5.296   2.629  11.785  0.00  0.00    +0.000 C 
ENDBRANCH  18  24
ENDBRANCH  17  21
ENDBRANCH  15  17
ENDBRANCH   1  15
TORSDOF 5
ENDMDL
MODEL 2
REMARK VINA RESULT:      -6.4      2.370      4.645
REMARK  Name = 
REMARK  8 active torsions:
REMARK  status: ('A' for Active; 'I' for Inactive)
REMARK    1  A    between atoms: C_1  and  C_2
REMARK    2  A    between atoms: C_2  and  C_3
REMARK    3  A    between atoms: C_6  and  C_7
REMARK    4  A    between atoms: C_7  and  N_8
REMARK    5  A    between atoms: N_8  and  C_9
REMARK    6  A    between atoms: N_8  and  C_10
REMARK    7  A    between atoms: C_10  and  C_11
REMARK    8  A    between atoms: C_10  and  C_12
REMARK                            x       y       z     vdW  Elec       q    Type
REMARK                         _______ _______ _______ _____ _____    ______ ____
ROOT
ATOM      1  C   UNL     1       2.407   3.913  19.524  0.00  0.00    +0.000 C 
ATOM      2  C   UNL     1       2.297   4.548  20.926  0.00  0.00    +0.000 C 
ENDROOT
BRANCH   1   3
ATOM      3  C   UNL     1       1.944   4.902  18.379  0.00  0.00    +0.000 C 
ATOM      4  O   UNL     1       1.416   4.521  17.343  0.00  0.00    +0.000 OA
ATOM      5  N   UNL     1       2.164   6.269  18.585  0.00  0.00    +0.000 N 
ATOM      6  C   UNL     1       1.683   7.182  17.537  0.00  0.00    +0.000 C 
ATOM      7  C   UNL     1       1.846   8.672  17.838  0.00  0.00    +0.000 C 
ATOM      8  C   UNL     1       1.397   8.975  19.239  0.00  0.00    +0.000 A 
ATOM      9  C   UNL     1       0.732  10.154  19.564  0.00  0.00    +0.000 A 
ATOM     10  C   UNL     1       0.390  10.416  20.891  0.00  0.00    +0.000 A 
ATOM     11  C   UNL     1       0.720   9.506  21.895  0.00  0.00    +0.000 A 
ATOM     12  C   UNL     1       1.385   8.326  21.576  0.00  0.00    +0.000 A 
ATOM     13  C   UNL     1       1.721   8.054  20.246  0.00  0.00    +0.000 A 
ATOM     14  C   UNL     1       2.508   6.828  19.887  0.00  0.00    +0.000 C 
ENDBRANCH   1   3
BRANCH   1  15
ATOM     15  N   UNL     1       3.768   3.330  19.307  0.00  0.00    +0.000 NA
ATOM     16  C   UNL     1       4.053   2.233  20.235  0.00  0.00    +0.000 C 
BRANCH  15  17
ATOM     17  C   UNL     1       4.847   4.351  19.399  0.00  0.00    +0.000 C 
BRANCH  17  21
ATOM     18  C   UNL     1       6.697   4.648  15.977  0.00  0.00    +0.000 A 
ATOM     19  C   UNL     1       7.612   4.571  17.006  0.00  0.00    +0.000 A 
ATOM     20  N   UNL     1       7.075   4.445  18.268  0.00  0.00    +0.000 NA
ATOM     21  C   UNL     1       5.757   4.432  18.197  0.00  0.00    +0.000 A 
ATOM     22  S   UNL     1       5.109   4.509  16.607  0.00  0.00    +0.000 S 
BRANCH  18  24
ATOM     23  C   UNL     1       6.164   3.834  13.689  0.00  0.00    +0.000 C 
ATOM     24  C   UNL     1       6.944   4.843  14.519  0.00  0.00    +0.000 C 
ENDBRANCH  18  24
ENDBRANCH  17  21
ENDBRANCH  15  17
ENDBRANCH   1  15
TORSDOF 5
ENDMDL
MODEL 3
REMARK VINA RESULT:      -6.4      1.061      1.193
REMARK  Name = 
REMARK  8 active torsions:
REMARK  status: ('A' for Active; 'I' for Inactive)
REMARK    1  A    between atoms: C_1  and  C_2
REMARK    2  A    between atoms: C_2  and  C_3
REMARK    3  A    between atoms: C_6  and  C_7
REMARK    4  A    between atoms: C_7  and  N_8
REMARK    5  A    between atoms: N_8  and  C_9
REMARK    6  A    between atoms: N_8  and  C_10
REMARK    7  A    between atoms: C_10  and  C_11
REMARK    8  A    between atoms: C_10  and  C_12
REMARK                            x       y       z     vdW  Elec       q    Type
REMARK                         _______ _______ _______ _____ _____    ______ ____
ROOT
ATOM      1  C   UNL     1       6.219   6.220  17.747  0.00  0.00    +0.000 C 
ATOM      2  C   UNL     1       7.259   7.327  17.479  0.00  0.00    +0.000 C 
ENDROOT
BRANCH   1   3
ATOM      3  C   UNL     1       4.796   6.809  18.108  0.00  0.00    +0.000 C 
ATOM      4  O   UNL     1       4.362   7.844  17.623  0.00  0.00    +0.000 OA
ATOM      5  N   UNL     1       4.022   6.095  19.030  0.00  0.00    +0.000 N 
ATOM      6  C   UNL     1       2.680   6.625  19.318  0.00  0.00    +0.000 C 
ATOM      7  C   UNL     1       1.822   5.769  20.250  0.00  0.00    +0.000 C 
ATOM      8  C   UNL     1       1.891   4.324  19.844  0.00  0.00    +0.000 A 
ATOM      9  C   UNL     1       0.788   3.479  19.926  0.00  0.00    +0.000 A 
ATOM     10  C   UNL     1       0.919   2.130  19.595  0.00  0.00    +0.000 A 
ATOM     11  C   UNL     1       2.155   1.622  19.193  0.00  0.00    +0.000 A 
ATOM     12  C   UNL     1       3.261   2.462  19.111  0.00  0.00    +0.000 A 
ATOM     13  C   UNL     1       3.131   3.817  19.431  0.00  0.00    +0.000 A 
ATOM     14  C   UNL     1       4.326   4.725  19.427  0.00  0.00    +0.000 C 
ENDBRANCH   1   3
BRANCH   1  15
ATOM     15  N   UNL     1       6.197   5.226  16.628  0.00  0.00    +0.000 NA
ATOM     16  C   UNL     1       7.387   4.371  16.626  0.00  0.00    +0.000 C 
BRANCH  15  17
ATOM     17  C   UNL     1       6.048   5.871  15.295  0.00  0.00    +0.000 C 
BRANCH  17  21
ATOM     18  C   UNL     1       6.123   3.301  12.360  0.00  0.00    +0.000 A 
ATOM     19  C   UNL     1       7.226   4.125  12.298  0.00  0.00    +0.000 A 
ATOM     20  N   UNL     1       7.319   5.068  13.297  0.00  0.00    +0.000 NA
ATOM     21  C   UNL     1       6.287   4.963  14.113  0.00  0.00    +0.000 A 
ATOM     22  S   UNL     1       5.193   3.688  13.748  0.00  0.00    +0.000 S 
BRANCH  18  24
ATOM     23  C   UNL     1       6.877   1.346  11.023  0.00  0.00    +0.000 C 
ATOM     24  C   UNL     1       5.701   2.229  11.413  0.00  0.00    +0.000 C 
ENDBRANCH  18  24
ENDBRANCH  17  21
ENDBRANCH  15  17
ENDBRANCH   1  15
TORSDOF 5
ENDMDL
MODEL 4
REMARK VINA RESULT:      -6.4      1.142      1.371
REMARK  Name = 
REMARK  8 active torsions:
REMARK  status: ('A' for Active; 'I' for Inactive)
REMARK    1  A    between atoms: C_1  and  C_2
REMARK    2  A    between atoms: C_2  and  C_3
REMARK    3  A    between atoms: C_6  and  C_7
REMARK    4  A    between atoms: C_7  and  N_8
REMARK    5  A    between atoms: N_8  and  C_9
REMARK    6  A    between atoms: N_8  and  C_10
REMARK    7  A    between atoms: C_10  and  C_11
REMARK    8  A    between atoms: C_10  and  C_12
REMARK                            x       y       z     vdW  Elec       q    Type
REMARK                         _______ _______ _______ _____ _____    ______ ____
ROOT
ATOM      1  C   UNL     1       6.088   5.933  17.575  0.00  0.00    +0.000 C 
ATOM      2  C   UNL     1       7.286   6.139  18.526  0.00  0.00    +0.000 C 
ENDROOT
BRANCH   1   3
ATOM      3  C   UNL     1       4.760   6.589  18.132  0.00  0.00    +0.000 C 
ATOM      4  O   UNL     1       4.390   7.711  17.814  0.00  0.00    +0.000 OA
ATOM      5  N   UNL     1       3.998   5.832  19.028  0.00  0.00    +0.000 N 
ATOM      6  C   UNL     1       2.740   6.432  19.498  0.00  0.00    +0.000 C 
ATOM      7  C   UNL     1       1.881   5.541  20.395  0.00  0.00    +0.000 C 
ATOM      8  C   UNL     1       1.780   4.158  19.816  0.00  0.00    +0.000 A 
ATOM      9  C   UNL     1       0.612   3.406  19.895  0.00  0.00    +0.000 A 
ATOM     10  C   UNL     1       0.588   2.104  19.396  0.00  0.00    +0.000 A 
ATOM     11  C   UNL     1       1.734   1.548  18.826  0.00  0.00    +0.000 A 
ATOM     12  C   UNL     1       2.905   2.295  18.744  0.00  0.00    +0.000 A 
ATOM     13  C   UNL     1       2.930   3.605  19.234  0.00  0.00    +0.000 A 
ATOM     14  C   UNL     1       4.202   4.403  19.230  0.00  0.00    +0.000 C 
ENDBRANCH   1   3
BRANCH   1  15
ATOM     15  N   UNL     1       6.435   6.355  16.182  0.00  0.00    +0.000 NA
ATOM     16  C   UNL     1       5.268   6.343  15.295  0.00  0.00    +0.000 C 
BRANCH  15  17
ATOM     17  C   UNL     1       7.517   5.524  15.587  0.00  0.00    +0.000 C 
BRANCH  17  21
ATOM     18  C   UNL     1       6.196   3.544  12.495  0.00  0.00    +0.000 A 
ATOM     19  C   UNL     1       7.155   4.453  12.103  0.00  0.00    +0.000 A 
ATOM     20  N   UNL     1       7.711   5.203  13.115  0.00  0.00    +0.000 NA
ATOM     21  C   UNL     1       7.172   4.867  14.272  0.00  0.00    +0.000 A 
ATOM     22  S   UNL     1       6.018   3.595  14.200  0.00  0.00    +0.000 S 
BRANCH  18  24
ATOM     23  C   UNL     1       4.043   3.275  11.280  0.00  0.00    +0.000 C 
ATOM     24  C   UNL     1       5.371   2.631  11.652  0.00  0.00    +0.000 C 
ENDBRANCH  18  24
ENDBRANCH  17  21
ENDBRANCH  15  17
ENDBRANCH   1  15
TORSDOF 5
ENDMDL
MODEL 5
REMARK VINA RESULT:      -6.2      3.070      6.938
REMARK  Name = 
REMARK  8 active torsions:
REMARK  status: ('A' for Active; 'I' for Inactive)
REMARK    1  A    between atoms: C_1  and  C_2
REMARK    2  A    between atoms: C_2  and  C_3
REMARK    3  A    between atoms: C_6  and  C_7
REMARK    4  A    between atoms: C_7  and  N_8
REMARK    5  A    between atoms: N_8  and  C_9
REMARK    6  A    between atoms: N_8  and  C_10
REMARK    7  A    between atoms: C_10  and  C_11
REMARK    8  A    between atoms: C_10  and  C_12
REMARK                            x       y       z     vdW  Elec       q    Type
REMARK                         _______ _______ _______ _____ _____    ______ ____
ROOT
ATOM      1  C   UNL     1       2.228   2.768  19.085  0.00  0.00    +0.000 C 
ATOM      2  C   UNL     1       0.726   2.470  19.274  0.00  0.00    +0.000 C 
ENDROOT
BRANCH   1   3
ATOM      3  C   UNL     1       2.543   3.379  17.660  0.00  0.00    +0.000 C 
ATOM      4  O   UNL     1       1.670   3.675  16.855  0.00  0.00    +0.000 OA
ATOM      5  N   UNL     1       3.888   3.576  17.330  0.00  0.00    +0.000 N 
ATOM      6  C   UNL     1       4.166   4.192  16.023  0.00  0.00    +0.000 C 
ATOM      7  C   UNL     1       5.638   4.487  15.735  0.00  0.00    +0.000 C 
ATOM      8  C   UNL     1       6.284   5.137  16.926  0.00  0.00    +0.000 A 
ATOM      9  C   UNL     1       7.244   6.136  16.793  0.00  0.00    +0.000 A 
ATOM     10  C   UNL     1       7.859   6.665  17.928  0.00  0.00    +0.000 A 
ATOM     11  C   UNL     1       7.522   6.189  19.196  0.00  0.00    +0.000 A 
ATOM     12  C   UNL     1       6.564   5.190  19.335  0.00  0.00    +0.000 A 
ATOM     13  C   UNL     1       5.938   4.664  18.200  0.00  0.00    +0.000 A 
ATOM     14  C   UNL     1       4.960   3.531  18.317  0.00  0.00    +0.000 C 
ENDBRANCH   1   3
BRANCH   1  15
ATOM     15  N   UNL     1       2.758   3.581  20.224  0.00  0.00    +0.000 NA
ATOM     16  C   UNL     1       3.362   2.746  21.265  0.00  0.00    +0.000 C 
BRANCH  15  17
ATOM     17  C   UNL     1       1.720   4.458  20.831  0.00  0.00    +0.000 C 
BRANCH  17  21
ATOM     18  C   UNL     1       2.063   7.988  19.203  0.00  0.00    +0.000 A 
ATOM     19  C   UNL     1       1.458   8.091  20.438  0.00  0.00    +0.000 A 
ATOM     20  N   UNL     1       1.297   6.905  21.120  0.00  0.00    +0.000 NA
ATOM     21  C   UNL     1       1.774   5.906  20.404  0.00  0.00    +0.000 A 
ATOM     22  S   UNL     1       2.490   6.354  18.906  0.00  0.00    +0.000 S 
BRANCH  18  24
ATOM     23  C   UNL     1       1.172  10.044  18.126  0.00  0.00    +0.000 C 
ATOM     24  C   UNL     1       2.330   9.059  18.201  0.00  0.00    +0.000 C 
ENDBRANCH  18  24
ENDBRANCH  17  21
ENDBRANCH  15  17
ENDBRANCH   1  15
TORSDOF 5
ENDMDL
MODEL 6
REMARK VINA RESULT:      -6.2      2.526      4.273
REMARK  Name = 
REMARK  8 active torsions:
REMARK  status: ('A' for Active; 'I' for Inactive)
REMARK    1  A    between atoms: C_1  and  C_2
REMARK    2  A    between atoms: C_2  and  C_3
REMARK    3  A    between atoms: C_6  and  C_7
REMARK    4  A    between atoms: C_7  and  N_8
REMARK    5  A    between atoms: N_8  and  C_9
REMARK    6  A    between atoms: N_8  and  C_10
REMARK    7  A    between atoms: C_10  and  C_11
REMARK    8  A    between atoms: C_10  and  C_12
REMARK                            x       y       z     vdW  Elec       q    Type
REMARK                         _______ _______ _______ _____ _____    ______ ____
ROOT
ATOM      1  C   UNL     1       3.664   5.434  17.746  0.00  0.00    +0.000 C 
ATOM      2  C   UNL     1       3.605   3.930  17.405  0.00  0.00    +0.000 C 
ENDROOT
BRANCH   1   3
ATOM      3  C   UNL     1       3.194   5.733  19.227  0.00  0.00    +0.000 C 
ATOM      4  O   UNL     1       3.669   5.166  20.202  0.00  0.00    +0.000 OA
ATOM      5  N   UNL     1       2.187   6.688  19.399  0.00  0.00    +0.000 N 
ATOM      6  C   UNL     1       1.795   6.995  20.784  0.00  0.00    +0.000 C 
ATOM      7  C   UNL     1       0.767   8.114  20.944  0.00  0.00    +0.000 C 
ATOM      8  C   UNL     1       1.135   9.290  20.084  0.00  0.00    +0.000 A 
ATOM      9  C   UNL     1       0.932  10.603  20.499  0.00  0.00    +0.000 A 
ATOM     10  C   UNL     1       1.234  11.658  19.639  0.00  0.00    +0.000 A 
ATOM     11  C   UNL     1       1.730  11.403  18.360  0.00  0.00    +0.000 A 
ATOM     12  C   UNL     1       1.935  10.093  17.940  0.00  0.00    +0.000 A 
ATOM     13  C   UNL     1       1.643   9.032  18.803  0.00  0.00    +0.000 A 
ATOM     14  C   UNL     1       1.779   7.609  18.344  0.00  0.00    +0.000 C 
ENDBRANCH   1   3
BRANCH   1  15
ATOM     15  N   UNL     1       5.006   6.006  17.409  0.00  0.00    +0.000 NA
ATOM     16  C   UNL     1       4.954   6.885  16.239  0.00  0.00    +0.000 C 
BRANCH  15  17
ATOM     17  C   UNL     1       6.036   4.953  17.193  0.00  0.00    +0.000 C 
BRANCH  17  21
ATOM     18  C   UNL     1       6.645   4.124  13.429  0.00  0.00    +0.000 A 
ATOM     19  C   UNL     1       7.582   5.034  13.873  0.00  0.00    +0.000 A 
ATOM     20  N   UNL     1       7.478   5.392  15.199  0.00  0.00    +0.000 NA
ATOM     21  C   UNL     1       6.464   4.760  15.758  0.00  0.00    +0.000 A 
ATOM     22  S   UNL     1       5.628   3.664  14.730  0.00  0.00    +0.000 S 
BRANCH  18  24
ATOM     23  C   UNL     1       5.012   3.124  11.844  0.00  0.00    +0.000 C 
ATOM     24  C   UNL     1       6.448   3.581  12.055  0.00  0.00    +0.000 C 
ENDBRANCH  18  24
ENDBRANCH  17  21
ENDBRANCH  15  17
ENDBRANCH   1  15
TORSDOF 5
ENDMDL
MODEL 7
REMARK VINA RESULT:      -6.1      5.588      8.344
REMARK  Name = 
REMARK  8 active torsions:
REMARK  status: ('A' for Active; 'I' for Inactive)
REMARK    1  A    between atoms: C_1  and  C_2
REMARK    2  A    between atoms: C_2  and  C_3
REMARK    3  A    between atoms: C_6  and  C_7
REMARK    4  A    between atoms: C_7  and  N_8
REMARK    5  A    between atoms: N_8  and  C_9
REMARK    6  A    between atoms: N_8  and  C_10
REMARK    7  A    between atoms: C_10  and  C_11
REMARK    8  A    between atoms: C_10  and  C_12
REMARK                            x       y       z     vdW  Elec       q    Type
REMARK                         _______ _______ _______ _____ _____    ______ ____
ROOT
ATOM      1  C   UNL     1       1.099   9.912  19.009  0.00  0.00    +0.000 C 
ATOM      2  C   UNL     1       2.149   9.976  17.880  0.00  0.00    +0.000 C 
ENDROOT
BRANCH   1   3
ATOM      3  C   UNL     1      -0.354  10.274  18.497  0.00  0.00    +0.000 C 
ATOM      4  O   UNL     1      -0.904   9.678  17.581  0.00  0.00    +0.000 OA
ATOM      5  N   UNL     1      -1.014  11.330  19.135  0.00  0.00    +0.000 N 
ATOM      6  C   UNL     1      -2.383  11.623  18.685  0.00  0.00    +0.000 C 
ATOM      7  C   UNL     1      -3.114  12.713  19.469  0.00  0.00    +0.000 C 
ATOM      8  C   UNL     1      -2.932  12.506  20.946  0.00  0.00    +0.000 A 
ATOM      9  C   UNL     1      -3.947  12.769  21.861  0.00  0.00    +0.000 A 
ATOM     10  C   UNL     1      -3.708  12.619  23.227  0.00  0.00    +0.000 A 
ATOM     11  C   UNL     1      -2.452  12.217  23.681  0.00  0.00    +0.000 A 
ATOM     12  C   UNL     1      -1.433  11.954  22.771  0.00  0.00    +0.000 A 
ATOM     13  C   UNL     1      -1.671  12.092  21.400  0.00  0.00    +0.000 A 
ATOM     14  C   UNL     1      -0.566  11.892  20.404  0.00  0.00    +0.000 C 
ENDBRANCH   1   3
BRANCH   1  15
ATOM     15  N   UNL     1       1.176   8.607  19.738  0.00  0.00    +0.000 NA
ATOM     16  C   UNL     1       1.085   8.779  21.190  0.00  0.00    +0.000 C 
BRANCH  15  17
ATOM     17  C   UNL     1       2.409   7.841  19.406  0.00  0.00    +0.000 C 
BRANCH  17  21
ATOM     18  C   UNL     1       1.794   3.989  19.515  0.00  0.00    +0.000 A 
ATOM     19  C   UNL     1       1.925   4.412  18.209  0.00  0.00    +0.000 A 
ATOM     20  N   UNL     1       2.163   5.759  18.043  0.00  0.00    +0.000 NA
ATOM     21  C   UNL     1       2.209   6.356  19.219  0.00  0.00    +0.000 A 
ATOM     22  S   UNL     1       2.026   5.316  20.576  0.00  0.00    +0.000 S 
BRANCH  18  24
ATOM     23  C   UNL     1       1.520   2.587  21.549  0.00  0.00    +0.000 C 
ATOM     24  C   UNL     1       1.479   2.625  20.028  0.00  0.00    +0.000 C 
ENDBRANCH  18  24
ENDBRANCH  17  21
ENDBRANCH  15  17
ENDBRANCH   1  15
TORSDOF 5
ENDMDL
MODEL 8
REMARK VINA RESULT:      -6.0      7.368     10.005
REMARK  Name = 
REMARK  8 active torsions:
REMARK  status: ('A' for Active; 'I' for Inactive)
REMARK    1  A    between atoms: C_1  and  C_2
REMARK    2  A    between atoms: C_2  and  C_3
REMARK    3  A    between atoms: C_6  and  C_7
REMARK    4  A    between atoms: C_7  and  N_8
REMARK    5  A    between atoms: N_8  and  C_9
REMARK    6  A    between atoms: N_8  and  C_10
REMARK    7  A    between atoms: C_10  and  C_11
REMARK    8  A    between atoms: C_10  and  C_12
REMARK                            x       y       z     vdW  Elec       q    Type
REMARK                         _______ _______ _______ _____ _____    ______ ____
ROOT
ATOM      1  C   UNL     1      -1.331  11.861  19.117  0.00  0.00    +0.000 C 
ATOM      2  C   UNL     1      -0.767  12.944  18.175  0.00  0.00    +0.000 C 
ENDROOT
BRANCH   1   3
ATOM      3  C   UNL     1      -2.485  11.017  18.439  0.00  0.00    +0.000 C 
ATOM      4  O   UNL     1      -2.278   9.978  17.827  0.00  0.00    +0.000 OA
ATOM      5  N   UNL     1      -3.791  11.507  18.556  0.00  0.00    +0.000 N 
ATOM      6  C   UNL     1      -4.860  10.687  17.965  0.00  0.00    +0.000 C 
ATOM      7  C   UNL     1      -6.283  11.196  18.198  0.00  0.00    +0.000 C 
ATOM      8  C   UNL     1      -6.468  11.593  19.635  0.00  0.00    +0.000 A 
ATOM      9  C   UNL     1      -7.663  11.374  20.315  0.00  0.00    +0.000 A 
ATOM     10  C   UNL     1      -7.806  11.816  21.630  0.00  0.00    +0.000 A 
ATOM     11  C   UNL     1      -6.759  12.487  22.264  0.00  0.00    +0.000 A 
ATOM     12  C   UNL     1      -5.563  12.709  21.589  0.00  0.00    +0.000 A 
ATOM     13  C   UNL     1      -5.412  12.258  20.273  0.00  0.00    +0.000 A 
ATOM     14  C   UNL     1      -4.162  12.556  19.498  0.00  0.00    +0.000 C 
ENDBRANCH   1   3
BRANCH   1  15
ATOM     15  N   UNL     1      -0.230  11.027  19.693  0.00  0.00    +0.000 NA
ATOM     16  C   UNL     1       0.176  11.491  21.022  0.00  0.00    +0.000 C 
BRANCH  15  17
ATOM     17  C   UNL     1       0.962  10.965  18.804  0.00  0.00    +0.000 C 
BRANCH  17  21
ATOM     18  C   UNL     1       2.382   7.338  19.043  0.00  0.00    +0.000 A 
ATOM     19  C   UNL     1       2.639   7.867  17.796  0.00  0.00    +0.000 A 
ATOM     20  N   UNL     1       2.198   9.157  17.597  0.00  0.00    +0.000 NA
ATOM     21  C   UNL     1       1.604   9.603  18.688  0.00  0.00    +0.000 A 
ATOM     22  S   UNL     1       1.603   8.514  20.018  0.00  0.00    +0.000 S 
BRANCH  18  24
ATOM     23  C   UNL     1       1.619   5.520  20.558  0.00  0.00    +0.000 C 
ATOM     24  C   UNL     1       2.673   5.968  19.555  0.00  0.00    +0.000 C 
ENDBRANCH  18  24
ENDBRANCH  17  21
ENDBRANCH  15  17
ENDBRANCH   1  15
TORSDOF 5
ENDMDL
MODEL 9
REMARK VINA RESULT:      -6.0      6.687      9.403
REMARK  Name = 
REMARK  8 active torsions:
REMARK  status: ('A' for Active; 'I' for Inactive)
REMARK    1  A    between atoms: C_1  and  C_2
REMARK    2  A    between atoms: C_2  and  C_3
REMARK    3  A    between atoms: C_6  and  C_7
REMARK    4  A    between atoms: C_7  and  N_8
REMARK    5  A    between atoms: N_8  and  C_9
REMARK    6  A    between atoms: N_8  and  C_10
REMARK    7  A    between atoms: C_10  and  C_11
REMARK    8  A    between atoms: C_10  and  C_12
REMARK                            x       y       z     vdW  Elec       q    Type
REMARK                         _______ _______ _______ _____ _____    ______ ____
ROOT
ATOM      1  C   UNL     1      -0.572  11.084  19.425  0.00  0.00    +0.000 C 
ATOM      2  C   UNL     1       0.629  11.953  18.998  0.00  0.00    +0.000 C 
ENDROOT
BRANCH   1   3
ATOM      3  C   UNL     1      -1.487  10.682  18.199  0.00  0.00    +0.000 C 
ATOM      4  O   UNL     1      -1.192   9.791  17.413  0.00  0.00    +0.000 OA
ATOM      5  N   UNL     1      -2.679  11.394  18.027  0.00  0.00    +0.000 N 
ATOM      6  C   UNL     1      -3.545  10.977  16.914  0.00  0.00    +0.000 C 
ATOM      7  C   UNL     1      -4.885  11.706  16.814  0.00  0.00    +0.000 C 
ATOM      8  C   UNL     1      -5.536  11.792  18.165  0.00  0.00    +0.000 A 
ATOM      9  C   UNL     1      -6.913  11.678  18.332  0.00  0.00    +0.000 A 
ATOM     10  C   UNL     1      -7.475  11.826  19.600  0.00  0.00    +0.000 A 
ATOM     11  C   UNL     1      -6.662  12.097  20.702  0.00  0.00    +0.000 A 
ATOM     12  C   UNL     1      -5.285  12.212  20.541  0.00  0.00    +0.000 A 
ATOM     13  C   UNL     1      -4.717  12.054  19.273  0.00  0.00    +0.000 A 
ATOM     14  C   UNL     1      -3.244  12.253  19.061  0.00  0.00    +0.000 C 
ENDBRANCH   1   3
BRANCH   1  15
ATOM     15  N   UNL     1      -0.122   9.921  20.253  0.00  0.00    +0.000 NA
ATOM     16  C   UNL     1      -0.516  10.057  21.657  0.00  0.00    +0.000 C 
BRANCH  15  17
ATOM     17  C   UNL     1       1.347   9.696  20.169  0.00  0.00    +0.000 C 
BRANCH  17  21
ATOM     18  C   UNL     1       2.619   6.330  18.659  0.00  0.00    +0.000 A 
ATOM     19  C   UNL     1       2.184   6.136  19.954  0.00  0.00    +0.000 A 
ATOM     20  N   UNL     1       1.694   7.256  20.588  0.00  0.00    +0.000 NA
ATOM     21  C   UNL     1       1.760   8.297  19.780  0.00  0.00    +0.000 A 
ATOM     22  S   UNL     1       2.358   7.962  18.203  0.00  0.00    +0.000 S 
BRANCH  18  24
ATOM     23  C   UNL     1       3.930   4.225  18.491  0.00  0.00    +0.000 C 
ATOM     24  C   UNL     1       3.248   5.351  17.728  0.00  0.00    +0.000 C 
ENDBRANCH  18  24
ENDBRANCH  17  21
ENDBRANCH  15  17
ENDBRANCH   1  15
TORSDOF 5
ENDMDL
