MODEL 1
REMARK VINA RESULT:      -8.6      0.000      0.000
REMARK  Name = 
REMARK  4 active torsions:
REMARK  status: ('A' for Active; 'I' for Inactive)
REMARK    1  A    between atoms: C_5  and  C_6
REMARK    2  A    between atoms: C_9  and  N_10
REMARK    3  A    between atoms: N_10  and  C_11
REMARK    4  A    between atoms: C_20  and  C_21
REMARK                            x       y       z     vdW  Elec       q    Type
REMARK                         _______ _______ _______ _____ _____    ______ ____
ROOT
ATOM      1  C   UNL     1       2.531   6.820  18.867  0.00  0.00    +0.000 A 
ATOM      2  N   UNL     1       2.290   8.126  18.639  0.00  0.00    +0.000 NA
ATOM      3  N   UNL     1       1.520   8.553  19.684  0.00  0.00    +0.000 N 
ATOM      4  C   UNL     1       1.039   9.885  19.900  0.00  0.00    +0.000 A 
ATOM      5  C   UNL     1       0.300  10.121  21.002  0.00  0.00    +0.000 A 
ATOM      6  C   UNL     1      -0.025   9.038  21.906  0.00  0.00    +0.000 A 
ATOM      7  C   UNL     1       0.414   7.785  21.692  0.00  0.00    +0.000 A 
ATOM      8  C   UNL     1       1.251   7.505  20.570  0.00  0.00    +0.000 A 
ATOM      9  C   UNL     1       1.864   6.385  20.051  0.00  0.00    +0.000 A 
ENDROOT
BRANCH   1  14
ATOM     10  F   UNL     1       6.004   3.892  15.548  0.00  0.00    +0.000 F 
ATOM     11  C   UNL     1       5.164   4.596  16.318  0.00  0.00    +0.000 A 
ATOM     12  C   UNL     1       5.424   5.936  16.565  0.00  0.00    +0.000 A 
ATOM     13  C   UNL     1       4.543   6.671  17.364  0.00  0.00    +0.000 A 
ATOM     14  C   UNL     1       3.427   6.065  17.970  0.00  0.00    +0.000 A 
ATOM     15  C   UNL     1       3.176   4.712  17.680  0.00  0.00    +0.000 A 
ATOM     16  C   UNL     1       4.040   3.982  16.854  0.00  0.00    +0.000 A 
ENDBRANCH   1  14
BRANCH   9  17
ATOM     17  C   UNL     1       1.797   5.010  20.622  0.00  0.00    +0.000 A 
ATOM     18  C   UNL     1       0.931   3.995  20.278  0.00  0.00    +0.000 A 
ATOM     19  C   UNL     1       1.263   2.937  21.140  0.00  0.00    +0.000 A 
ATOM     20  N   UNL     1       2.266   3.253  21.956  0.00  0.00    +0.000 NA
ATOM     21  O   UNL     1       2.597   4.557  21.635  0.00  0.00    +0.000 OA
ENDBRANCH   9  17
BRANCH   4  22
ATOM     22  N   UNL     1       1.311  10.857  18.932  0.00  0.00    +0.000 N 
ATOM     23  H   UNL     1       1.945  10.454  18.232  0.00  0.00    +0.000 HD
BRANCH  22  24
ATOM     24  C   UNL     1       1.691  12.228  19.265  0.00  0.00    +0.000 C 
ATOM     25  C   UNL     1       2.654  12.784  18.220  0.00  0.00    +0.000 C 
ATOM     26  C   UNL     1       2.431  14.287  18.232  0.00  0.00    +0.000 C 
ATOM     27  C   UNL     1       0.996  14.500  18.698  0.00  0.00    +0.000 C 
ATOM     28  C   UNL     1       0.474  13.148  19.175  0.00  0.00    +0.000 C 
ENDBRANCH  22  24
ENDBRANCH   4  22
TORSDOF 4
ENDMDL
MODEL 2
REMARK VINA RESULT:      -8.4      1.243      1.710
REMARK  Name = 
REMARK  4 active torsions:
REMARK  status: ('A' for Active; 'I' for Inactive)
REMARK    1  A    between atoms: C_5  and  C_6
REMARK    2  A    between atoms: C_9  and  N_10
REMARK    3  A    between atoms: N_10  and  C_11
REMARK    4  A    between atoms: C_20  and  C_21
REMARK                            x       y       z     vdW  Elec       q    Type
REMARK                         _______ _______ _______ _____ _____    ______ ____
ROOT
ATOM      1  C   UNL     1       2.455   6.828  18.953  0.00  0.00    +0.000 A 
ATOM      2  N   UNL     1       2.178   8.131  18.754  0.00  0.00    +0.000 NA
ATOM      3  N   UNL     1       1.444   8.527  19.837  0.00  0.00    +0.000 N 
ATOM      4  C   UNL     1       0.945   9.845  20.092  0.00  0.00    +0.000 A 
ATOM      5  C   UNL     1       0.249  10.051  21.227  0.00  0.00    +0.000 A 
ATOM      6  C   UNL     1      -0.015   8.949  22.129  0.00  0.00    +0.000 A 
ATOM      7  C   UNL     1       0.441   7.709  21.878  0.00  0.00    +0.000 A 
ATOM      8  C   UNL     1       1.235   7.462  20.718  0.00  0.00    +0.000 A 
ATOM      9  C   UNL     1       1.848   6.363  20.159  0.00  0.00    +0.000 A 
ENDROOT
BRANCH   1  14
ATOM     10  F   UNL     1       5.850   4.025  15.450  0.00  0.00    +0.000 F 
ATOM     11  C   UNL     1       5.028   4.698  16.265  0.00  0.00    +0.000 A 
ATOM     12  C   UNL     1       5.221   6.057  16.462  0.00  0.00    +0.000 A 
ATOM     13  C   UNL     1       4.358   6.759  17.309  0.00  0.00    +0.000 A 
ATOM     14  C   UNL     1       3.329   6.104  18.009  0.00  0.00    +0.000 A 
ATOM     15  C   UNL     1       3.140   4.731  17.768  0.00  0.00    +0.000 A 
ATOM     16  C   UNL     1       3.985   4.032  16.897  0.00  0.00    +0.000 A 
ENDBRANCH   1  14
BRANCH   9  17
ATOM     17  C   UNL     1       1.835   4.979  20.712  0.00  0.00    +0.000 A 
ATOM     18  C   UNL     1       0.968   3.954  20.401  0.00  0.00    +0.000 A 
ATOM     19  C   UNL     1       1.363   2.890  21.228  0.00  0.00    +0.000 A 
ATOM     20  N   UNL     1       2.404   3.212  21.994  0.00  0.00    +0.000 NA
ATOM     21  O   UNL     1       2.696   4.526  21.674  0.00  0.00    +0.000 OA
ENDBRANCH   9  17
BRANCH   4  22
ATOM     22  N   UNL     1       1.155  10.836  19.127  0.00  0.00    +0.000 N 
ATOM     23  H   UNL     1       1.574  11.654  19.585  0.00  0.00    +0.000 HD
BRANCH  22  24
ATOM     24  C   UNL     1       0.139  11.232  18.156  0.00  0.00    +0.000 C 
ATOM     25  C   UNL     1      -0.716  10.032  17.757  0.00  0.00    +0.000 C 
ATOM     26  C   UNL     1      -2.064  10.616  17.368  0.00  0.00    +0.000 C 
ATOM     27  C   UNL     1      -2.207  11.916  18.149  0.00  0.00    +0.000 C 
ATOM     28  C   UNL     1      -0.855  12.198  18.799  0.00  0.00    +0.000 C 
ENDBRANCH  22  24
ENDBRANCH   4  22
TORSDOF 4
ENDMDL
MODEL 3
REMARK VINA RESULT:      -8.2      0.659      1.175
REMARK  Name = 
REMARK  4 active torsions:
REMARK  status: ('A' for Active; 'I' for Inactive)
REMARK    1  A    between atoms: C_5  and  C_6
REMARK    2  A    between atoms: C_9  and  N_10
REMARK    3  A    between atoms: N_10  and  C_11
REMARK    4  A    between atoms: C_20  and  C_21
REMARK                            x       y       z     vdW  Elec       q    Type
REMARK                         _______ _______ _______ _____ _____    ______ ____
ROOT
ATOM      1  C   UNL     1       2.522   6.928  18.834  0.00  0.00    +0.000 A 
ATOM      2  N   UNL     1       2.291   8.239  18.623  0.00  0.00    +0.000 NA
ATOM      3  N   UNL     1       1.520   8.657  19.671  0.00  0.00    +0.000 N 
ATOM      4  C   UNL     1       1.046   9.989  19.902  0.00  0.00    +0.000 A 
ATOM      5  C   UNL     1       0.304  10.216  21.004  0.00  0.00    +0.000 A 
ATOM      6  C   UNL     1      -0.031   9.123  21.892  0.00  0.00    +0.000 A 
ATOM      7  C   UNL     1       0.400   7.870  21.663  0.00  0.00    +0.000 A 
ATOM      8  C   UNL     1       1.241   7.599  20.541  0.00  0.00    +0.000 A 
ATOM      9  C   UNL     1       1.848   6.482  20.011  0.00  0.00    +0.000 A 
ENDROOT
BRANCH   1  14
ATOM     10  F   UNL     1       5.868   4.110  15.296  0.00  0.00    +0.000 F 
ATOM     11  C   UNL     1       5.087   4.775  16.157  0.00  0.00    +0.000 A 
ATOM     12  C   UNL     1       4.102   4.093  16.855  0.00  0.00    +0.000 A 
ATOM     13  C   UNL     1       3.292   4.788  17.758  0.00  0.00    +0.000 A 
ATOM     14  C   UNL     1       3.418   6.179  17.931  0.00  0.00    +0.000 A 
ATOM     15  C   UNL     1       4.443   6.839  17.229  0.00  0.00    +0.000 A 
ATOM     16  C   UNL     1       5.275   6.138  16.348  0.00  0.00    +0.000 A 
ENDBRANCH   1  14
BRANCH   9  17
ATOM     17  C   UNL     1       1.770   5.100  20.563  0.00  0.00    +0.000 A 
ATOM     18  C   UNL     1       2.660   4.480  21.412  0.00  0.00    +0.000 A 
ATOM     19  C   UNL     1       2.145   3.185  21.584  0.00  0.00    +0.000 A 
ATOM     20  N   UNL     1       1.014   3.003  20.905  0.00  0.00    +0.000 NA
ATOM     21  O   UNL     1       0.782   4.204  20.259  0.00  0.00    +0.000 OA
ENDBRANCH   9  17
BRANCH   4  22
ATOM     22  N   UNL     1       1.329  10.972  18.948  0.00  0.00    +0.000 N 
ATOM     23  H   UNL     1       1.973  10.577  18.253  0.00  0.00    +0.000 HD
BRANCH  22  24
ATOM     24  C   UNL     1       1.700  12.340  19.299  0.00  0.00    +0.000 C 
ATOM     25  C   UNL     1       2.670  12.913  18.269  0.00  0.00    +0.000 C 
ATOM     26  C   UNL     1       2.439  14.415  18.298  0.00  0.00    +0.000 C 
ATOM     27  C   UNL     1       1.000  14.616  18.754  0.00  0.00    +0.000 C 
ATOM     28  C   UNL     1       0.481  13.256  19.211  0.00  0.00    +0.000 C 
ENDBRANCH  22  24
ENDBRANCH   4  22
TORSDOF 4
ENDMDL
MODEL 4
REMARK VINA RESULT:      -8.1      3.154      6.947
REMARK  Name = 
REMARK  4 active torsions:
REMARK  status: ('A' for Active; 'I' for Inactive)
REMARK    1  A    between atoms: C_5  and  C_6
REMARK    2  A    between atoms: C_9  and  N_10
REMARK    3  A    between atoms: N_10  and  C_11
REMARK    4  A    between atoms: C_20  and  C_21
REMARK                            x       y       z     vdW  Elec       q    Type
REMARK                         _______ _______ _______ _____ _____    ______ ____
ROOT
ATOM      1  C   UNL     1       1.606   9.415  19.042  0.00  0.00    +0.000 A 
ATOM      2  N   UNL     1       2.324   8.783  18.094  0.00  0.00    +0.000 NA
ATOM      3  N   UNL     1       2.592   7.539  18.595  0.00  0.00    +0.000 N 
ATOM      4  C   UNL     1       3.304   6.489  17.931  0.00  0.00    +0.000 A 
ATOM      5  C   UNL     1       3.459   5.318  18.580  0.00  0.00    +0.000 A 
ATOM      6  C   UNL     1       2.952   5.162  19.927  0.00  0.00    +0.000 A 
ATOM      7  C   UNL     1       2.299   6.156  20.555  0.00  0.00    +0.000 A 
ATOM      8  C   UNL     1       2.059   7.390  19.879  0.00  0.00    +0.000 A 
ATOM      9  C   UNL     1       1.450   8.585  20.193  0.00  0.00    +0.000 A 
ENDROOT
BRANCH   1  14
ATOM     10  F   UNL     1      -0.463  14.575  18.174  0.00  0.00    +0.000 F 
ATOM     11  C   UNL     1       0.030  13.343  18.356  0.00  0.00    +0.000 A 
ATOM     12  C   UNL     1      -0.840  12.268  18.466  0.00  0.00    +0.000 A 
ATOM     13  C   UNL     1      -0.324  10.982  18.650  0.00  0.00    +0.000 A 
ATOM     14  C   UNL     1       1.060  10.762  18.783  0.00  0.00    +0.000 A 
ATOM     15  C   UNL     1       1.918  11.868  18.641  0.00  0.00    +0.000 A 
ATOM     16  C   UNL     1       1.404  13.152  18.426  0.00  0.00    +0.000 A 
ENDBRANCH   1  14
BRANCH   9  17
ATOM     17  C   UNL     1       0.798   8.918  21.491  0.00  0.00    +0.000 A 
ATOM     18  C   UNL     1      -0.536   8.809  21.818  0.00  0.00    +0.000 A 
ATOM     19  C   UNL     1      -0.621   9.291  23.134  0.00  0.00    +0.000 A 
ATOM     20  N   UNL     1       0.566   9.665  23.607  0.00  0.00    +0.000 NA
ATOM     21  O   UNL     1       1.456   9.437  22.572  0.00  0.00    +0.000 OA
ENDBRANCH   9  17
BRANCH   4  22
ATOM     22  N   UNL     1       3.849   6.747  16.669  0.00  0.00    +0.000 N 
ATOM     23  H   UNL     1       3.260   6.296  15.959  0.00  0.00    +0.000 HD
BRANCH  22  24
ATOM     24  C   UNL     1       5.268   6.582  16.365  0.00  0.00    +0.000 C 
ATOM     25  C   UNL     1       6.121   6.948  17.576  0.00  0.00    +0.000 C 
ATOM     26  C   UNL     1       7.390   6.123  17.433  0.00  0.00    +0.000 C 
ATOM     27  C   UNL     1       7.005   4.885  16.633  0.00  0.00    +0.000 C 
ATOM     28  C   UNL     1       5.587   5.109  16.117  0.00  0.00    +0.000 C 
ENDBRANCH  22  24
ENDBRANCH   4  22
TORSDOF 4
ENDMDL
MODEL 5
REMARK VINA RESULT:      -8.1      0.504      1.223
REMARK  Name = 
REMARK  4 active torsions:
REMARK  status: ('A' for Active; 'I' for Inactive)
REMARK    1  A    between atoms: C_5  and  C_6
REMARK    2  A    between atoms: C_9  and  N_10
REMARK    3  A    between atoms: N_10  and  C_11
REMARK    4  A    between atoms: C_20  and  C_21
REMARK                            x       y       z     vdW  Elec       q    Type
REMARK                         _______ _______ _______ _____ _____    ______ ____
ROOT
ATOM      1  C   UNL     1       2.565   6.836  18.815  0.00  0.00    +0.000 A 
ATOM      2  N   UNL     1       2.338   8.141  18.568  0.00  0.00    +0.000 NA
ATOM      3  N   UNL     1       1.565   8.589  19.603  0.00  0.00    +0.000 N 
ATOM      4  C   UNL     1       1.095   9.928  19.797  0.00  0.00    +0.000 A 
ATOM      5  C   UNL     1       0.351  10.186  20.891  0.00  0.00    +0.000 A 
ATOM      6  C   UNL     1       0.010   9.117  21.807  0.00  0.00    +0.000 A 
ATOM      7  C   UNL     1       0.439   7.858  21.613  0.00  0.00    +0.000 A 
ATOM      8  C   UNL     1       1.281   7.555  20.500  0.00  0.00    +0.000 A 
ATOM      9  C   UNL     1       1.886   6.423  20.001  0.00  0.00    +0.000 A 
ENDROOT
BRANCH   1  14
ATOM     10  F   UNL     1       5.916   3.923  15.360  0.00  0.00    +0.000 F 
ATOM     11  C   UNL     1       5.132   4.611  16.201  0.00  0.00    +0.000 A 
ATOM     12  C   UNL     1       4.093   3.963  16.851  0.00  0.00    +0.000 A 
ATOM     13  C   UNL     1       3.280   4.680  17.733  0.00  0.00    +0.000 A 
ATOM     14  C   UNL     1       3.461   6.061  17.934  0.00  0.00    +0.000 A 
ATOM     15  C   UNL     1       4.539   6.685  17.282  0.00  0.00    +0.000 A 
ATOM     16  C   UNL     1       5.373   5.961  16.421  0.00  0.00    +0.000 A 
ENDBRANCH   1  14
BRANCH   9  17
ATOM     17  C   UNL     1       1.804   5.056  20.589  0.00  0.00    +0.000 A 
ATOM     18  C   UNL     1       0.913   4.054  20.272  0.00  0.00    +0.000 A 
ATOM     19  C   UNL     1       1.239   3.000  21.141  0.00  0.00    +0.000 A 
ATOM     20  N   UNL     1       2.261   3.307  21.937  0.00  0.00    +0.000 NA
ATOM     21  O   UNL     1       2.611   4.601  21.594  0.00  0.00    +0.000 OA
ENDBRANCH   9  17
BRANCH   4  22
ATOM     22  N   UNL     1       1.382  10.884  18.819  0.00  0.00    +0.000 N 
ATOM     23  H   UNL     1       2.251  10.615  18.343  0.00  0.00    +0.000 HD
BRANCH  22  24
ATOM     24  C   UNL     1       1.340  12.322  19.073  0.00  0.00    +0.000 C 
ATOM     25  C   UNL     1       2.009  12.650  20.405  0.00  0.00    +0.000 C 
ATOM     26  C   UNL     1       2.530  14.070  20.250  0.00  0.00    +0.000 C 
ATOM     27  C   UNL     1       2.779  14.272  18.761  0.00  0.00    +0.000 C 
ATOM     28  C   UNL     1       2.186  13.065  18.040  0.00  0.00    +0.000 C 
ENDBRANCH  22  24
ENDBRANCH   4  22
TORSDOF 4
ENDMDL
MODEL 6
REMARK VINA RESULT:      -8.1      3.014      7.039
REMARK  Name = 
REMARK  4 active torsions:
REMARK  status: ('A' for Active; 'I' for Inactive)
REMARK    1  A    between atoms: C_5  and  C_6
REMARK    2  A    between atoms: C_9  and  N_10
REMARK    3  A    between atoms: N_10  and  C_11
REMARK    4  A    between atoms: C_20  and  C_21
REMARK                            x       y       z     vdW  Elec       q    Type
REMARK                         _______ _______ _______ _____ _____    ______ ____
ROOT
ATOM      1  C   UNL     1       1.548   9.110  19.244  0.00  0.00    +0.000 A 
ATOM      2  N   UNL     1       2.227   8.365  18.350  0.00  0.00    +0.000 NA
ATOM      3  N   UNL     1       2.410   7.146  18.941  0.00  0.00    +0.000 N 
ATOM      4  C   UNL     1       3.055   6.007  18.360  0.00  0.00    +0.000 A 
ATOM      5  C   UNL     1       3.130   4.879  19.093  0.00  0.00    +0.000 A 
ATOM      6  C   UNL     1       2.610   4.854  20.444  0.00  0.00    +0.000 A 
ATOM      7  C   UNL     1       2.021   5.931  20.993  0.00  0.00    +0.000 A 
ATOM      8  C   UNL     1       1.865   7.126  20.228  0.00  0.00    +0.000 A 
ATOM      9  C   UNL     1       1.335   8.377  20.450  0.00  0.00    +0.000 A 
ENDROOT
BRANCH   1  14
ATOM     10  F   UNL     1      -0.171  14.318  17.989  0.00  0.00    +0.000 F 
ATOM     11  C   UNL     1       0.237  13.073  18.264  0.00  0.00    +0.000 A 
ATOM     12  C   UNL     1      -0.703  12.076  18.477  0.00  0.00    +0.000 A 
ATOM     13  C   UNL     1      -0.275  10.775  18.758  0.00  0.00    +0.000 A 
ATOM     14  C   UNL     1       1.092  10.467  18.884  0.00  0.00    +0.000 A 
ATOM     15  C   UNL     1       2.023  11.493  18.636  0.00  0.00    +0.000 A 
ATOM     16  C   UNL     1       1.596  12.789  18.324  0.00  0.00    +0.000 A 
ENDBRANCH   1  14
BRANCH   9  17
ATOM     17  C   UNL     1       0.702   8.846  21.716  0.00  0.00    +0.000 A 
ATOM     18  C   UNL     1      -0.640   8.873  22.028  0.00  0.00    +0.000 A 
ATOM     19  C   UNL     1      -0.695   9.441  23.311  0.00  0.00    +0.000 A 
ATOM     20  N   UNL     1       0.516   9.739  23.779  0.00  0.00    +0.000 NA
ATOM     21  O   UNL     1       1.392   9.371  22.773  0.00  0.00    +0.000 OA
ENDBRANCH   9  17
BRANCH   4  22
ATOM     22  N   UNL     1       3.620   6.137  17.087  0.00  0.00    +0.000 N 
ATOM     23  H   UNL     1       2.905   5.908  16.386  0.00  0.00    +0.000 HD
BRANCH  22  24
ATOM     24  C   UNL     1       4.916   5.568  16.728  0.00  0.00    +0.000 C 
ATOM     25  C   UNL     1       4.776   4.085  16.395  0.00  0.00    +0.000 C 
ATOM     26  C   UNL     1       5.903   3.788  15.419  0.00  0.00    +0.000 C 
ATOM     27  C   UNL     1       6.206   5.100  14.707  0.00  0.00    +0.000 C 
ATOM     28  C   UNL     1       5.426   6.193  15.431  0.00  0.00    +0.000 C 
ENDBRANCH  22  24
ENDBRANCH   4  22
TORSDOF 4
ENDMDL
MODEL 7
REMARK VINA RESULT:      -8.0      3.254      6.455
REMARK  Name = 
REMARK  4 active torsions:
REMARK  status: ('A' for Active; 'I' for Inactive)
REMARK    1  A    between atoms: C_5  and  C_6
REMARK    2  A    between atoms: C_9  and  N_10
REMARK    3  A    between atoms: N_10  and  C_11
REMARK    4  A    between atoms: C_20  and  C_21
REMARK                            x       y       z     vdW  Elec       q    Type
REMARK                         _______ _______ _______ _____ _____    ______ ____
ROOT
ATOM      1  C   UNL     1       3.036   6.572  18.452  0.00  0.00    +0.000 A 
ATOM      2  N   UNL     1       4.131   7.034  17.817  0.00  0.00    +0.000 NA
ATOM      3  N   UNL     1       4.659   5.961  17.154  0.00  0.00    +0.000 N 
ATOM      4  C   UNL     1       5.815   5.967  16.308  0.00  0.00    +0.000 A 
ATOM      5  C   UNL     1       6.179   4.809  15.724  0.00  0.00    +0.000 A 
ATOM      6  C   UNL     1       5.437   3.595  15.991  0.00  0.00    +0.000 A 
ATOM      7  C   UNL     1       4.362   3.589  16.799  0.00  0.00    +0.000 A 
ATOM      8  C   UNL     1       3.906   4.807  17.388  0.00  0.00    +0.000 A 
ATOM      9  C   UNL     1       2.883   5.170  18.236  0.00  0.00    +0.000 A 
ENDROOT
BRANCH   1  14
ATOM     10  F   UNL     1      -0.200  10.196  21.289  0.00  0.00    +0.000 F 
ATOM     11  C   UNL     1       0.551   9.321  20.608  0.00  0.00    +0.000 A 
ATOM     12  C   UNL     1       1.040   8.194  21.252  0.00  0.00    +0.000 A 
ATOM     13  C   UNL     1       1.818   7.278  20.538  0.00  0.00    +0.000 A 
ATOM     14  C   UNL     1       2.162   7.503  19.192  0.00  0.00    +0.000 A 
ATOM     15  C   UNL     1       1.628   8.641  18.559  0.00  0.00    +0.000 A 
ATOM     16  C   UNL     1       0.823   9.544  19.265  0.00  0.00    +0.000 A 
ENDBRANCH   1  14
BRANCH   9  17
ATOM     17  C   UNL     1       1.860   4.253  18.814  0.00  0.00    +0.000 A 
ATOM     18  C   UNL     1       1.626   3.981  20.144  0.00  0.00    +0.000 A 
ATOM     19  C   UNL     1       0.596   3.027  20.137  0.00  0.00    +0.000 A 
ATOM     20  N   UNL     1       0.201   2.727  18.901  0.00  0.00    +0.000 NA
ATOM     21  O   UNL     1       1.000   3.492  18.070  0.00  0.00    +0.000 OA
ENDBRANCH   9  17
BRANCH   4  22
ATOM     22  N   UNL     1       6.538   7.157  16.176  0.00  0.00    +0.000 N 
ATOM     23  H   UNL     1       6.661   7.356  15.177  0.00  0.00    +0.000 HD
BRANCH  22  24
ATOM     24  C   UNL     1       7.760   7.435  16.927  0.00  0.00    +0.000 C 
ATOM     25  C   UNL     1       7.757   8.872  17.441  0.00  0.00    +0.000 C 
ATOM     26  C   UNL     1       8.611   8.847  18.698  0.00  0.00    +0.000 C 
ATOM     27  C   UNL     1       8.513   7.431  19.251  0.00  0.00    +0.000 C 
ATOM     28  C   UNL     1       7.803   6.587  18.197  0.00  0.00    +0.000 C 
ENDBRANCH  22  24
ENDBRANCH   4  22
TORSDOF 4
ENDMDL
MODEL 8
REMARK VINA RESULT:      -7.8      1.247      1.676
REMARK  Name = 
REMARK  4 active torsions:
REMARK  status: ('A' for Active; 'I' for Inactive)
REMARK    1  A    between atoms: C_5  and  C_6
REMARK    2  A    between atoms: C_9  and  N_10
REMARK    3  A    between atoms: N_10  and  C_11
REMARK    4  A    between atoms: C_20  and  C_21
REMARK                            x       y       z     vdW  Elec       q    Type
REMARK                         _______ _______ _______ _____ _____    ______ ____
ROOT
ATOM      1  C   UNL     1       3.537   6.533  18.252  0.00  0.00    +0.000 A 
ATOM      2  N   UNL     1       3.055   7.782  18.097  0.00  0.00    +0.000 NA
ATOM      3  N   UNL     1       2.190   7.981  19.137  0.00  0.00    +0.000 N 
ATOM      4  C   UNL     1       1.456   9.179  19.416  0.00  0.00    +0.000 A 
ATOM      5  C   UNL     1       0.656   9.194  20.501  0.00  0.00    +0.000 A 
ATOM      6  C   UNL     1       0.522   8.008  21.322  0.00  0.00    +0.000 A 
ATOM      7  C   UNL     1       1.200   6.880  21.047  0.00  0.00    +0.000 A 
ATOM      8  C   UNL     1       2.105   6.842  19.944  0.00  0.00    +0.000 A 
ATOM      9  C   UNL     1       2.935   5.898  19.381  0.00  0.00    +0.000 A 
ENDROOT
BRANCH   1  14
ATOM     10  F   UNL     1       7.510   4.693  14.720  0.00  0.00    +0.000 F 
ATOM     11  C   UNL     1       6.571   5.114  15.577  0.00  0.00    +0.000 A 
ATOM     12  C   UNL     1       5.323   4.510  15.575  0.00  0.00    +0.000 A 
ATOM     13  C   UNL     1       4.346   4.947  16.475  0.00  0.00    +0.000 A 
ATOM     14  C   UNL     1       4.585   6.026  17.346  0.00  0.00    +0.000 A 
ATOM     15  C   UNL     1       5.869   6.601  17.343  0.00  0.00    +0.000 A 
ATOM     16  C   UNL     1       6.858   6.144  16.464  0.00  0.00    +0.000 A 
ENDBRANCH   1  14
BRANCH   9  17
ATOM     17  C   UNL     1       3.119   4.500  19.861  0.00  0.00    +0.000 A 
ATOM     18  C   UNL     1       2.224   3.724  20.564  0.00  0.00    +0.000 A 
ATOM     19  C   UNL     1       2.906   2.519  20.801  0.00  0.00    +0.000 A 
ATOM     20  N   UNL     1       4.131   2.528  20.279  0.00  0.00    +0.000 NA
ATOM     21  O   UNL     1       4.267   3.774  19.694  0.00  0.00    +0.000 OA
ENDBRANCH   9  17
BRANCH   4  22
ATOM     22  N   UNL     1       1.561  10.249  18.523  0.00  0.00    +0.000 N 
ATOM     23  H   UNL     1       2.290  10.030  17.833  0.00  0.00    +0.000 HD
BRANCH  22  24
ATOM     24  C   UNL     1       1.642  11.643  18.954  0.00  0.00    +0.000 C 
ATOM     25  C   UNL     1       2.581  12.430  18.045  0.00  0.00    +0.000 C 
ATOM     26  C   UNL     1       2.079  13.864  18.100  0.00  0.00    +0.000 C 
ATOM     27  C   UNL     1       0.591  13.781  18.416  0.00  0.00    +0.000 C 
ATOM     28  C   UNL     1       0.289  12.329  18.774  0.00  0.00    +0.000 C 
ENDBRANCH  22  24
ENDBRANCH   4  22
TORSDOF 4
ENDMDL
MODEL 9
REMARK VINA RESULT:      -7.8      0.715      1.016
REMARK  Name = 
REMARK  4 active torsions:
REMARK  status: ('A' for Active; 'I' for Inactive)
REMARK    1  A    between atoms: C_5  and  C_6
REMARK    2  A    between atoms: C_9  and  N_10
REMARK    3  A    between atoms: N_10  and  C_11
REMARK    4  A    between atoms: C_20  and  C_21
REMARK                            x       y       z     vdW  Elec       q    Type
REMARK                         _______ _______ _______ _____ _____    ______ ____
ROOT
ATOM      1  C   UNL     1       2.624   6.720  18.651  0.00  0.00    +0.000 A 
ATOM      2  N   UNL     1       2.432   8.016  18.339  0.00  0.00    +0.000 NA
ATOM      3  N   UNL     1       1.693   8.542  19.362  0.00  0.00    +0.000 N 
ATOM      4  C   UNL     1       1.268   9.903  19.493  0.00  0.00    +0.000 A 
ATOM      5  C   UNL     1       0.554  10.242  20.585  0.00  0.00    +0.000 A 
ATOM      6  C   UNL     1       0.200   9.235  21.563  0.00  0.00    +0.000 A 
ATOM      7  C   UNL     1       0.586   7.954  21.429  0.00  0.00    +0.000 A 
ATOM      8  C   UNL     1       1.396   7.567  20.319  0.00  0.00    +0.000 A 
ATOM      9  C   UNL     1       1.957   6.392  19.870  0.00  0.00    +0.000 A 
ENDROOT
BRANCH   1  14
ATOM     10  F   UNL     1       5.935   3.442  15.497  0.00  0.00    +0.000 F 
ATOM     11  C   UNL     1       5.134   4.228  16.228  0.00  0.00    +0.000 A 
ATOM     12  C   UNL     1       5.432   5.577  16.357  0.00  0.00    +0.000 A 
ATOM     13  C   UNL     1       4.591   6.397  17.115  0.00  0.00    +0.000 A 
ATOM     14  C   UNL     1       3.478   5.871  17.797  0.00  0.00    +0.000 A 
ATOM     15  C   UNL     1       3.187   4.506  17.625  0.00  0.00    +0.000 A 
ATOM     16  C   UNL     1       4.011   3.689  16.841  0.00  0.00    +0.000 A 
ENDBRANCH   1  14
BRANCH   9  17
ATOM     17  C   UNL     1       1.845   5.061  20.532  0.00  0.00    +0.000 A 
ATOM     18  C   UNL     1       0.934   4.062  20.268  0.00  0.00    +0.000 A 
ATOM     19  C   UNL     1       1.236   3.051  21.195  0.00  0.00    +0.000 A 
ATOM     20  N   UNL     1       2.264   3.379  21.975  0.00  0.00    +0.000 NA
ATOM     21  O   UNL     1       2.642   4.645  21.563  0.00  0.00    +0.000 OA
ENDBRANCH   9  17
BRANCH   4  22
ATOM     22  N   UNL     1       1.565  10.797  18.460  0.00  0.00    +0.000 N 
ATOM     23  H   UNL     1       2.560  10.708  18.226  0.00  0.00    +0.000 HD
BRANCH  22  24
ATOM     24  C   UNL     1       1.145  12.197  18.471  0.00  0.00    +0.000 C 
ATOM     25  C   UNL     1      -0.356  12.303  18.724  0.00  0.00    +0.000 C 
ATOM     26  C   UNL     1      -0.552  13.654  19.392  0.00  0.00    +0.000 C 
ATOM     27  C   UNL     1       0.756  13.970  20.105  0.00  0.00    +0.000 C 
ATOM     28  C   UNL     1       1.774  12.926  19.657  0.00  0.00    +0.000 C 
ENDBRANCH  22  24
ENDBRANCH   4  22
TORSDOF 4
ENDMDL
