MODEL 1
REMARK VINA RESULT:      -9.7      0.000      0.000
REMARK  Name = 
REMARK  7 active torsions:
REMARK  status: ('A' for Active; 'I' for Inactive)
REMARK    1  A    between atoms: C_1  and  C_2
REMARK    2  A    between atoms: C_2  and  C_3
REMARK    3  A    between atoms: C_2  and  C_4
REMARK    4  A    between atoms: C_2  and  C_12
REMARK    5  A    between atoms: C_12  and  C_13
REMARK    6  A    between atoms: C_12  and  C_19
REMARK    7  A    between atoms: N_26  and  C_27
REMARK                            x       y       z     vdW  Elec       q    Type
REMARK                         _______ _______ _______ _____ _____    ______ ____
ROOT
ATOM      1  C   UNL     1       3.057   5.391  18.177  0.00  0.00    +0.000 C 
ENDROOT
BRANCH   1   2
ATOM      2  C   UNL     1       2.629   6.818  18.537  0.00  0.00    +0.000 A 
ATOM      3  C   UNL     1       2.524   7.864  17.614  0.00  0.00    +0.000 A 
ATOM      4  C   UNL     1       1.967   9.103  17.977  0.00  0.00    +0.000 A 
ATOM      5  C   UNL     1       1.532   9.285  19.303  0.00  0.00    +0.000 A 
ATOM      6  C   UNL     1       1.663   8.276  20.258  0.00  0.00    +0.000 A 
ATOM      7  C   UNL     1       1.069   8.737  21.456  0.00  0.00    +0.000 A 
ATOM      8  C   UNL     1       0.436   9.925  21.168  0.00  0.00    +0.000 A 
ATOM      9  N   UNL     1       0.865  10.345  19.927  0.00  0.00    +0.000 N 
ATOM     10  C   UNL     1       2.259   7.062  19.876  0.00  0.00    +0.000 A 
BRANCH   9  11
ATOM     11  C   UNL     1       0.585  11.593  19.324  0.00  0.00    +0.000 A 
ATOM     12  C   UNL     1      -0.743  11.906  19.018  0.00  0.00    +0.000 A 
ATOM     13  C   UNL     1      -1.079  13.206  18.646  0.00  0.00    +0.000 A 
ATOM     14  C   UNL     1      -0.075  14.166  18.576  0.00  0.00    +0.000 A 
ATOM     15  F   UNL     1      -0.411  15.442  18.339  0.00  0.00    +0.000 F 
ATOM     16  C   UNL     1       1.261  13.835  18.785  0.00  0.00    +0.000 A 
ATOM     17  C   UNL     1       1.608  12.528  19.136  0.00  0.00    +0.000 A 
ENDBRANCH   9  11
ENDBRANCH   1   2
BRANCH   1  18
ATOM     18  C   UNL     1       2.475   4.331  19.117  0.00  0.00    +0.000 A 
ATOM     19  C   UNL     1       1.496   3.418  18.710  0.00  0.00    +0.000 A 
ATOM     20  C   UNL     1       0.839   2.613  19.640  0.00  0.00    +0.000 A 
ATOM     21  C   UNL     1       1.177   2.684  20.988  0.00  0.00    +0.000 A 
ATOM     22  C   UNL     1       2.197   3.536  21.402  0.00  0.00    +0.000 A 
ATOM     23  C   UNL     1       2.845   4.350  20.474  0.00  0.00    +0.000 A 
ENDBRANCH   1  18
BRANCH   1  25
ATOM     24  C   UNL     1       5.150   4.054  18.750  0.00  0.00    +0.000 C 
ATOM     25  C   UNL     1       4.567   5.126  17.776  0.00  0.00    +0.000 C 
ATOM     26  C   UNL     1       5.510   6.342  17.866  0.00  0.00    +0.000 C 
BRANCH  25  27
ATOM     27  C   UNL     1       4.663   4.507  16.351  0.00  0.00    +0.000 C 
ATOM     28  O   UNL     1       3.877   3.631  15.995  0.00  0.00    +0.000 OA
ATOM     29  N   UNL     1       5.688   4.999  15.577  0.00  0.00    +0.000 N 
ATOM     30  C   UNL     1       5.970   4.512  14.332  0.00  0.00    +0.000 A 
ATOM     31  N   UNL     1       5.325   3.636  13.608  0.00  0.00    +0.000 NA
ATOM     32  C   UNL     1       6.028   3.396  12.446  0.00  0.00    +0.000 A 
ATOM     33  C   UNL     1       7.213   4.086  12.317  0.00  0.00    +0.000 A 
ATOM     34  S   UNL     1       7.419   5.129  13.665  0.00  0.00    +0.000 S 
ATOM     35  H   UNL     1       6.310   5.714  15.915  0.00  0.00    +0.000 HD
ENDBRANCH  25  27
ENDBRANCH   1  25
TORSDOF 5
ENDMDL
MODEL 2
REMARK VINA RESULT:      -9.5      1.207      1.556
REMARK  Name = 
REMARK  7 active torsions:
REMARK  status: ('A' for Active; 'I' for Inactive)
REMARK    1  A    between atoms: C_1  and  C_2
REMARK    2  A    between atoms: C_2  and  C_3
REMARK    3  A    between atoms: C_2  and  C_4
REMARK    4  A    between atoms: C_2  and  C_12
REMARK    5  A    between atoms: C_12  and  C_13
REMARK    6  A    between atoms: C_12  and  C_19
REMARK    7  A    between atoms: N_26  and  C_27
REMARK                            x       y       z     vdW  Elec       q    Type
REMARK                         _______ _______ _______ _____ _____    ______ ____
ROOT
ATOM      1  C   UNL     1       3.607   5.454  17.801  0.00  0.00    +0.000 C 
ENDROOT
BRANCH   1   2
ATOM      2  C   UNL     1       3.058   6.817  18.238  0.00  0.00    +0.000 A 
ATOM      3  C   UNL     1       2.997   7.943  17.409  0.00  0.00    +0.000 A 
ATOM      4  C   UNL     1       2.330   9.112  17.816  0.00  0.00    +0.000 A 
ATOM      5  C   UNL     1       1.737   9.141  19.091  0.00  0.00    +0.000 A 
ATOM      6  C   UNL     1       1.817   8.051  19.958  0.00  0.00    +0.000 A 
ATOM      7  C   UNL     1       1.065   8.363  21.114  0.00  0.00    +0.000 A 
ATOM      8  C   UNL     1       0.400   9.542  20.864  0.00  0.00    +0.000 A 
ATOM      9  N   UNL     1       0.942  10.102  19.727  0.00  0.00    +0.000 N 
ATOM     10  C   UNL     1       2.524   6.911  19.539  0.00  0.00    +0.000 A 
BRANCH   9  11
ATOM     11  C   UNL     1       0.659  11.389  19.212  0.00  0.00    +0.000 A 
ATOM     12  C   UNL     1      -0.583  11.611  18.609  0.00  0.00    +0.000 A 
ATOM     13  C   UNL     1      -0.982  12.911  18.308  0.00  0.00    +0.000 A 
ATOM     14  C   UNL     1      -0.124  13.964  18.605  0.00  0.00    +0.000 A 
ATOM     15  F   UNL     1      -0.554  15.222  18.431  0.00  0.00    +0.000 F 
ATOM     16  C   UNL     1       1.152  13.738  19.115  0.00  0.00    +0.000 A 
ATOM     17  C   UNL     1       1.568  12.435  19.399  0.00  0.00    +0.000 A 
ENDBRANCH   9  11
ENDBRANCH   1   2
BRANCH   1  18
ATOM     18  C   UNL     1       2.648   4.296  18.093  0.00  0.00    +0.000 A 
ATOM     19  C   UNL     1       1.809   4.276  19.213  0.00  0.00    +0.000 A 
ATOM     20  C   UNL     1       1.110   3.120  19.561  0.00  0.00    +0.000 A 
ATOM     21  C   UNL     1       1.213   1.978  18.773  0.00  0.00    +0.000 A 
ATOM     22  C   UNL     1       1.987   2.001  17.617  0.00  0.00    +0.000 A 
ATOM     23  C   UNL     1       2.696   3.152  17.276  0.00  0.00    +0.000 A 
ENDBRANCH   1  18
BRANCH   1  25
ATOM     24  C   UNL     1       5.238   3.582  18.372  0.00  0.00    +0.000 C 
ATOM     25  C   UNL     1       5.126   5.114  18.098  0.00  0.00    +0.000 C 
ATOM     26  C   UNL     1       5.744   5.814  19.324  0.00  0.00    +0.000 C 
BRANCH  25  27
ATOM     27  C   UNL     1       6.011   5.391  16.848  0.00  0.00    +0.000 C 
ATOM     28  O   UNL     1       6.750   6.373  16.809  0.00  0.00    +0.000 OA
ATOM     29  N   UNL     1       5.868   4.479  15.828  0.00  0.00    +0.000 N 
ATOM     30  C   UNL     1       6.507   4.611  14.627  0.00  0.00    +0.000 A 
ATOM     31  N   UNL     1       7.404   5.481  14.246  0.00  0.00    +0.000 NA
ATOM     32  C   UNL     1       7.705   5.275  12.915  0.00  0.00    +0.000 A 
ATOM     33  C   UNL     1       7.010   4.255  12.301  0.00  0.00    +0.000 A 
ATOM     34  S   UNL     1       5.998   3.479  13.450  0.00  0.00    +0.000 S 
ATOM     35  H   UNL     1       5.246   3.692  15.904  0.00  0.00    +0.000 HD
ENDBRANCH  25  27
ENDBRANCH   1  25
TORSDOF 5
ENDMDL
MODEL 3
REMARK VINA RESULT:      -9.0      4.493      9.397
REMARK  Name = 
REMARK  7 active torsions:
REMARK  status: ('A' for Active; 'I' for Inactive)
REMARK    1  A    between atoms: C_1  and  C_2
REMARK    2  A    between atoms: C_2  and  C_3
REMARK    3  A    between atoms: C_2  and  C_4
REMARK    4  A    between atoms: C_2  and  C_12
REMARK    5  A    between atoms: C_12  and  C_13
REMARK    6  A    between atoms: C_12  and  C_19
REMARK    7  A    between atoms: N_26  and  C_27
REMARK                            x       y       z     vdW  Elec       q    Type
REMARK                         _______ _______ _______ _____ _____    ______ ____
ROOT
ATOM      1  C   UNL     1       0.528  11.562  19.497  0.00  0.00    +0.000 C 
ENDROOT
BRANCH   1   2
ATOM      2  C   UNL     1       1.067  10.177  19.121  0.00  0.00    +0.000 A 
ATOM      3  C   UNL     1       1.705   9.884  17.911  0.00  0.00    +0.000 A 
ATOM      4  C   UNL     1       2.323   8.639  17.697  0.00  0.00    +0.000 A 
ATOM      5  C   UNL     1       2.272   7.675  18.720  0.00  0.00    +0.000 A 
ATOM      6  C   UNL     1       1.607   7.921  19.921  0.00  0.00    +0.000 A 
ATOM      7  C   UNL     1       1.801   6.799  20.760  0.00  0.00    +0.000 A 
ATOM      8  C   UNL     1       2.716   5.979  20.140  0.00  0.00    +0.000 A 
ATOM      9  N   UNL     1       2.860   6.410  18.839  0.00  0.00    +0.000 N 
ATOM     10  C   UNL     1       0.964   9.159  20.092  0.00  0.00    +0.000 A 
BRANCH   9  11
ATOM     11  C   UNL     1       3.581   5.753  17.815  0.00  0.00    +0.000 A 
ATOM     12  C   UNL     1       4.612   6.444  17.171  0.00  0.00    +0.000 A 
ATOM     13  C   UNL     1       5.487   5.757  16.333  0.00  0.00    +0.000 A 
ATOM     14  C   UNL     1       5.305   4.391  16.145  0.00  0.00    +0.000 A 
ATOM     15  F   UNL     1       6.215   3.705  15.440  0.00  0.00    +0.000 F 
ATOM     16  C   UNL     1       4.222   3.720  16.706  0.00  0.00    +0.000 A 
ATOM     17  C   UNL     1       3.327   4.408  17.530  0.00  0.00    +0.000 A 
ENDBRANCH   9  11
ENDBRANCH   1   2
BRANCH   1  18
ATOM     18  C   UNL     1      -0.949  11.752  19.140  0.00  0.00    +0.000 A 
ATOM     19  C   UNL     1      -1.870  12.331  20.021  0.00  0.00    +0.000 A 
ATOM     20  C   UNL     1      -3.238  12.295  19.750  0.00  0.00    +0.000 A 
ATOM     21  C   UNL     1      -3.702  11.711  18.576  0.00  0.00    +0.000 A 
ATOM     22  C   UNL     1      -2.796  11.193  17.655  0.00  0.00    +0.000 A 
ATOM     23  C   UNL     1      -1.430  11.217  17.931  0.00  0.00    +0.000 A 
ENDBRANCH   1  18
BRANCH   1  25
ATOM     24  C   UNL     1       0.496  13.972  18.670  0.00  0.00    +0.000 C 
ATOM     25  C   UNL     1       1.424  12.834  19.201  0.00  0.00    +0.000 C 
ATOM     26  C   UNL     1       2.524  12.649  18.137  0.00  0.00    +0.000 C 
BRANCH  25  27
ATOM     27  C   UNL     1       2.063  13.381  20.510  0.00  0.00    +0.000 C 
ATOM     28  O   UNL     1       1.453  13.323  21.576  0.00  0.00    +0.000 OA
ATOM     29  N   UNL     1       3.314  13.933  20.354  0.00  0.00    +0.000 N 
ATOM     30  C   UNL     1       3.988  14.533  21.380  0.00  0.00    +0.000 A 
ATOM     31  N   UNL     1       3.686  14.610  22.649  0.00  0.00    +0.000 NA
ATOM     32  C   UNL     1       4.627  15.385  23.297  0.00  0.00    +0.000 A 
ATOM     33  C   UNL     1       5.623  15.901  22.496  0.00  0.00    +0.000 A 
ATOM     34  S   UNL     1       5.415  15.336  20.888  0.00  0.00    +0.000 S 
ATOM     35  H   UNL     1       3.771  13.962  19.458  0.00  0.00    +0.000 HD
ENDBRANCH  25  27
ENDBRANCH   1  25
TORSDOF 5
ENDMDL
MODEL 4
REMARK VINA RESULT:      -9.0      1.657      2.002
REMARK  Name = 
REMARK  7 active torsions:
REMARK  status: ('A' for Active; 'I' for Inactive)
REMARK    1  A    between atoms: C_1  and  C_2
REMARK    2  A    between atoms: C_2  and  C_3
REMARK    3  A    between atoms: C_2  and  C_4
REMARK    4  A    between atoms: C_2  and  C_12
REMARK    5  A    between atoms: C_12  and  C_13
REMARK    6  A    between atoms: C_12  and  C_19
REMARK    7  A    between atoms: N_26  and  C_27
REMARK                            x       y       z     vdW  Elec       q    Type
REMARK                         _______ _______ _______ _____ _____    ______ ____
ROOT
ATOM      1  C   UNL     1       4.490   5.561  17.404  0.00  0.00    +0.000 C 
ENDROOT
BRANCH   1   2
ATOM      2  C   UNL     1       3.659   6.694  18.020  0.00  0.00    +0.000 A 
ATOM      3  C   UNL     1       3.343   7.885  17.359  0.00  0.00    +0.000 A 
ATOM      4  C   UNL     1       2.439   8.809  17.916  0.00  0.00    +0.000 A 
ATOM      5  C   UNL     1       1.870   8.524  19.170  0.00  0.00    +0.000 A 
ATOM      6  C   UNL     1       2.198   7.364  19.873  0.00  0.00    +0.000 A 
ATOM      7  C   UNL     1       1.410   7.333  21.047  0.00  0.00    +0.000 A 
ATOM      8  C   UNL     1       0.498   8.361  20.954  0.00  0.00    +0.000 A 
ATOM      9  N   UNL     1       0.890   9.185  19.920  0.00  0.00    +0.000 N 
ATOM     10  C   UNL     1       3.133   6.479  19.310  0.00  0.00    +0.000 A 
BRANCH   9  11
ATOM     11  C   UNL     1       0.326  10.438  19.589  0.00  0.00    +0.000 A 
ATOM     12  C   UNL     1       0.952  11.599  20.053  0.00  0.00    +0.000 A 
ATOM     13  C   UNL     1       0.564  12.840  19.555  0.00  0.00    +0.000 A 
ATOM     14  C   UNL     1      -0.454  12.897  18.608  0.00  0.00    +0.000 A 
ATOM     15  F   UNL     1      -0.746  14.074  18.037  0.00  0.00    +0.000 F 
ATOM     16  C   UNL     1      -1.145  11.753  18.218  0.00  0.00    +0.000 A 
ATOM     17  C   UNL     1      -0.776  10.507  18.731  0.00  0.00    +0.000 A 
ENDBRANCH   9  11
ENDBRANCH   1   2
BRANCH   1  18
ATOM     18  C   UNL     1       4.010   4.167  17.818  0.00  0.00    +0.000 A 
ATOM     19  C   UNL     1       3.035   3.462  17.104  0.00  0.00    +0.000 A 
ATOM     20  C   UNL     1       2.472   2.296  17.625  0.00  0.00    +0.000 A 
ATOM     21  C   UNL     1       2.903   1.800  18.851  0.00  0.00    +0.000 A 
ATOM     22  C   UNL     1       3.921   2.449  19.542  0.00  0.00    +0.000 A 
ATOM     23  C   UNL     1       4.475   3.621  19.029  0.00  0.00    +0.000 A 
ENDBRANCH   1  18
BRANCH   1  25
ATOM     24  C   UNL     1       6.678   4.652  18.339  0.00  0.00    +0.000 C 
ATOM     25  C   UNL     1       6.067   5.708  17.366  0.00  0.00    +0.000 C 
ATOM     26  C   UNL     1       6.626   7.073  17.810  0.00  0.00    +0.000 C 
BRANCH  25  27
ATOM     27  C   UNL     1       6.623   5.360  15.954  0.00  0.00    +0.000 C 
ATOM     28  O   UNL     1       7.679   5.851  15.559  0.00  0.00    +0.000 OA
ATOM     29  N   UNL     1       5.834   4.506  15.218  0.00  0.00    +0.000 N 
ATOM     30  C   UNL     1       6.127   4.159  13.930  0.00  0.00    +0.000 A 
ATOM     31  N   UNL     1       7.180   4.432  13.207  0.00  0.00    +0.000 NA
ATOM     32  C   UNL     1       7.001   3.936  11.931  0.00  0.00    +0.000 A 
ATOM     33  C   UNL     1       5.797   3.307  11.704  0.00  0.00    +0.000 A 
ATOM     34  S   UNL     1       4.886   3.270  13.159  0.00  0.00    +0.000 S 
ATOM     35  H   UNL     1       4.974   4.133  15.584  0.00  0.00    +0.000 HD
ENDBRANCH  25  27
ENDBRANCH   1  25
TORSDOF 5
ENDMDL
MODEL 5
REMARK VINA RESULT:      -9.0      4.382      9.261
REMARK  Name = 
REMARK  7 active torsions:
REMARK  status: ('A' for Active; 'I' for Inactive)
REMARK    1  A    between atoms: C_1  and  C_2
REMARK    2  A    between atoms: C_2  and  C_3
REMARK    3  A    between atoms: C_2  and  C_4
REMARK    4  A    between atoms: C_2  and  C_12
REMARK    5  A    between atoms: C_12  and  C_13
REMARK    6  A    between atoms: C_12  and  C_19
REMARK    7  A    between atoms: N_26  and  C_27
REMARK                            x       y       z     vdW  Elec       q    Type
REMARK                         _______ _______ _______ _____ _____    ______ ____
ROOT
ATOM      1  C   UNL     1       0.543  11.094  19.390  0.00  0.00    +0.000 C 
ENDROOT
BRANCH   1   2
ATOM      2  C   UNL     1       1.201   9.761  19.016  0.00  0.00    +0.000 A 
ATOM      3  C   UNL     1       1.927   9.546  17.840  0.00  0.00    +0.000 A 
ATOM      4  C   UNL     1       2.645   8.354  17.635  0.00  0.00    +0.000 A 
ATOM      5  C   UNL     1       2.605   7.362  18.631  0.00  0.00    +0.000 A 
ATOM      6  C   UNL     1       1.855   7.529  19.796  0.00  0.00    +0.000 A 
ATOM      7  C   UNL     1       2.082   6.402  20.620  0.00  0.00    +0.000 A 
ATOM      8  C   UNL     1       3.088   5.665  20.037  0.00  0.00    +0.000 A 
ATOM      9  N   UNL     1       3.275   6.140  18.757  0.00  0.00    +0.000 N 
ATOM     10  C   UNL     1       1.117   8.714  19.956  0.00  0.00    +0.000 A 
BRANCH   9  11
ATOM     11  C   UNL     1       4.099   5.562  17.763  0.00  0.00    +0.000 A 
ATOM     12  C   UNL     1       3.878   4.230  17.400  0.00  0.00    +0.000 A 
ATOM     13  C   UNL     1       4.506   3.707  16.272  0.00  0.00    +0.000 A 
ATOM     14  C   UNL     1       5.354   4.526  15.534  0.00  0.00    +0.000 A 
ATOM     15  F   UNL     1       5.862   4.066  14.383  0.00  0.00    +0.000 F 
ATOM     16  C   UNL     1       5.651   5.822  15.948  0.00  0.00    +0.000 A 
ATOM     17  C   UNL     1       5.043   6.345  17.091  0.00  0.00    +0.000 A 
ENDBRANCH   9  11
ENDBRANCH   1   2
BRANCH   1  18
ATOM     18  C   UNL     1      -0.952  11.143  19.060  0.00  0.00    +0.000 A 
ATOM     19  C   UNL     1      -1.490  10.548  17.913  0.00  0.00    +0.000 A 
ATOM     20  C   UNL     1      -2.811  10.791  17.535  0.00  0.00    +0.000 A 
ATOM     21  C   UNL     1      -3.623  11.605  18.319  0.00  0.00    +0.000 A 
ATOM     22  C   UNL     1      -3.126  12.148  19.500  0.00  0.00    +0.000 A 
ATOM     23  C   UNL     1      -1.802  11.917  19.871  0.00  0.00    +0.000 A 
ENDBRANCH   1  18
BRANCH   1  25
ATOM     24  C   UNL     1       0.276  13.474  18.519  0.00  0.00    +0.000 C 
ATOM     25  C   UNL     1       1.311  12.441  19.065  0.00  0.00    +0.000 C 
ATOM     26  C   UNL     1       2.419  12.342  17.998  0.00  0.00    +0.000 C 
BRANCH  25  27
ATOM     27  C   UNL     1       1.901  13.071  20.361  0.00  0.00    +0.000 C 
ATOM     28  O   UNL     1       1.331  12.929  21.441  0.00  0.00    +0.000 OA
ATOM     29  N   UNL     1       3.058  13.792  20.176  0.00  0.00    +0.000 N 
ATOM     30  C   UNL     1       3.667  14.480  21.187  0.00  0.00    +0.000 A 
ATOM     31  N   UNL     1       3.389  14.514  22.463  0.00  0.00    +0.000 NA
ATOM     32  C   UNL     1       4.229  15.411  23.090  0.00  0.00    +0.000 A 
ATOM     33  C   UNL     1       5.123  16.061  22.267  0.00  0.00    +0.000 A 
ATOM     34  S   UNL     1       4.957  15.473  20.663  0.00  0.00    +0.000 S 
ATOM     35  H   UNL     1       3.485  13.884  19.269  0.00  0.00    +0.000 HD
ENDBRANCH  25  27
ENDBRANCH   1  25
TORSDOF 5
ENDMDL
MODEL 6
REMARK VINA RESULT:      -8.9      4.797      9.884
REMARK  Name = 
REMARK  7 active torsions:
REMARK  status: ('A' for Active; 'I' for Inactive)
REMARK    1  A    between atoms: C_1  and  C_2
REMARK    2  A    between atoms: C_2  and  C_3
REMARK    3  A    between atoms: C_2  and  C_4
REMARK    4  A    between atoms: C_2  and  C_12
REMARK    5  A    between atoms: C_12  and  C_13
REMARK    6  A    between atoms: C_12  and  C_19
REMARK    7  A    between atoms: N_26  and  C_27
REMARK                            x       y       z     vdW  Elec       q    Type
REMARK                         _______ _______ _______ _____ _____    ______ ____
ROOT
ATOM      1  C   UNL     1      -0.161  11.006  19.277  0.00  0.00    +0.000 C 
ENDROOT
BRANCH   1   2
ATOM      2  C   UNL     1       0.661   9.753  18.954  0.00  0.00    +0.000 A 
ATOM      3  C   UNL     1       1.407   9.582  17.783  0.00  0.00    +0.000 A 
ATOM      4  C   UNL     1       2.270   8.483  17.624  0.00  0.00    +0.000 A 
ATOM      5  C   UNL     1       2.356   7.536  18.661  0.00  0.00    +0.000 A 
ATOM      6  C   UNL     1       1.592   7.656  19.822  0.00  0.00    +0.000 A 
ATOM      7  C   UNL     1       1.960   6.602  20.691  0.00  0.00    +0.000 A 
ATOM      8  C   UNL     1       3.051   5.974  20.133  0.00  0.00    +0.000 A 
ATOM      9  N   UNL     1       3.176   6.415  18.833  0.00  0.00    +0.000 N 
ATOM     10  C   UNL     1       0.710   8.743  19.937  0.00  0.00    +0.000 A 
BRANCH   9  11
ATOM     11  C   UNL     1       4.065   5.905  17.859  0.00  0.00    +0.000 A 
ATOM     12  C   UNL     1       3.922   4.574  17.452  0.00  0.00    +0.000 A 
ATOM     13  C   UNL     1       4.619   4.114  16.337  0.00  0.00    +0.000 A 
ATOM     14  C   UNL     1       5.456   4.992  15.657  0.00  0.00    +0.000 A 
ATOM     15  F   UNL     1       6.032   4.589  14.516  0.00  0.00    +0.000 F 
ATOM     16  C   UNL     1       5.675   6.288  16.117  0.00  0.00    +0.000 A 
ATOM     17  C   UNL     1       4.997   6.750  17.248  0.00  0.00    +0.000 A 
ENDBRANCH   9  11
ENDBRANCH   1   2
BRANCH   1  18
ATOM     18  C   UNL     1      -1.513  11.043  18.558  0.00  0.00    +0.000 A 
ATOM     19  C   UNL     1      -2.614  11.747  19.059  0.00  0.00    +0.000 A 
ATOM     20  C   UNL     1      -3.881  11.586  18.496  0.00  0.00    +0.000 A 
ATOM     21  C   UNL     1      -4.056  10.747  17.400  0.00  0.00    +0.000 A 
ATOM     22  C   UNL     1      -2.960  10.094  16.845  0.00  0.00    +0.000 A 
ATOM     23  C   UNL     1      -1.697  10.243  17.415  0.00  0.00    +0.000 A 
ENDBRANCH   1  18
BRANCH   1  25
ATOM     24  C   UNL     1      -0.135  13.365  18.313  0.00  0.00    +0.000 C 
ATOM     25  C   UNL     1       0.575  12.409  19.322  0.00  0.00    +0.000 C 
ATOM     26  C   UNL     1       2.064  12.399  18.925  0.00  0.00    +0.000 C 
BRANCH  25  27
ATOM     27  C   UNL     1       0.421  13.072  20.721  0.00  0.00    +0.000 C 
ATOM     28  O   UNL     1       1.299  12.949  21.573  0.00  0.00    +0.000 OA
ATOM     29  N   UNL     1      -0.757  13.758  20.907  0.00  0.00    +0.000 N 
ATOM     30  C   UNL     1      -1.095  14.332  22.100  0.00  0.00    +0.000 A 
ATOM     31  N   UNL     1      -0.398  14.456  23.198  0.00  0.00    +0.000 NA
ATOM     32  C   UNL     1      -1.180  15.039  24.174  0.00  0.00    +0.000 A 
ATOM     33  C   UNL     1      -2.474  15.331  23.800  0.00  0.00    +0.000 A 
ATOM     34  S   UNL     1      -2.697  14.930  22.146  0.00  0.00    +0.000 S 
ATOM     35  H   UNL     1      -1.450  13.827  20.180  0.00  0.00    +0.000 HD
ENDBRANCH  25  27
ENDBRANCH   1  25
TORSDOF 5
ENDMDL
MODEL 7
REMARK VINA RESULT:      -8.8      4.747      9.799
REMARK  Name = 
REMARK  7 active torsions:
REMARK  status: ('A' for Active; 'I' for Inactive)
REMARK    1  A    between atoms: C_1  and  C_2
REMARK    2  A    between atoms: C_2  and  C_3
REMARK    3  A    between atoms: C_2  and  C_4
REMARK    4  A    between atoms: C_2  and  C_12
REMARK    5  A    between atoms: C_12  and  C_13
REMARK    6  A    between atoms: C_12  and  C_19
REMARK    7  A    between atoms: N_26  and  C_27
REMARK                            x       y       z     vdW  Elec       q    Type
REMARK                         _______ _______ _______ _____ _____    ______ ____
ROOT
ATOM      1  C   UNL     1       0.900  12.348  18.813  0.00  0.00    +0.000 C 
ENDROOT
BRANCH   1   2
ATOM      2  C   UNL     1       1.186  10.841  18.833  0.00  0.00    +0.000 A 
ATOM      3  C   UNL     1       1.895  10.163  17.837  0.00  0.00    +0.000 A 
ATOM      4  C   UNL     1       2.266   8.815  17.997  0.00  0.00    +0.000 A 
ATOM      5  C   UNL     1       1.891   8.147  19.176  0.00  0.00    +0.000 A 
ATOM      6  C   UNL     1       1.146   8.784  20.169  0.00  0.00    +0.000 A 
ATOM      7  C   UNL     1       1.000   7.879  21.246  0.00  0.00    +0.000 A 
ATOM      8  C   UNL     1       1.797   6.789  20.975  0.00  0.00    +0.000 A 
ATOM      9  N   UNL     1       2.187   6.866  19.655  0.00  0.00    +0.000 N 
ATOM     10  C   UNL     1       0.756  10.118  19.965  0.00  0.00    +0.000 A 
BRANCH   9  11
ATOM     11  C   UNL     1       2.879   5.869  18.929  0.00  0.00    +0.000 A 
ATOM     12  C   UNL     1       2.136   4.883  18.270  0.00  0.00    +0.000 A 
ATOM     13  C   UNL     1       2.766   4.036  17.362  0.00  0.00    +0.000 A 
ATOM     14  C   UNL     1       4.131   4.184  17.137  0.00  0.00    +0.000 A 
ATOM     15  F   UNL     1       4.715   3.455  16.177  0.00  0.00    +0.000 F 
ATOM     16  C   UNL     1       4.890   5.099  17.863  0.00  0.00    +0.000 A 
ATOM     17  C   UNL     1       4.269   5.936  18.793  0.00  0.00    +0.000 A 
ENDBRANCH   9  11
ENDBRANCH   1   2
BRANCH   1  18
ATOM     18  C   UNL     1       2.131  13.199  19.140  0.00  0.00    +0.000 A 
ATOM     19  C   UNL     1       2.606  13.366  20.446  0.00  0.00    +0.000 A 
ATOM     20  C   UNL     1       3.592  14.312  20.732  0.00  0.00    +0.000 A 
ATOM     21  C   UNL     1       4.141  15.078  19.709  0.00  0.00    +0.000 A 
ATOM     22  C   UNL     1       3.731  14.876  18.395  0.00  0.00    +0.000 A 
ATOM     23  C   UNL     1       2.737  13.941  18.110  0.00  0.00    +0.000 A 
ENDBRANCH   1  18
BRANCH   1  25
ATOM     24  C   UNL     1      -0.483  14.430  19.307  0.00  0.00    +0.000 C 
ATOM     25  C   UNL     1      -0.437  12.878  19.477  0.00  0.00    +0.000 C 
ATOM     26  C   UNL     1      -0.590  12.610  20.987  0.00  0.00    +0.000 C 
BRANCH  25  27
ATOM     27  C   UNL     1      -1.685  12.329  18.728  0.00  0.00    +0.000 C 
ATOM     28  O   UNL     1      -1.590  11.908  17.577  0.00  0.00    +0.000 OA
ATOM     29  N   UNL     1      -2.858  12.383  19.445  0.00  0.00    +0.000 N 
ATOM     30  C   UNL     1      -4.063  12.019  18.915  0.00  0.00    +0.000 A 
ATOM     31  N   UNL     1      -4.342  11.476  17.760  0.00  0.00    +0.000 NA
ATOM     32  C   UNL     1      -5.710  11.358  17.627  0.00  0.00    +0.000 A 
ATOM     33  C   UNL     1      -6.451  11.837  18.685  0.00  0.00    +0.000 A 
ATOM     34  S   UNL     1      -5.396  12.385  19.923  0.00  0.00    +0.000 S 
ATOM     35  H   UNL     1      -2.887  12.741  20.385  0.00  0.00    +0.000 HD
ENDBRANCH  25  27
ENDBRANCH   1  25
TORSDOF 5
ENDMDL
MODEL 8
REMARK VINA RESULT:      -8.7      4.737      9.885
REMARK  Name = 
REMARK  7 active torsions:
REMARK  status: ('A' for Active; 'I' for Inactive)
REMARK    1  A    between atoms: C_1  and  C_2
REMARK    2  A    between atoms: C_2  and  C_3
REMARK    3  A    between atoms: C_2  and  C_4
REMARK    4  A    between atoms: C_2  and  C_12
REMARK    5  A    between atoms: C_12  and  C_13
REMARK    6  A    between atoms: C_12  and  C_19
REMARK    7  A    between atoms: N_26  and  C_27
REMARK                            x       y       z     vdW  Elec       q    Type
REMARK                         _______ _______ _______ _____ _____    ______ ____
ROOT
ATOM      1  C   UNL     1       0.028  10.824  19.368  0.00  0.00    +0.000 C 
ENDROOT
BRANCH   1   2
ATOM      2  C   UNL     1       0.875   9.611  18.965  0.00  0.00    +0.000 A 
ATOM      3  C   UNL     1       1.649   9.545  17.801  0.00  0.00    +0.000 A 
ATOM      4  C   UNL     1       2.532   8.473  17.574  0.00  0.00    +0.000 A 
ATOM      5  C   UNL     1       2.610   7.448  18.534  0.00  0.00    +0.000 A 
ATOM      6  C   UNL     1       1.821   7.464  19.684  0.00  0.00    +0.000 A 
ATOM      7  C   UNL     1       2.186   6.349  20.474  0.00  0.00    +0.000 A 
ATOM      8  C   UNL     1       3.298   5.783  19.892  0.00  0.00    +0.000 A 
ATOM      9  N   UNL     1       3.443   6.328  18.634  0.00  0.00    +0.000 N 
ATOM     10  C   UNL     1       0.919   8.527  19.866  0.00  0.00    +0.000 A 
BRANCH   9  11
ATOM     11  C   UNL     1       4.361   5.910  17.643  0.00  0.00    +0.000 A 
ATOM     12  C   UNL     1       5.503   6.686  17.417  0.00  0.00    +0.000 A 
ATOM     13  C   UNL     1       6.533   6.185  16.624  0.00  0.00    +0.000 A 
ATOM     14  C   UNL     1       6.396   4.919  16.063  0.00  0.00    +0.000 A 
ATOM     15  F   UNL     1       7.432   4.385  15.404  0.00  0.00    +0.000 F 
ATOM     16  C   UNL     1       5.220   4.186  16.206  0.00  0.00    +0.000 A 
ATOM     17  C   UNL     1       4.174   4.693  16.981  0.00  0.00    +0.000 A 
ENDBRANCH   9  11
ENDBRANCH   1   2
BRANCH   1  18
ATOM     18  C   UNL     1      -1.388  10.791  18.785  0.00  0.00    +0.000 A 
ATOM     19  C   UNL     1      -1.716  10.052  17.642  0.00  0.00    +0.000 A 
ATOM     20  C   UNL     1      -2.953  10.213  17.019  0.00  0.00    +0.000 A 
ATOM     21  C   UNL     1      -3.895  11.089  17.550  0.00  0.00    +0.000 A 
ATOM     22  C   UNL     1      -3.613  11.779  18.725  0.00  0.00    +0.000 A 
ATOM     23  C   UNL     1      -2.371  11.629  19.341  0.00  0.00    +0.000 A 
ENDBRANCH   1  18
BRANCH   1  25
ATOM     24  C   UNL     1      -0.043  13.122  18.272  0.00  0.00    +0.000 C 
ATOM     25  C   UNL     1       0.694  12.261  19.344  0.00  0.00    +0.000 C 
ATOM     26  C   UNL     1       2.189  12.302  18.970  0.00  0.00    +0.000 C 
BRANCH  25  27
ATOM     27  C   UNL     1       0.484  12.994  20.701  0.00  0.00    +0.000 C 
ATOM     28  O   UNL     1       0.478  12.366  21.757  0.00  0.00    +0.000 OA
ATOM     29  N   UNL     1       0.288  14.352  20.597  0.00  0.00    +0.000 N 
ATOM     30  C   UNL     1       0.008  15.140  21.677  0.00  0.00    +0.000 A 
ATOM     31  N   UNL     1      -0.020  14.841  22.949  0.00  0.00    +0.000 NA
ATOM     32  C   UNL     1      -0.432  15.943  23.670  0.00  0.00    +0.000 A 
ATOM     33  C   UNL     1      -0.729  17.062  22.923  0.00  0.00    +0.000 A 
ATOM     34  S   UNL     1      -0.411  16.746  21.266  0.00  0.00    +0.000 S 
ATOM     35  H   UNL     1       0.298  14.821  19.707  0.00  0.00    +0.000 HD
ENDBRANCH  25  27
ENDBRANCH   1  25
TORSDOF 5
ENDMDL
MODEL 9
REMARK VINA RESULT:      -8.7      4.744      9.330
REMARK  Name = 
REMARK  7 active torsions:
REMARK  status: ('A' for Active; 'I' for Inactive)
REMARK    1  A    between atoms: C_1  and  C_2
REMARK    2  A    between atoms: C_2  and  C_3
REMARK    3  A    between atoms: C_2  and  C_4
REMARK    4  A    between atoms: C_2  and  C_12
REMARK    5  A    between atoms: C_12  and  C_13
REMARK    6  A    between atoms: C_12  and  C_19
REMARK    7  A    between atoms: N_26  and  C_27
REMARK                            x       y       z     vdW  Elec       q    Type
REMARK                         _______ _______ _______ _____ _____    ______ ____
ROOT
ATOM      1  C   UNL     1      -1.026  11.781  19.925  0.00  0.00    +0.000 C 
ENDROOT
BRANCH   1   2
ATOM      2  C   UNL     1      -0.050  10.599  19.890  0.00  0.00    +0.000 A 
ATOM      3  C   UNL     1      -0.048   9.554  20.820  0.00  0.00    +0.000 A 
ATOM      4  C   UNL     1       0.759   8.417  20.637  0.00  0.00    +0.000 A 
ATOM      5  C   UNL     1       1.590   8.355  19.503  0.00  0.00    +0.000 A 
ATOM      6  C   UNL     1       1.642   9.399  18.579  0.00  0.00    +0.000 A 
ATOM      7  C   UNL     1       2.501   9.003  17.528  0.00  0.00    +0.000 A 
ATOM      8  C   UNL     1       2.810   7.677  17.731  0.00  0.00    +0.000 A 
ATOM      9  N   UNL     1       2.415   7.339  19.008  0.00  0.00    +0.000 N 
ATOM     10  C   UNL     1       0.853  10.540  18.809  0.00  0.00    +0.000 A 
BRANCH   9  11
ATOM     11  C   UNL     1       2.691   6.122  19.674  0.00  0.00    +0.000 A 
ATOM     12  C   UNL     1       1.736   5.612  20.559  0.00  0.00    +0.000 A 
ATOM     13  C   UNL     1       1.868   4.314  21.046  0.00  0.00    +0.000 A 
ATOM     14  C   UNL     1       2.962   3.554  20.645  0.00  0.00    +0.000 A 
ATOM     15  F   UNL     1       3.029   2.267  21.013  0.00  0.00    +0.000 F 
ATOM     16  C   UNL     1       3.964   4.092  19.842  0.00  0.00    +0.000 A 
ATOM     17  C   UNL     1       3.849   5.402  19.369  0.00  0.00    +0.000 A 
ENDBRANCH   9  11
ENDBRANCH   1   2
BRANCH   1  18
ATOM     18  C   UNL     1      -2.271  11.562  19.061  0.00  0.00    +0.000 A 
ATOM     19  C   UNL     1      -3.501  12.166  19.345  0.00  0.00    +0.000 A 
ATOM     20  C   UNL     1      -4.659  11.781  18.668  0.00  0.00    +0.000 A 
ATOM     21  C   UNL     1      -4.596  10.811  17.673  0.00  0.00    +0.000 A 
ATOM     22  C   UNL     1      -3.370  10.250  17.328  0.00  0.00    +0.000 A 
ATOM     23  C   UNL     1      -2.215  10.625  18.013  0.00  0.00    +0.000 A 
ENDBRANCH   1  18
BRANCH   1  25
ATOM     24  C   UNL     1      -1.477  14.225  20.488  0.00  0.00    +0.000 C 
ATOM     25  C   UNL     1      -0.442  13.252  19.840  0.00  0.00    +0.000 C 
ATOM     26  C   UNL     1      -0.181  13.791  18.420  0.00  0.00    +0.000 C 
BRANCH  25  27
ATOM     27  C   UNL     1       0.857  13.384  20.687  0.00  0.00    +0.000 C 
ATOM     28  O   UNL     1       0.854  13.107  21.885  0.00  0.00    +0.000 OA
ATOM     29  N   UNL     1       1.952  13.846  19.994  0.00  0.00    +0.000 N 
ATOM     30  C   UNL     1       3.152  14.099  20.597  0.00  0.00    +0.000 A 
ATOM     31  N   UNL     1       3.538  13.873  21.824  0.00  0.00    +0.000 NA
ATOM     32  C   UNL     1       4.813  14.368  22.002  0.00  0.00    +0.000 A 
ATOM     33  C   UNL     1       5.368  14.984  20.901  0.00  0.00    +0.000 A 
ATOM     34  S   UNL     1       4.283  14.873  19.575  0.00  0.00    +0.000 S 
ATOM     35  H   UNL     1       1.904  14.064  19.013  0.00  0.00    +0.000 HD
ENDBRANCH  25  27
ENDBRANCH   1  25
TORSDOF 5
ENDMDL
