MODEL 1
REMARK VINA RESULT:      -7.2      0.000      0.000
REMARK  Name = 
REMARK  7 active torsions:
REMARK  status: ('A' for Active; 'I' for Inactive)
REMARK    1  A    between atoms: C_1  and  O_2
REMARK    2  A    between atoms: O_2  and  C_3
REMARK    3  A    between atoms: C_11  and  N_12
REMARK    4  A    between atoms: C_11  and  C_13
REMARK    5  A    between atoms: N_15  and  C_16
REMARK    6  A    between atoms: C_16  and  C_17
REMARK    7  A    between atoms: C_17  and  C_18
REMARK                            x       y       z     vdW  Elec       q    Type
REMARK                         _______ _______ _______ _____ _____    ______ ____
ROOT
ATOM      1  C   UNL     1       1.782   7.670  20.204  0.00  0.00    +0.000 A 
ATOM      2  C   UNL     1       1.951   8.636  19.207  0.00  0.00    +0.000 A 
ATOM      3  C   UNL     1       2.292   8.260  17.898  0.00  0.00    +0.000 A 
ATOM      4  C   UNL     1       2.487   6.919  17.573  0.00  0.00    +0.000 A 
ATOM      5  C   UNL     1       2.350   5.963  18.570  0.00  0.00    +0.000 A 
ATOM      6  C   UNL     1       1.997   6.337  19.871  0.00  0.00    +0.000 A 
ATOM      7  C   UNL     1       1.907   5.154  20.777  0.00  0.00    +0.000 C 
ATOM      8  C   UNL     1       2.148   3.952  19.848  0.00  0.00    +0.000 C 
ATOM      9  C   UNL     1       2.566   4.474  18.450  0.00  0.00    +0.000 C 
ENDROOT
BRANCH   9  10
ATOM     10  C   UNL     1       4.065   4.150  18.140  0.00  0.00    +0.000 C 
ATOM     11  O   UNL     1       4.924   3.973  19.002  0.00  0.00    +0.000 OA
ATOM     12  N   UNL     1       4.350   4.127  16.786  0.00  0.00    +0.000 N 
ATOM     13  H   UNL     1       3.528   4.000  16.195  0.00  0.00    +0.000 HD
BRANCH  12  14
ATOM     14  C   UNL     1       5.640   3.736  16.259  0.00  0.00    +0.000 C 
BRANCH  14  15
ATOM     15  C   UNL     1       6.446   4.901  15.677  0.00  0.00    +0.000 C 
BRANCH  15  16
ATOM     16  C   UNL     1       7.005   5.792  16.741  0.00  0.00    +0.000 A 
ATOM     17  N   UNL     1       7.169   7.098  16.668  0.00  0.00    +0.000 NA
ATOM     18  C   UNL     1       7.722   7.470  17.866  0.00  0.00    +0.000 A 
ATOM     19  C   UNL     1       7.897   6.378  18.680  0.00  0.00    +0.000 A 
ATOM     20  N   UNL     1       7.441   5.314  17.954  0.00  0.00    +0.000 N 
ATOM     21  H   UNL     1       7.432   4.346  18.250  0.00  0.00    +0.000 HD
ENDBRANCH  15  16
ENDBRANCH  14  15
ENDBRANCH  12  14
ENDBRANCH   9  10
BRANCH   9  22
ATOM     22  N   UNL     1       1.699   3.905  17.388  0.00  0.00    +0.000 NA
ATOM     23  H   UNL     1       1.504   2.933  17.625  0.00  0.00    +0.000 HD
ATOM     24  H   UNL     1       2.232   3.882  16.514  0.00  0.00    +0.000 HD
ENDBRANCH   9  22
BRANCH   1  26
ATOM     25  C   UNL     1       0.420   8.888  21.700  0.00  0.00    +0.000 C 
ATOM     26  O   UNL     1       1.458   7.933  21.505  0.00  0.00    +0.000 OA
ENDBRANCH   1  26
TORSDOF 6
ENDMDL
MODEL 2
REMARK VINA RESULT:      -7.2      1.060      1.923
REMARK  Name = 
REMARK  7 active torsions:
REMARK  status: ('A' for Active; 'I' for Inactive)
REMARK    1  A    between atoms: C_1  and  O_2
REMARK    2  A    between atoms: O_2  and  C_3
REMARK    3  A    between atoms: C_11  and  N_12
REMARK    4  A    between atoms: C_11  and  C_13
REMARK    5  A    between atoms: N_15  and  C_16
REMARK    6  A    between atoms: C_16  and  C_17
REMARK    7  A    between atoms: C_17  and  C_18
REMARK                            x       y       z     vdW  Elec       q    Type
REMARK                         _______ _______ _______ _____ _____    ______ ____
ROOT
ATOM      1  C   UNL     1       1.648   7.620  20.108  0.00  0.00    +0.000 A 
ATOM      2  C   UNL     1       2.002   8.523  19.101  0.00  0.00    +0.000 A 
ATOM      3  C   UNL     1       2.754   8.100  17.994  0.00  0.00    +0.000 A 
ATOM      4  C   UNL     1       3.177   6.777  17.888  0.00  0.00    +0.000 A 
ATOM      5  C   UNL     1       2.853   5.888  18.903  0.00  0.00    +0.000 A 
ATOM      6  C   UNL     1       2.092   6.307  19.999  0.00  0.00    +0.000 A 
ATOM      7  C   UNL     1       1.864   5.193  20.967  0.00  0.00    +0.000 C 
ATOM      8  C   UNL     1       2.496   3.969  20.285  0.00  0.00    +0.000 C 
ATOM      9  C   UNL     1       3.252   4.436  19.015  0.00  0.00    +0.000 C 
ENDROOT
BRANCH   9  10
ATOM     10  C   UNL     1       4.801   4.294  19.183  0.00  0.00    +0.000 C 
ATOM     11  O   UNL     1       5.378   3.225  19.375  0.00  0.00    +0.000 OA
ATOM     12  N   UNL     1       5.468   5.505  19.142  0.00  0.00    +0.000 N 
ATOM     13  H   UNL     1       4.934   6.255  18.699  0.00  0.00    +0.000 HD
BRANCH  12  14
ATOM     14  C   UNL     1       6.912   5.611  19.160  0.00  0.00    +0.000 C 
BRANCH  14  15
ATOM     15  C   UNL     1       7.493   6.316  17.931  0.00  0.00    +0.000 C 
BRANCH  15  16
ATOM     16  C   UNL     1       6.949   5.765  16.651  0.00  0.00    +0.000 A 
ATOM     17  N   UNL     1       5.898   6.204  15.987  0.00  0.00    +0.000 NA
ATOM     18  C   UNL     1       5.779   5.385  14.895  0.00  0.00    +0.000 A 
ATOM     19  C   UNL     1       6.770   4.434  14.891  0.00  0.00    +0.000 A 
ATOM     20  N   UNL     1       7.508   4.682  16.014  0.00  0.00    +0.000 N 
ATOM     21  H   UNL     1       8.315   4.158  16.328  0.00  0.00    +0.000 HD
ENDBRANCH  15  16
ENDBRANCH  14  15
ENDBRANCH  12  14
ENDBRANCH   9  10
BRANCH   9  22
ATOM     22  N   UNL     1       2.805   3.679  17.819  0.00  0.00    +0.000 NA
ATOM     23  H   UNL     1       2.768   2.691  18.066  0.00  0.00    +0.000 HD
ATOM     24  H   UNL     1       3.524   3.764  17.095  0.00  0.00    +0.000 HD
ENDBRANCH   9  22
BRANCH   1  26
ATOM     25  C   UNL     1       1.153   9.235  21.759  0.00  0.00    +0.000 C 
ATOM     26  O   UNL     1       0.927   7.934  21.226  0.00  0.00    +0.000 OA
ENDBRANCH   1  26
TORSDOF 6
ENDMDL
MODEL 3
REMARK VINA RESULT:      -7.0      2.723      5.782
REMARK  Name = 
REMARK  7 active torsions:
REMARK  status: ('A' for Active; 'I' for Inactive)
REMARK    1  A    between atoms: C_1  and  O_2
REMARK    2  A    between atoms: O_2  and  C_3
REMARK    3  A    between atoms: C_11  and  N_12
REMARK    4  A    between atoms: C_11  and  C_13
REMARK    5  A    between atoms: N_15  and  C_16
REMARK    6  A    between atoms: C_16  and  C_17
REMARK    7  A    between atoms: C_17  and  C_18
REMARK                            x       y       z     vdW  Elec       q    Type
REMARK                         _______ _______ _______ _____ _____    ______ ____
ROOT
ATOM      1  C   UNL     1       7.433   7.292  17.645  0.00  0.00    +0.000 A 
ATOM      2  C   UNL     1       8.132   6.750  18.728  0.00  0.00    +0.000 A 
ATOM      3  C   UNL     1       8.056   5.378  19.013  0.00  0.00    +0.000 A 
ATOM      4  C   UNL     1       7.268   4.534  18.233  0.00  0.00    +0.000 A 
ATOM      5  C   UNL     1       6.549   5.077  17.177  0.00  0.00    +0.000 A 
ATOM      6  C   UNL     1       6.636   6.442  16.885  0.00  0.00    +0.000 A 
ATOM      7  C   UNL     1       5.783   6.809  15.716  0.00  0.00    +0.000 C 
ATOM      8  C   UNL     1       5.217   5.464  15.229  0.00  0.00    +0.000 C 
ATOM      9  C   UNL     1       5.601   4.360  16.246  0.00  0.00    +0.000 C 
ENDROOT
BRANCH   9  10
ATOM     10  C   UNL     1       4.348   3.834  17.022  0.00  0.00    +0.000 C 
ATOM     11  O   UNL     1       3.355   4.514  17.270  0.00  0.00    +0.000 OA
ATOM     12  N   UNL     1       4.482   2.525  17.450  0.00  0.00    +0.000 N 
ATOM     13  H   UNL     1       5.196   1.997  16.947  0.00  0.00    +0.000 HD
BRANCH  12  14
ATOM     14  C   UNL     1       3.409   1.790  18.086  0.00  0.00    +0.000 C 
BRANCH  14  15
ATOM     15  C   UNL     1       3.358   1.964  19.606  0.00  0.00    +0.000 C 
BRANCH  15  16
ATOM     16  C   UNL     1       2.502   3.120  20.016  0.00  0.00    +0.000 A 
ATOM     17  N   UNL     1       1.186   3.142  20.082  0.00  0.00    +0.000 NA
ATOM     18  C   UNL     1       0.854   4.408  20.489  0.00  0.00    +0.000 A 
ATOM     19  C   UNL     1       1.982   5.169  20.673  0.00  0.00    +0.000 A 
ATOM     20  N   UNL     1       3.026   4.343  20.367  0.00  0.00    +0.000 N 
ATOM     21  H   UNL     1       4.008   4.585  20.386  0.00  0.00    +0.000 HD
ENDBRANCH  15  16
ENDBRANCH  14  15
ENDBRANCH  12  14
ENDBRANCH   9  10
BRANCH   9  22
ATOM     22  N   UNL     1       6.286   3.229  15.573  0.00  0.00    +0.000 NA
ATOM     23  H   UNL     1       7.218   3.138  15.975  0.00  0.00    +0.000 HD
ATOM     24  H   UNL     1       6.426   3.476  14.588  0.00  0.00    +0.000 HD
ENDBRANCH   9  22
BRANCH   1  26
ATOM     25  C   UNL     1       8.300   9.451  18.048  0.00  0.00    +0.000 C 
ATOM     26  O   UNL     1       7.435   8.612  17.289  0.00  0.00    +0.000 OA
ENDBRANCH   1  26
TORSDOF 6
ENDMDL
MODEL 4
REMARK VINA RESULT:      -6.9      2.877      5.202
REMARK  Name = 
REMARK  7 active torsions:
REMARK  status: ('A' for Active; 'I' for Inactive)
REMARK    1  A    between atoms: C_1  and  O_2
REMARK    2  A    between atoms: O_2  and  C_3
REMARK    3  A    between atoms: C_11  and  N_12
REMARK    4  A    between atoms: C_11  and  C_13
REMARK    5  A    between atoms: N_15  and  C_16
REMARK    6  A    between atoms: C_16  and  C_17
REMARK    7  A    between atoms: C_17  and  C_18
REMARK                            x       y       z     vdW  Elec       q    Type
REMARK                         _______ _______ _______ _____ _____    ______ ____
ROOT
ATOM      1  C   UNL     1       3.071   3.553  17.598  0.00  0.00    +0.000 A 
ATOM      2  C   UNL     1       2.151   4.333  18.305  0.00  0.00    +0.000 A 
ATOM      3  C   UNL     1       2.314   5.724  18.397  0.00  0.00    +0.000 A 
ATOM      4  C   UNL     1       3.406   6.351  17.799  0.00  0.00    +0.000 A 
ATOM      5  C   UNL     1       4.337   5.573  17.124  0.00  0.00    +0.000 A 
ATOM      6  C   UNL     1       4.166   4.188  17.022  0.00  0.00    +0.000 A 
ATOM      7  C   UNL     1       5.280   3.553  16.259  0.00  0.00    +0.000 C 
ATOM      8  C   UNL     1       6.138   4.740  15.791  0.00  0.00    +0.000 C 
ATOM      9  C   UNL     1       5.609   6.035  16.457  0.00  0.00    +0.000 C 
ENDROOT
BRANCH   9  10
ATOM     10  C   UNL     1       6.622   6.594  17.511  0.00  0.00    +0.000 C 
ATOM     11  O   UNL     1       6.916   6.018  18.556  0.00  0.00    +0.000 OA
ATOM     12  N   UNL     1       7.128   7.838  17.175  0.00  0.00    +0.000 N 
ATOM     13  H   UNL     1       7.038   8.065  16.184  0.00  0.00    +0.000 HD
BRANCH  12  14
ATOM     14  C   UNL     1       8.165   8.498  17.939  0.00  0.00    +0.000 C 
BRANCH  14  15
ATOM     15  C   UNL     1       8.272  10.000  17.661  0.00  0.00    +0.000 C 
BRANCH  15  16
ATOM     16  C   UNL     1       9.250  10.677  18.569  0.00  0.00    +0.000 A 
ATOM     17  N   UNL     1       9.354  10.519  19.873  0.00  0.00    +0.000 NA
ATOM     18  C   UNL     1      10.371  11.347  20.269  0.00  0.00    +0.000 A 
ATOM     19  C   UNL     1      10.894  12.021  19.193  0.00  0.00    +0.000 A 
ATOM     20  N   UNL     1      10.173  11.590  18.116  0.00  0.00    +0.000 N 
ATOM     21  H   UNL     1      10.288  11.893  17.157  0.00  0.00    +0.000 HD
ENDBRANCH  15  16
ENDBRANCH  14  15
ENDBRANCH  12  14
ENDBRANCH   9  10
BRANCH   9  22
ATOM     22  N   UNL     1       5.316   7.077  15.440  0.00  0.00    +0.000 NA
ATOM     23  H   UNL     1       6.117   7.142  14.814  0.00  0.00    +0.000 HD
ATOM     24  H   UNL     1       5.252   7.982  15.914  0.00  0.00    +0.000 HD
ENDBRANCH   9  22
BRANCH   1  26
ATOM     25  C   UNL     1       3.455   1.439  18.578  0.00  0.00    +0.000 C 
ATOM     26  O   UNL     1       3.006   2.195  17.458  0.00  0.00    +0.000 OA
ENDBRANCH   1  26
TORSDOF 6
ENDMDL
MODEL 5
REMARK VINA RESULT:      -6.9      1.158      1.882
REMARK  Name = 
REMARK  7 active torsions:
REMARK  status: ('A' for Active; 'I' for Inactive)
REMARK    1  A    between atoms: C_1  and  O_2
REMARK    2  A    between atoms: O_2  and  C_3
REMARK    3  A    between atoms: C_11  and  N_12
REMARK    4  A    between atoms: C_11  and  C_13
REMARK    5  A    between atoms: N_15  and  C_16
REMARK    6  A    between atoms: C_16  and  C_17
REMARK    7  A    between atoms: C_17  and  C_18
REMARK                            x       y       z     vdW  Elec       q    Type
REMARK                         _______ _______ _______ _____ _____    ______ ____
ROOT
ATOM      1  C   UNL     1       1.766   7.827  20.192  0.00  0.00    +0.000 A 
ATOM      2  C   UNL     1       2.091   8.695  19.145  0.00  0.00    +0.000 A 
ATOM      3  C   UNL     1       2.462   8.193  17.889  0.00  0.00    +0.000 A 
ATOM      4  C   UNL     1       2.529   6.819  17.666  0.00  0.00    +0.000 A 
ATOM      5  C   UNL     1       2.237   5.956  18.714  0.00  0.00    +0.000 A 
ATOM      6  C   UNL     1       1.855   6.458  19.962  0.00  0.00    +0.000 A 
ATOM      7  C   UNL     1       1.591   5.360  20.938  0.00  0.00    +0.000 C 
ATOM      8  C   UNL     1       1.753   4.075  20.109  0.00  0.00    +0.000 C 
ATOM      9  C   UNL     1       2.299   4.448  18.707  0.00  0.00    +0.000 C 
ENDROOT
BRANCH   9  10
ATOM     10  C   UNL     1       3.771   3.951  18.513  0.00  0.00    +0.000 C 
ATOM     11  O   UNL     1       4.072   2.877  17.996  0.00  0.00    +0.000 OA
ATOM     12  N   UNL     1       4.714   4.824  19.026  0.00  0.00    +0.000 N 
ATOM     13  H   UNL     1       4.367   5.775  19.156  0.00  0.00    +0.000 HD
BRANCH  12  14
ATOM     14  C   UNL     1       6.139   4.630  18.860  0.00  0.00    +0.000 C 
BRANCH  14  15
ATOM     15  C   UNL     1       6.785   5.621  17.887  0.00  0.00    +0.000 C 
BRANCH  15  16
ATOM     16  C   UNL     1       6.769   5.125  16.476  0.00  0.00    +0.000 A 
ATOM     17  N   UNL     1       7.220   5.759  15.413  0.00  0.00    +0.000 NA
ATOM     18  C   UNL     1       6.980   4.925  14.352  0.00  0.00    +0.000 A 
ATOM     19  C   UNL     1       6.375   3.767  14.774  0.00  0.00    +0.000 A 
ATOM     20  N   UNL     1       6.242   3.904  16.126  0.00  0.00    +0.000 N 
ATOM     21  H   UNL     1       5.823   3.234  16.759  0.00  0.00    +0.000 HD
ENDBRANCH  15  16
ENDBRANCH  14  15
ENDBRANCH  12  14
ENDBRANCH   9  10
BRANCH   9  22
ATOM     22  N   UNL     1       1.436   3.895  17.634  0.00  0.00    +0.000 NA
ATOM     23  H   UNL     1       0.487   4.233  17.785  0.00  0.00    +0.000 HD
ATOM     24  H   UNL     1       1.397   2.877  17.743  0.00  0.00    +0.000 HD
ENDBRANCH   9  22
BRANCH   1  26
ATOM     25  C   UNL     1       0.657   9.427  21.529  0.00  0.00    +0.000 C 
ATOM     26  O   UNL     1       1.402   8.216  21.451  0.00  0.00    +0.000 OA
ENDBRANCH   1  26
TORSDOF 6
ENDMDL
MODEL 6
REMARK VINA RESULT:      -6.8      2.756      4.636
REMARK  Name = 
REMARK  7 active torsions:
REMARK  status: ('A' for Active; 'I' for Inactive)
REMARK    1  A    between atoms: C_1  and  O_2
REMARK    2  A    between atoms: O_2  and  C_3
REMARK    3  A    between atoms: C_11  and  N_12
REMARK    4  A    between atoms: C_11  and  C_13
REMARK    5  A    between atoms: N_15  and  C_16
REMARK    6  A    between atoms: C_16  and  C_17
REMARK    7  A    between atoms: C_17  and  C_18
REMARK                            x       y       z     vdW  Elec       q    Type
REMARK                         _______ _______ _______ _____ _____    ______ ____
ROOT
ATOM      1  C   UNL     1       2.686   4.346  18.654  0.00  0.00    +0.000 A 
ATOM      2  C   UNL     1       2.091   5.472  19.231  0.00  0.00    +0.000 A 
ATOM      3  C   UNL     1       2.563   6.760  18.937  0.00  0.00    +0.000 A 
ATOM      4  C   UNL     1       3.645   6.940  18.077  0.00  0.00    +0.000 A 
ATOM      5  C   UNL     1       4.256   5.821  17.529  0.00  0.00    +0.000 A 
ATOM      6  C   UNL     1       3.776   4.538  17.812  0.00  0.00    +0.000 A 
ATOM      7  C   UNL     1       4.579   3.487  17.121  0.00  0.00    +0.000 C 
ATOM      8  C   UNL     1       5.580   4.282  16.265  0.00  0.00    +0.000 C 
ATOM      9  C   UNL     1       5.464   5.785  16.624  0.00  0.00    +0.000 C 
ENDROOT
BRANCH   9  10
ATOM     10  C   UNL     1       6.739   6.296  17.375  0.00  0.00    +0.000 C 
ATOM     11  O   UNL     1       7.462   5.584  18.068  0.00  0.00    +0.000 OA
ATOM     12  N   UNL     1       6.954   7.654  17.221  0.00  0.00    +0.000 N 
ATOM     13  H   UNL     1       6.475   8.059  16.415  0.00  0.00    +0.000 HD
BRANCH  12  14
ATOM     14  C   UNL     1       8.132   8.327  17.726  0.00  0.00    +0.000 C 
BRANCH  14  15
ATOM     15  C   UNL     1       7.997   9.851  17.775  0.00  0.00    +0.000 C 
BRANCH  15  16
ATOM     16  C   UNL     1       9.117  10.496  18.530  0.00  0.00    +0.000 A 
ATOM     17  N   UNL     1       9.273  10.520  19.839  0.00  0.00    +0.000 NA
ATOM     18  C   UNL     1      10.423  11.231  20.063  0.00  0.00    +0.000 A 
ATOM     19  C   UNL     1      10.976  11.647  18.877  0.00  0.00    +0.000 A 
ATOM     20  N   UNL     1      10.135  11.177  17.907  0.00  0.00    +0.000 N 
ATOM     21  H   UNL     1      10.237  11.312  16.909  0.00  0.00    +0.000 HD
ENDBRANCH  15  16
ENDBRANCH  14  15
ENDBRANCH  12  14
ENDBRANCH   9  10
BRANCH   9  22
ATOM     22  N   UNL     1       5.232   6.607  15.411  0.00  0.00    +0.000 NA
ATOM     23  H   UNL     1       4.911   7.527  15.708  0.00  0.00    +0.000 HD
ATOM     24  H   UNL     1       4.458   6.193  14.883  0.00  0.00    +0.000 HD
ENDBRANCH   9  22
BRANCH   1  26
ATOM     25  C   UNL     1       0.960   2.738  18.540  0.00  0.00    +0.000 C 
ATOM     26  O   UNL     1       2.307   3.053  18.882  0.00  0.00    +0.000 OA
ENDBRANCH   1  26
TORSDOF 6
ENDMDL
MODEL 7
REMARK VINA RESULT:      -6.8      2.476      5.429
REMARK  Name = 
REMARK  7 active torsions:
REMARK  status: ('A' for Active; 'I' for Inactive)
REMARK    1  A    between atoms: C_1  and  O_2
REMARK    2  A    between atoms: O_2  and  C_3
REMARK    3  A    between atoms: C_11  and  N_12
REMARK    4  A    between atoms: C_11  and  C_13
REMARK    5  A    between atoms: N_15  and  C_16
REMARK    6  A    between atoms: C_16  and  C_17
REMARK    7  A    between atoms: C_17  and  C_18
REMARK                            x       y       z     vdW  Elec       q    Type
REMARK                         _______ _______ _______ _____ _____    ______ ____
ROOT
ATOM      1  C   UNL     1       5.406   4.987  16.552  0.00  0.00    +0.000 A 
ATOM      2  C   UNL     1       6.246   5.890  17.211  0.00  0.00    +0.000 A 
ATOM      3  C   UNL     1       6.461   5.789  18.594  0.00  0.00    +0.000 A 
ATOM      4  C   UNL     1       5.828   4.796  19.339  0.00  0.00    +0.000 A 
ATOM      5  C   UNL     1       4.969   3.919  18.692  0.00  0.00    +0.000 A 
ATOM      6  C   UNL     1       4.765   4.013  17.311  0.00  0.00    +0.000 A 
ATOM      7  C   UNL     1       3.807   2.977  16.826  0.00  0.00    +0.000 C 
ATOM      8  C   UNL     1       3.504   2.133  18.075  0.00  0.00    +0.000 C 
ATOM      9  C   UNL     1       4.146   2.815  19.309  0.00  0.00    +0.000 C 
ENDROOT
BRANCH   9  10
ATOM     10  C   UNL     1       3.060   3.400  20.273  0.00  0.00    +0.000 C 
ATOM     11  O   UNL     1       2.856   2.986  21.412  0.00  0.00    +0.000 OA
ATOM     12  N   UNL     1       2.309   4.410  19.699  0.00  0.00    +0.000 N 
ATOM     13  H   UNL     1       2.753   4.844  18.889  0.00  0.00    +0.000 HD
BRANCH  12  14
ATOM     14  C   UNL     1       1.326   5.177  20.435  0.00  0.00    +0.000 C 
BRANCH  14  15
ATOM     15  C   UNL     1       1.767   6.611  20.740  0.00  0.00    +0.000 C 
BRANCH  15  16
ATOM     16  C   UNL     1       2.131   7.368  19.502  0.00  0.00    +0.000 A 
ATOM     17  N   UNL     1       2.985   6.992  18.571  0.00  0.00    +0.000 NA
ATOM     18  C   UNL     1       3.000   8.006  17.649  0.00  0.00    +0.000 A 
ATOM     19  C   UNL     1       2.145   9.013  18.021  0.00  0.00    +0.000 A 
ATOM     20  N   UNL     1       1.599   8.600  19.203  0.00  0.00    +0.000 N 
ATOM     21  H   UNL     1       0.929   9.111  19.765  0.00  0.00    +0.000 HD
ENDBRANCH  15  16
ENDBRANCH  14  15
ENDBRANCH  12  14
ENDBRANCH   9  10
BRANCH   9  22
ATOM     22  N   UNL     1       5.016   1.867  20.049  0.00  0.00    +0.000 NA
ATOM     23  H   UNL     1       5.126   1.028  19.482  0.00  0.00    +0.000 HD
ATOM     24  H   UNL     1       4.525   1.573  20.899  0.00  0.00    +0.000 HD
ENDBRANCH   9  22
BRANCH   1  26
ATOM     25  C   UNL     1       6.081   4.362  14.378  0.00  0.00    +0.000 C 
ATOM     26  O   UNL     1       5.126   5.007  15.215  0.00  0.00    +0.000 OA
ENDBRANCH   1  26
TORSDOF 6
ENDMDL
MODEL 8
REMARK VINA RESULT:      -6.8      1.656      2.580
REMARK  Name = 
REMARK  7 active torsions:
REMARK  status: ('A' for Active; 'I' for Inactive)
REMARK    1  A    between atoms: C_1  and  O_2
REMARK    2  A    between atoms: O_2  and  C_3
REMARK    3  A    between atoms: C_11  and  N_12
REMARK    4  A    between atoms: C_11  and  C_13
REMARK    5  A    between atoms: N_15  and  C_16
REMARK    6  A    between atoms: C_16  and  C_17
REMARK    7  A    between atoms: C_17  and  C_18
REMARK                            x       y       z     vdW  Elec       q    Type
REMARK                         _______ _______ _______ _____ _____    ______ ____
ROOT
ATOM      1  C   UNL     1       1.769   7.497  20.159  0.00  0.00    +0.000 A 
ATOM      2  C   UNL     1       1.922   8.500  19.196  0.00  0.00    +0.000 A 
ATOM      3  C   UNL     1       2.509   8.214  17.953  0.00  0.00    +0.000 A 
ATOM      4  C   UNL     1       2.965   6.930  17.663  0.00  0.00    +0.000 A 
ATOM      5  C   UNL     1       2.842   5.942  18.630  0.00  0.00    +0.000 A 
ATOM      6  C   UNL     1       2.246   6.224  19.863  0.00  0.00    +0.000 A 
ATOM      7  C   UNL     1       2.219   5.022  20.748  0.00  0.00    +0.000 C 
ATOM      8  C   UNL     1       2.787   3.897  19.868  0.00  0.00    +0.000 C 
ATOM      9  C   UNL     1       3.314   4.510  18.546  0.00  0.00    +0.000 C 
ENDROOT
BRANCH   9  10
ATOM     10  C   UNL     1       4.875   4.441  18.462  0.00  0.00    +0.000 C 
ATOM     11  O   UNL     1       5.613   4.335  19.440  0.00  0.00    +0.000 OA
ATOM     12  N   UNL     1       5.358   4.557  17.171  0.00  0.00    +0.000 N 
ATOM     13  H   UNL     1       4.664   4.349  16.451  0.00  0.00    +0.000 HD
BRANCH  12  14
ATOM     14  C   UNL     1       6.758   4.405  16.837  0.00  0.00    +0.000 C 
BRANCH  14  15
ATOM     15  C   UNL     1       7.231   5.345  15.725  0.00  0.00    +0.000 C 
BRANCH  15  16
ATOM     16  C   UNL     1       6.990   4.778  14.361  0.00  0.00    +0.000 A 
ATOM     17  N   UNL     1       6.181   3.785  14.053  0.00  0.00    +0.000 NA
ATOM     18  C   UNL     1       6.301   3.612  12.699  0.00  0.00    +0.000 A 
ATOM     19  C   UNL     1       7.195   4.512  12.174  0.00  0.00    +0.000 A 
ATOM     20  N   UNL     1       7.631   5.248  13.239  0.00  0.00    +0.000 N 
ATOM     21  H   UNL     1       8.309   5.999  13.212  0.00  0.00    +0.000 HD
ENDBRANCH  15  16
ENDBRANCH  14  15
ENDBRANCH  12  14
ENDBRANCH   9  10
BRANCH   9  22
ATOM     22  N   UNL     1       2.717   3.832  17.368  0.00  0.00    +0.000 NA
ATOM     23  H   UNL     1       2.399   4.549  16.717  0.00  0.00    +0.000 HD
ATOM     24  H   UNL     1       1.876   3.334  17.674  0.00  0.00    +0.000 HD
ENDBRANCH   9  22
BRANCH   1  26
ATOM     25  C   UNL     1       0.402   8.831  21.547  0.00  0.00    +0.000 C 
ATOM     26  O   UNL     1       1.220   7.675  21.397  0.00  0.00    +0.000 OA
ENDBRANCH   1  26
TORSDOF 6
ENDMDL
MODEL 9
REMARK VINA RESULT:      -6.7      2.659      6.168
REMARK  Name = 
REMARK  7 active torsions:
REMARK  status: ('A' for Active; 'I' for Inactive)
REMARK    1  A    between atoms: C_1  and  O_2
REMARK    2  A    between atoms: O_2  and  C_3
REMARK    3  A    between atoms: C_11  and  N_12
REMARK    4  A    between atoms: C_11  and  C_13
REMARK    5  A    between atoms: N_15  and  C_16
REMARK    6  A    between atoms: C_16  and  C_17
REMARK    7  A    between atoms: C_17  and  C_18
REMARK                            x       y       z     vdW  Elec       q    Type
REMARK                         _______ _______ _______ _____ _____    ______ ____
ROOT
ATOM      1  C   UNL     1       6.375   5.660  16.476  0.00  0.00    +0.000 A 
ATOM      2  C   UNL     1       7.272   6.363  17.286  0.00  0.00    +0.000 A 
ATOM      3  C   UNL     1       7.304   6.146  18.672  0.00  0.00    +0.000 A 
ATOM      4  C   UNL     1       6.431   5.239  19.268  0.00  0.00    +0.000 A 
ATOM      5  C   UNL     1       5.519   4.565  18.469  0.00  0.00    +0.000 A 
ATOM      6  C   UNL     1       5.496   4.772  17.086  0.00  0.00    +0.000 A 
ATOM      7  C   UNL     1       4.441   3.949  16.425  0.00  0.00    +0.000 C 
ATOM      8  C   UNL     1       3.857   3.101  17.567  0.00  0.00    +0.000 C 
ATOM      9  C   UNL     1       4.456   3.588  18.911  0.00  0.00    +0.000 C 
ENDROOT
BRANCH   9  10
ATOM     10  C   UNL     1       3.379   4.297  19.796  0.00  0.00    +0.000 C 
ATOM     11  O   UNL     1       2.829   3.774  20.764  0.00  0.00    +0.000 OA
ATOM     12  N   UNL     1       3.063   5.571  19.357  0.00  0.00    +0.000 N 
ATOM     13  H   UNL     1       3.772   5.984  18.749  0.00  0.00    +0.000 HD
BRANCH  12  14
ATOM     14  C   UNL     1       2.181   6.459  20.083  0.00  0.00    +0.000 C 
BRANCH  14  15
ATOM     15  C   UNL     1       2.074   7.858  19.470  0.00  0.00    +0.000 C 
BRANCH  15  16
ATOM     16  C   UNL     1       1.284   8.795  20.328  0.00  0.00    +0.000 A 
ATOM     17  N   UNL     1       0.540   9.802  19.917  0.00  0.00    +0.000 NA
ATOM     18  C   UNL     1       0.028  10.375  21.051  0.00  0.00    +0.000 A 
ATOM     19  C   UNL     1       0.466   9.709  22.170  0.00  0.00    +0.000 A 
ATOM     20  N   UNL     1       1.267   8.707  21.700  0.00  0.00    +0.000 N 
ATOM     21  H   UNL     1       1.766   8.027  22.259  0.00  0.00    +0.000 HD
ENDBRANCH  15  16
ENDBRANCH  14  15
ENDBRANCH  12  14
ENDBRANCH   9  10
BRANCH   9  22
ATOM     22  N   UNL     1       5.063   2.461  19.663  0.00  0.00    +0.000 NA
ATOM     23  H   UNL     1       4.547   1.613  19.434  0.00  0.00    +0.000 HD
ATOM     24  H   UNL     1       4.913   2.624  20.664  0.00  0.00    +0.000 HD
ENDBRANCH   9  22
BRANCH   1  26
ATOM     25  C   UNL     1       7.086   4.948  14.340  0.00  0.00    +0.000 C 
ATOM     26  O   UNL     1       6.260   5.805  15.122  0.00  0.00    +0.000 OA
ENDBRANCH   1  26
TORSDOF 6
ENDMDL
