MODEL 1
REMARK VINA RESULT:      -8.2      0.000      0.000
REMARK  Name = 
REMARK  4 active torsions:
REMARK  status: ('A' for Active; 'I' for Inactive)
REMARK    1  A    between atoms: C_2  and  O_3
REMARK    2  A    between atoms: C_2  and  C_4
REMARK    3  A    between atoms: C_9  and  C_10
REMARK    4  A    between atoms: C_12  and  C_13
REMARK                            x       y       z     vdW  Elec       q    Type
REMARK                         _______ _______ _______ _____ _____    ______ ____
ROOT
ATOM      1  C   UNL     1       5.732   5.390  15.507  0.00  0.00    +0.000 C 
ATOM      2  O   UNL     1       5.412   6.547  15.260  0.00  0.00    +0.000 OA
ATOM      3  N   UNL     1       5.371   4.560  16.538  0.00  0.00    +0.000 N 
ATOM      4  C   UNL     1       4.542   5.005  17.522  0.00  0.00    +0.000 A 
ATOM      5  N   UNL     1       3.801   6.079  17.517  0.00  0.00    +0.000 NA
ATOM      6  C   UNL     1       3.267   6.262  18.774  0.00  0.00    +0.000 A 
ATOM      7  C   UNL     1       3.579   5.290  19.702  0.00  0.00    +0.000 A 
ATOM      8  S   UNL     1       4.526   4.069  18.946  0.00  0.00    +0.000 S 
ATOM      9  H   UNL     1       5.857   3.680  16.662  0.00  0.00    +0.000 HD
ENDROOT
BRANCH   6  10
ATOM     10  C   UNL     1       2.439   7.449  19.078  0.00  0.00    +0.000 A 
ATOM     11  C   UNL     1       1.753   7.677  20.244  0.00  0.00    +0.000 A 
ATOM     12  C   UNL     1       1.152   8.954  20.089  0.00  0.00    +0.000 A 
ATOM     13  N   UNL     1       1.423   9.438  18.865  0.00  0.00    +0.000 NA
ATOM     14  O   UNL     1       2.236   8.509  18.246  0.00  0.00    +0.000 OA
BRANCH  12  15
ATOM     15  C   UNL     1       0.366   9.714  21.066  0.00  0.00    +0.000 A 
ATOM     16  C   UNL     1      -0.218  10.944  20.726  0.00  0.00    +0.000 A 
ATOM     17  C   UNL     1      -0.994  11.646  21.654  0.00  0.00    +0.000 A 
ATOM     18  C   UNL     1      -1.193  11.130  22.932  0.00  0.00    +0.000 A 
ATOM     19  C   UNL     1      -0.616   9.913  23.286  0.00  0.00    +0.000 A 
ATOM     20  C   UNL     1       0.158   9.211  22.360  0.00  0.00    +0.000 A 
ENDBRANCH  12  15
ENDBRANCH   6  10
BRANCH   1  22
ATOM     21  O   UNL     1       7.773   5.379  14.226  0.00  0.00    +0.000 OA
ATOM     22  C   UNL     1       6.783   4.769  14.584  0.00  0.00    +0.000 C 
BRANCH  22  23
ATOM     23  O   UNL     1       6.431   3.526  14.212  0.00  0.00    +0.000 OA
ATOM     24  H   UNL     1       5.902   3.581  13.379  0.00  0.00    +0.000 HD
ENDBRANCH  22  23
ENDBRANCH   1  22
TORSDOF 4
ENDMDL
MODEL 2
REMARK VINA RESULT:      -8.2      0.080      1.031
REMARK  Name = 
REMARK  4 active torsions:
REMARK  status: ('A' for Active; 'I' for Inactive)
REMARK    1  A    between atoms: C_2  and  O_3
REMARK    2  A    between atoms: C_2  and  C_4
REMARK    3  A    between atoms: C_9  and  C_10
REMARK    4  A    between atoms: C_12  and  C_13
REMARK                            x       y       z     vdW  Elec       q    Type
REMARK                         _______ _______ _______ _____ _____    ______ ____
ROOT
ATOM      1  C   UNL     1       5.704   5.394  15.458  0.00  0.00    +0.000 C 
ATOM      2  O   UNL     1       5.392   6.556  15.226  0.00  0.00    +0.000 OA
ATOM      3  N   UNL     1       5.328   4.551  16.473  0.00  0.00    +0.000 N 
ATOM      4  C   UNL     1       4.490   4.985  17.454  0.00  0.00    +0.000 A 
ATOM      5  N   UNL     1       3.754   6.062  17.457  0.00  0.00    +0.000 NA
ATOM      6  C   UNL     1       3.208   6.229  18.711  0.00  0.00    +0.000 A 
ATOM      7  C   UNL     1       3.505   5.241  19.627  0.00  0.00    +0.000 A 
ATOM      8  S   UNL     1       4.454   4.027  18.864  0.00  0.00    +0.000 S 
ATOM      9  H   UNL     1       5.808   3.666  16.588  0.00  0.00    +0.000 HD
ENDROOT
BRANCH   6  10
ATOM     10  C   UNL     1       2.382   7.415  19.024  0.00  0.00    +0.000 A 
ATOM     11  C   UNL     1       1.718   7.648  20.201  0.00  0.00    +0.000 A 
ATOM     12  C   UNL     1       1.110   8.923  20.051  0.00  0.00    +0.000 A 
ATOM     13  N   UNL     1       1.357   9.400  18.818  0.00  0.00    +0.000 NA
ATOM     14  O   UNL     1       2.160   8.469  18.190  0.00  0.00    +0.000 OA
BRANCH  12  15
ATOM     15  C   UNL     1       0.342   9.687  21.038  0.00  0.00    +0.000 A 
ATOM     16  C   UNL     1       0.162   9.208  22.345  0.00  0.00    +0.000 A 
ATOM     17  C   UNL     1      -0.544   9.960  23.289  0.00  0.00    +0.000 A 
ATOM     18  C   UNL     1      -1.081  11.196  22.939  0.00  0.00    +0.000 A 
ATOM     19  C   UNL     1      -0.915  11.683  21.645  0.00  0.00    +0.000 A 
ATOM     20  C   UNL     1      -0.209  10.934  20.701  0.00  0.00    +0.000 A 
ENDBRANCH  12  15
ENDBRANCH   6  10
BRANCH   1  22
ATOM     21  O   UNL     1       7.760   5.391  14.202  0.00  0.00    +0.000 OA
ATOM     22  C   UNL     1       6.762   4.782  14.538  0.00  0.00    +0.000 C 
BRANCH  22  23
ATOM     23  O   UNL     1       6.408   3.547  14.141  0.00  0.00    +0.000 OA
ATOM     24  H   UNL     1       7.207   2.965  14.157  0.00  0.00    +0.000 HD
ENDBRANCH  22  23
ENDBRANCH   1  22
TORSDOF 4
ENDMDL
MODEL 3
REMARK VINA RESULT:      -7.8      1.935      2.260
REMARK  Name = 
REMARK  4 active torsions:
REMARK  status: ('A' for Active; 'I' for Inactive)
REMARK    1  A    between atoms: C_2  and  O_3
REMARK    2  A    between atoms: C_2  and  C_4
REMARK    3  A    between atoms: C_9  and  C_10
REMARK    4  A    between atoms: C_12  and  C_13
REMARK                            x       y       z     vdW  Elec       q    Type
REMARK                         _______ _______ _______ _____ _____    ______ ____
ROOT
ATOM      1  C   UNL     1       5.667   5.403  15.526  0.00  0.00    +0.000 C 
ATOM      2  O   UNL     1       5.439   6.602  15.422  0.00  0.00    +0.000 OA
ATOM      3  N   UNL     1       5.210   4.477  16.429  0.00  0.00    +0.000 N 
ATOM      4  C   UNL     1       4.377   4.854  17.438  0.00  0.00    +0.000 A 
ATOM      5  N   UNL     1       3.714   5.972  17.552  0.00  0.00    +0.000 NA
ATOM      6  C   UNL     1       3.147   6.033  18.806  0.00  0.00    +0.000 A 
ATOM      7  C   UNL     1       3.354   4.929  19.608  0.00  0.00    +0.000 A 
ATOM      8  S   UNL     1       4.241   3.747  18.728  0.00  0.00    +0.000 S 
ATOM      9  H   UNL     1       5.627   3.554  16.451  0.00  0.00    +0.000 HD
ENDROOT
BRANCH   6  10
ATOM     10  C   UNL     1       2.394   7.229  19.238  0.00  0.00    +0.000 A 
ATOM     11  C   UNL     1       2.084   8.314  18.457  0.00  0.00    +0.000 A 
ATOM     12  C   UNL     1       1.320   9.176  19.286  0.00  0.00    +0.000 A 
ATOM     13  N   UNL     1       1.228   8.653  20.521  0.00  0.00    +0.000 NA
ATOM     14  O   UNL     1       1.881   7.438  20.483  0.00  0.00    +0.000 OA
BRANCH  12  15
ATOM     15  C   UNL     1       0.672  10.442  18.931  0.00  0.00    +0.000 A 
ATOM     16  C   UNL     1       1.404  11.637  18.859  0.00  0.00    +0.000 A 
ATOM     17  C   UNL     1       0.784  12.833  18.486  0.00  0.00    +0.000 A 
ATOM     18  C   UNL     1      -0.575  12.851  18.183  0.00  0.00    +0.000 A 
ATOM     19  C   UNL     1      -1.317  11.675  18.253  0.00  0.00    +0.000 A 
ATOM     20  C   UNL     1      -0.698  10.479  18.625  0.00  0.00    +0.000 A 
ENDBRANCH  12  15
ENDBRANCH   6  10
BRANCH   1  22
ATOM     21  O   UNL     1       7.676   5.465  14.196  0.00  0.00    +0.000 OA
ATOM     22  C   UNL     1       6.707   4.827  14.561  0.00  0.00    +0.000 C 
BRANCH  22  23
ATOM     23  O   UNL     1       6.369   3.588  14.162  0.00  0.00    +0.000 OA
ATOM     24  H   UNL     1       5.387   3.489  14.227  0.00  0.00    +0.000 HD
ENDBRANCH  22  23
ENDBRANCH   1  22
TORSDOF 4
ENDMDL
MODEL 4
REMARK VINA RESULT:      -7.8      1.935      2.311
REMARK  Name = 
REMARK  4 active torsions:
REMARK  status: ('A' for Active; 'I' for Inactive)
REMARK    1  A    between atoms: C_2  and  O_3
REMARK    2  A    between atoms: C_2  and  C_4
REMARK    3  A    between atoms: C_9  and  C_10
REMARK    4  A    between atoms: C_12  and  C_13
REMARK                            x       y       z     vdW  Elec       q    Type
REMARK                         _______ _______ _______ _____ _____    ______ ____
ROOT
ATOM      1  C   UNL     1       5.698   5.471  15.690  0.00  0.00    +0.000 C 
ATOM      2  O   UNL     1       5.467   6.668  15.558  0.00  0.00    +0.000 OA
ATOM      3  N   UNL     1       5.225   4.562  16.602  0.00  0.00    +0.000 N 
ATOM      4  C   UNL     1       4.368   4.955  17.585  0.00  0.00    +0.000 A 
ATOM      5  N   UNL     1       3.699   6.072  17.661  0.00  0.00    +0.000 NA
ATOM      6  C   UNL     1       3.104   6.155  18.902  0.00  0.00    +0.000 A 
ATOM      7  C   UNL     1       3.298   5.068  19.730  0.00  0.00    +0.000 A 
ATOM      8  S   UNL     1       4.208   3.873  18.893  0.00  0.00    +0.000 S 
ATOM      9  H   UNL     1       5.645   3.641  16.651  0.00  0.00    +0.000 HD
ENDROOT
BRANCH   6  10
ATOM     10  C   UNL     1       2.337   7.356  19.293  0.00  0.00    +0.000 A 
ATOM     11  C   UNL     1       2.038   8.423  18.483  0.00  0.00    +0.000 A 
ATOM     12  C   UNL     1       1.253   9.298  19.279  0.00  0.00    +0.000 A 
ATOM     13  N   UNL     1       1.137   8.800  20.522  0.00  0.00    +0.000 NA
ATOM     14  O   UNL     1       1.797   7.587  20.523  0.00  0.00    +0.000 OA
BRANCH  12  15
ATOM     15  C   UNL     1       0.607  10.553  18.884  0.00  0.00    +0.000 A 
ATOM     16  C   UNL     1      -0.748  10.588  18.519  0.00  0.00    +0.000 A 
ATOM     17  C   UNL     1      -1.365  11.795  18.177  0.00  0.00    +0.000 A 
ATOM     18  C   UNL     1      -0.635  12.981  18.191  0.00  0.00    +0.000 A 
ATOM     19  C   UNL     1       0.711  12.963  18.547  0.00  0.00    +0.000 A 
ATOM     20  C   UNL     1       1.328  11.758  18.890  0.00  0.00    +0.000 A 
ENDBRANCH  12  15
ENDBRANCH   6  10
BRANCH   1  22
ATOM     21  O   UNL     1       7.715   5.529  14.374  0.00  0.00    +0.000 OA
ATOM     22  C   UNL     1       6.761   4.881  14.760  0.00  0.00    +0.000 C 
BRANCH  22  23
ATOM     23  O   UNL     1       6.459   3.617  14.415  0.00  0.00    +0.000 OA
ATOM     24  H   UNL     1       5.560   3.398  14.763  0.00  0.00    +0.000 HD
ENDBRANCH  22  23
ENDBRANCH   1  22
TORSDOF 4
ENDMDL
MODEL 5
REMARK VINA RESULT:      -7.6      1.419      1.468
REMARK  Name = 
REMARK  4 active torsions:
REMARK  status: ('A' for Active; 'I' for Inactive)
REMARK    1  A    between atoms: C_2  and  O_3
REMARK    2  A    between atoms: C_2  and  C_4
REMARK    3  A    between atoms: C_9  and  C_10
REMARK    4  A    between atoms: C_12  and  C_13
REMARK                            x       y       z     vdW  Elec       q    Type
REMARK                         _______ _______ _______ _____ _____    ______ ____
ROOT
ATOM      1  C   UNL     1       6.233   5.355  17.340  0.00  0.00    +0.000 C 
ATOM      2  O   UNL     1       6.196   6.571  17.190  0.00  0.00    +0.000 OA
ATOM      3  N   UNL     1       5.371   4.504  17.983  0.00  0.00    +0.000 N 
ATOM      4  C   UNL     1       4.268   4.990  18.617  0.00  0.00    +0.000 A 
ATOM      5  N   UNL     1       3.741   6.177  18.503  0.00  0.00    +0.000 NA
ATOM      6  C   UNL     1       2.756   6.324  19.456  0.00  0.00    +0.000 A 
ATOM      7  C   UNL     1       2.523   5.219  20.248  0.00  0.00    +0.000 A 
ATOM      8  S   UNL     1       3.537   3.929  19.733  0.00  0.00    +0.000 S 
ATOM      9  H   UNL     1       5.644   3.540  18.135  0.00  0.00    +0.000 HD
ENDROOT
BRANCH   6  10
ATOM     10  C   UNL     1       2.034   7.606  19.605  0.00  0.00    +0.000 A 
ATOM     11  C   UNL     1       1.406   8.050  20.741  0.00  0.00    +0.000 A 
ATOM     12  C   UNL     1       0.902   9.338  20.419  0.00  0.00    +0.000 A 
ATOM     13  N   UNL     1       1.171   9.622  19.133  0.00  0.00    +0.000 NA
ATOM     14  O   UNL     1       1.888   8.552  18.635  0.00  0.00    +0.000 OA
BRANCH  12  15
ATOM     15  C   UNL     1       0.211  10.290  21.294  0.00  0.00    +0.000 A 
ATOM     16  C   UNL     1       0.231  11.667  21.027  0.00  0.00    +0.000 A 
ATOM     17  C   UNL     1      -0.459  12.564  21.847  0.00  0.00    +0.000 A 
ATOM     18  C   UNL     1      -1.175  12.097  22.947  0.00  0.00    +0.000 A 
ATOM     19  C   UNL     1      -1.202  10.733  23.228  0.00  0.00    +0.000 A 
ATOM     20  C   UNL     1      -0.513   9.837  22.408  0.00  0.00    +0.000 A 
ENDBRANCH  12  15
ENDBRANCH   6  10
BRANCH   1  22
ATOM     21  O   UNL     1       7.763   4.607  15.635  0.00  0.00    +0.000 OA
ATOM     22  C   UNL     1       7.487   4.649  16.819  0.00  0.00    +0.000 C 
BRANCH  22  23
ATOM     23  O   UNL     1       8.172   4.069  17.820  0.00  0.00    +0.000 OA
ATOM     24  H   UNL     1       8.299   3.112  17.607  0.00  0.00    +0.000 HD
ENDBRANCH  22  23
ENDBRANCH   1  22
TORSDOF 4
ENDMDL
MODEL 6
REMARK VINA RESULT:      -7.5      2.314      8.880
REMARK  Name = 
REMARK  4 active torsions:
REMARK  status: ('A' for Active; 'I' for Inactive)
REMARK    1  A    between atoms: C_2  and  O_3
REMARK    2  A    between atoms: C_2  and  C_4
REMARK    3  A    between atoms: C_9  and  C_10
REMARK    4  A    between atoms: C_12  and  C_13
REMARK                            x       y       z     vdW  Elec       q    Type
REMARK                         _______ _______ _______ _____ _____    ______ ____
ROOT
ATOM      1  C   UNL     1       1.366   8.113  20.878  0.00  0.00    +0.000 C 
ATOM      2  O   UNL     1       1.760   8.828  19.964  0.00  0.00    +0.000 OA
ATOM      3  N   UNL     1       1.581   6.781  21.131  0.00  0.00    +0.000 N 
ATOM      4  C   UNL     1       2.322   6.028  20.272  0.00  0.00    +0.000 A 
ATOM      5  N   UNL     1       3.105   6.445  19.316  0.00  0.00    +0.000 NA
ATOM      6  C   UNL     1       3.513   5.364  18.565  0.00  0.00    +0.000 A 
ATOM      7  C   UNL     1       3.063   4.134  18.999  0.00  0.00    +0.000 A 
ATOM      8  S   UNL     1       2.148   4.341  20.440  0.00  0.00    +0.000 S 
ATOM      9  H   UNL     1       1.047   6.321  21.858  0.00  0.00    +0.000 HD
ENDROOT
BRANCH   6  10
ATOM     10  C   UNL     1       4.355   5.552  17.365  0.00  0.00    +0.000 A 
ATOM     11  C   UNL     1       4.673   4.587  16.443  0.00  0.00    +0.000 A 
ATOM     12  C   UNL     1       5.455   5.244  15.457  0.00  0.00    +0.000 A 
ATOM     13  N   UNL     1       5.640   6.529  15.806  0.00  0.00    +0.000 NA
ATOM     14  O   UNL     1       4.942   6.721  16.982  0.00  0.00    +0.000 OA
BRANCH  12  15
ATOM     15  C   UNL     1       5.995   4.696  14.209  0.00  0.00    +0.000 A 
ATOM     16  C   UNL     1       5.304   3.707  13.493  0.00  0.00    +0.000 A 
ATOM     17  C   UNL     1       5.810   3.214  12.286  0.00  0.00    +0.000 A 
ATOM     18  C   UNL     1       7.014   3.701  11.782  0.00  0.00    +0.000 A 
ATOM     19  C   UNL     1       7.714   4.679  12.484  0.00  0.00    +0.000 A 
ATOM     20  C   UNL     1       7.209   5.172  13.688  0.00  0.00    +0.000 A 
ENDBRANCH  12  15
ENDBRANCH   6  10
BRANCH   1  22
ATOM     21  O   UNL     1       0.718   9.670  22.598  0.00  0.00    +0.000 OA
ATOM     22  C   UNL     1       0.391   8.755  21.866  0.00  0.00    +0.000 C 
BRANCH  22  23
ATOM     23  O   UNL     1      -0.808   8.146  21.835  0.00  0.00    +0.000 OA
ATOM     24  H   UNL     1      -1.499   8.815  21.608  0.00  0.00    +0.000 HD
ENDBRANCH  22  23
ENDBRANCH   1  22
TORSDOF 4
ENDMDL
MODEL 7
REMARK VINA RESULT:      -7.5      4.565      8.974
REMARK  Name = 
REMARK  4 active torsions:
REMARK  status: ('A' for Active; 'I' for Inactive)
REMARK    1  A    between atoms: C_2  and  O_3
REMARK    2  A    between atoms: C_2  and  C_4
REMARK    3  A    between atoms: C_9  and  C_10
REMARK    4  A    between atoms: C_12  and  C_13
REMARK                            x       y       z     vdW  Elec       q    Type
REMARK                         _______ _______ _______ _____ _____    ______ ____
ROOT
ATOM      1  C   UNL     1      -3.723  11.008  17.704  0.00  0.00    +0.000 C 
ATOM      2  O   UNL     1      -3.645   9.789  17.799  0.00  0.00    +0.000 OA
ATOM      3  N   UNL     1      -2.764  11.981  17.824  0.00  0.00    +0.000 N 
ATOM      4  C   UNL     1      -1.478  11.647  18.124  0.00  0.00    +0.000 A 
ATOM      5  N   UNL     1      -0.929  10.464  18.078  0.00  0.00    +0.000 NA
ATOM      6  C   UNL     1       0.326  10.530  18.642  0.00  0.00    +0.000 A 
ATOM      7  C   UNL     1       0.725  11.781  19.065  0.00  0.00    +0.000 A 
ATOM      8  S   UNL     1      -0.499  12.926  18.681  0.00  0.00    +0.000 S 
ATOM      9  H   UNL     1      -3.043  12.954  17.863  0.00  0.00    +0.000 HD
ENDROOT
BRANCH   6  10
ATOM     10  C   UNL     1       1.153   9.313  18.790  0.00  0.00    +0.000 A 
ATOM     11  C   UNL     1       1.771   8.629  17.774  0.00  0.00    +0.000 A 
ATOM     12  C   UNL     1       2.479   7.570  18.403  0.00  0.00    +0.000 A 
ATOM     13  N   UNL     1       2.247   7.592  19.727  0.00  0.00    +0.000 NA
ATOM     14  O   UNL     1       1.436   8.684  19.966  0.00  0.00    +0.000 OA
BRANCH  12  15
ATOM     15  C   UNL     1       3.369   6.580  17.789  0.00  0.00    +0.000 A 
ATOM     16  C   UNL     1       4.546   6.972  17.132  0.00  0.00    +0.000 A 
ATOM     17  C   UNL     1       5.406   6.018  16.580  0.00  0.00    +0.000 A 
ATOM     18  C   UNL     1       5.100   4.663  16.673  0.00  0.00    +0.000 A 
ATOM     19  C   UNL     1       3.934   4.258  17.318  0.00  0.00    +0.000 A 
ATOM     20  C   UNL     1       3.075   5.210  17.871  0.00  0.00    +0.000 A 
ENDBRANCH  12  15
ENDBRANCH   6  10
BRANCH   1  22
ATOM     21  O   UNL     1      -6.122  11.017  17.936  0.00  0.00    +0.000 OA
ATOM     22  C   UNL     1      -5.130  11.582  17.515  0.00  0.00    +0.000 C 
BRANCH  22  23
ATOM     23  O   UNL     1      -5.100  12.723  16.804  0.00  0.00    +0.000 OA
ATOM     24  H   UNL     1      -4.539  13.381  17.282  0.00  0.00    +0.000 HD
ENDBRANCH  22  23
ENDBRANCH   1  22
TORSDOF 4
ENDMDL
MODEL 8
REMARK VINA RESULT:      -7.5      2.515      8.790
REMARK  Name = 
REMARK  4 active torsions:
REMARK  status: ('A' for Active; 'I' for Inactive)
REMARK    1  A    between atoms: C_2  and  O_3
REMARK    2  A    between atoms: C_2  and  C_4
REMARK    3  A    between atoms: C_9  and  C_10
REMARK    4  A    between atoms: C_12  and  C_13
REMARK                            x       y       z     vdW  Elec       q    Type
REMARK                         _______ _______ _______ _____ _____    ______ ____
ROOT
ATOM      1  C   UNL     1       1.582   7.695  20.543  0.00  0.00    +0.000 C 
ATOM      2  O   UNL     1       2.181   8.218  19.611  0.00  0.00    +0.000 OA
ATOM      3  N   UNL     1       1.644   6.420  21.046  0.00  0.00    +0.000 N 
ATOM      4  C   UNL     1       2.457   5.492  20.471  0.00  0.00    +0.000 A 
ATOM      5  N   UNL     1       3.421   5.695  19.616  0.00  0.00    +0.000 NA
ATOM      6  C   UNL     1       3.862   4.479  19.139  0.00  0.00    +0.000 A 
ATOM      7  C   UNL     1       3.249   3.368  19.682  0.00  0.00    +0.000 A 
ATOM      8  S   UNL     1       2.123   3.871  20.881  0.00  0.00    +0.000 S 
ATOM      9  H   UNL     1       0.960   6.122  21.732  0.00  0.00    +0.000 HD
ENDROOT
BRANCH   6  10
ATOM     10  C   UNL     1       4.907   4.411  18.096  0.00  0.00    +0.000 A 
ATOM     11  C   UNL     1       4.694   4.318  16.744  0.00  0.00    +0.000 A 
ATOM     12  C   UNL     1       5.984   4.329  16.152  0.00  0.00    +0.000 A 
ATOM     13  N   UNL     1       6.924   4.371  17.113  0.00  0.00    +0.000 NA
ATOM     14  O   UNL     1       6.252   4.437  18.317  0.00  0.00    +0.000 OA
BRANCH  12  15
ATOM     15  C   UNL     1       6.332   4.327  14.728  0.00  0.00    +0.000 A 
ATOM     16  C   UNL     1       7.392   5.107  14.240  0.00  0.00    +0.000 A 
ATOM     17  C   UNL     1       7.738   5.072  12.886  0.00  0.00    +0.000 A 
ATOM     18  C   UNL     1       7.029   4.261  12.003  0.00  0.00    +0.000 A 
ATOM     19  C   UNL     1       5.972   3.485  12.471  0.00  0.00    +0.000 A 
ATOM     20  C   UNL     1       5.626   3.518  13.824  0.00  0.00    +0.000 A 
ENDBRANCH  12  15
ENDBRANCH   6  10
BRANCH   1  22
ATOM     21  O   UNL     1       0.697   9.714  21.516  0.00  0.00    +0.000 OA
ATOM     22  C   UNL     1       0.508   8.549  21.221  0.00  0.00    +0.000 C 
BRANCH  22  23
ATOM     23  O   UNL     1      -0.601   7.831  21.471  0.00  0.00    +0.000 OA
ATOM     24  H   UNL     1      -0.445   7.273  22.272  0.00  0.00    +0.000 HD
ENDBRANCH  22  23
ENDBRANCH   1  22
TORSDOF 4
ENDMDL
MODEL 9
REMARK VINA RESULT:      -7.5      1.430      1.768
REMARK  Name = 
REMARK  4 active torsions:
REMARK  status: ('A' for Active; 'I' for Inactive)
REMARK    1  A    between atoms: C_2  and  O_3
REMARK    2  A    between atoms: C_2  and  C_4
REMARK    3  A    between atoms: C_9  and  C_10
REMARK    4  A    between atoms: C_12  and  C_13
REMARK                            x       y       z     vdW  Elec       q    Type
REMARK                         _______ _______ _______ _____ _____    ______ ____
ROOT
ATOM      1  C   UNL     1       6.240   5.358  17.349  0.00  0.00    +0.000 C 
ATOM      2  O   UNL     1       6.252   6.580  17.247  0.00  0.00    +0.000 OA
ATOM      3  N   UNL     1       5.328   4.515  17.931  0.00  0.00    +0.000 N 
ATOM      4  C   UNL     1       4.224   5.017  18.550  0.00  0.00    +0.000 A 
ATOM      5  N   UNL     1       3.744   6.227  18.469  0.00  0.00    +0.000 NA
ATOM      6  C   UNL     1       2.735   6.373  19.397  0.00  0.00    +0.000 A 
ATOM      7  C   UNL     1       2.438   5.247  20.136  0.00  0.00    +0.000 A 
ATOM      8  S   UNL     1       3.420   3.941  19.599  0.00  0.00    +0.000 S 
ATOM      9  H   UNL     1       5.560   3.537  18.051  0.00  0.00    +0.000 HD
ENDROOT
BRANCH   6  10
ATOM     10  C   UNL     1       2.057   7.674  19.577  0.00  0.00    +0.000 A 
ATOM     11  C   UNL     1       1.332   8.061  20.675  0.00  0.00    +0.000 A 
ATOM     12  C   UNL     1       0.920   9.394  20.411  0.00  0.00    +0.000 A 
ATOM     13  N   UNL     1       1.334   9.762  19.186  0.00  0.00    +0.000 NA
ATOM     14  O   UNL     1       2.053   8.698  18.678  0.00  0.00    +0.000 OA
BRANCH  12  15
ATOM     15  C   UNL     1       0.181  10.309  21.286  0.00  0.00    +0.000 A 
ATOM     16  C   UNL     1      -0.545   9.831  22.387  0.00  0.00    +0.000 A 
ATOM     17  C   UNL     1      -1.219  10.715  23.236  0.00  0.00    +0.000 A 
ATOM     18  C   UNL     1      -1.178  12.085  22.993  0.00  0.00    +0.000 A 
ATOM     19  C   UNL     1      -0.465  12.575  21.902  0.00  0.00    +0.000 A 
ATOM     20  C   UNL     1       0.209  11.694  21.054  0.00  0.00    +0.000 A 
ENDBRANCH  12  15
ENDBRANCH   6  10
BRANCH   1  22
ATOM     21  O   UNL     1       7.733   4.523  15.652  0.00  0.00    +0.000 OA
ATOM     22  C   UNL     1       7.484   4.626  16.838  0.00  0.00    +0.000 C 
BRANCH  22  23
ATOM     23  O   UNL     1       8.191   4.099  17.852  0.00  0.00    +0.000 OA
ATOM     24  H   UNL     1       7.650   4.149  18.678  0.00  0.00    +0.000 HD
ENDBRANCH  22  23
ENDBRANCH   1  22
TORSDOF 4
ENDMDL
