MODEL 1
REMARK VINA RESULT:      -7.9      0.000      0.000
REMARK  Name = 
REMARK  3 active torsions:
REMARK  status: ('A' for Active; 'I' for Inactive)
REMARK    1  A    between atoms: C_8  and  C_9
REMARK    2  A    between atoms: C_9  and  C_10
REMARK    3  A    between atoms: C_10  and  O_11
REMARK                            x       y       z     vdW  Elec       q    Type
REMARK                         _______ _______ _______ _____ _____    ______ ____
ROOT
ATOM      1  O   UNL     1       3.591   1.723  17.605  0.00  0.00    +0.000 OA
ATOM      2  C   UNL     1       2.876   2.392  18.338  0.00  0.00    +0.000 A 
ATOM      3  N   UNL     1       2.033   1.737  19.212  0.00  0.00    +0.000 N 
ATOM      4  C   UNL     1       1.187   2.347  20.090  0.00  0.00    +0.000 A 
ATOM      5  C   UNL     1       1.116   3.677  20.159  0.00  0.00    +0.000 A 
ATOM      6  C   UNL     1       1.957   4.494  19.278  0.00  0.00    +0.000 A 
ATOM      7  C   UNL     1       1.873   5.885  19.367  0.00  0.00    +0.000 A 
ATOM      8  C   UNL     1       2.659   6.718  18.553  0.00  0.00    +0.000 A 
ATOM      9  C   UNL     1       3.551   6.142  17.610  0.00  0.00    +0.000 A 
ATOM     10  C   UNL     1       4.353   6.948  16.768  0.00  0.00    +0.000 A 
ATOM     11  C   UNL     1       5.248   6.407  15.848  0.00  0.00    +0.000 A 
ATOM     12  C   UNL     1       5.357   5.036  15.742  0.00  0.00    +0.000 A 
ATOM     13 BR   UNL     1       6.563   4.287  14.495  0.00  0.00    +0.000 Br
ATOM     14  C   UNL     1       4.582   4.208  16.552  0.00  0.00    +0.000 A 
ATOM     15  C   UNL     1       3.659   4.718  17.506  0.00  0.00    +0.000 A 
ATOM     16  C   UNL     1       2.847   3.905  18.358  0.00  0.00    +0.000 A 
ATOM     17  H   UNL     1       2.079   0.725  19.170  0.00  0.00    +0.000 HD
ENDROOT
BRANCH   8  18
ATOM     18  C   UNL     1       2.507   8.223  18.748  0.00  0.00    +0.000 C 
BRANCH  18  19
ATOM     19  C   UNL     1       1.492   8.879  17.811  0.00  0.00    +0.000 C 
BRANCH  19  20
ATOM     20  O   UNL     1       1.941  10.157  17.374  0.00  0.00    +0.000 OA
ATOM     21  H   UNL     1       2.334  10.599  18.148  0.00  0.00    +0.000 HD
ENDBRANCH  19  20
ENDBRANCH  18  19
ENDBRANCH   8  18
TORSDOF 3
ENDMDL
MODEL 2
REMARK VINA RESULT:      -7.4      1.211      1.269
REMARK  Name = 
REMARK  3 active torsions:
REMARK  status: ('A' for Active; 'I' for Inactive)
REMARK    1  A    between atoms: C_8  and  C_9
REMARK    2  A    between atoms: C_9  and  C_10
REMARK    3  A    between atoms: C_10  and  O_11
REMARK                            x       y       z     vdW  Elec       q    Type
REMARK                         _______ _______ _______ _____ _____    ______ ____
ROOT
ATOM      1  O   UNL     1       3.611   1.757  17.581  0.00  0.00    +0.000 OA
ATOM      2  C   UNL     1       2.859   2.334  18.354  0.00  0.00    +0.000 A 
ATOM      3  N   UNL     1       2.026   1.575  19.151  0.00  0.00    +0.000 N 
ATOM      4  C   UNL     1       1.143   2.075  20.061  0.00  0.00    +0.000 A 
ATOM      5  C   UNL     1       1.021   3.390  20.244  0.00  0.00    +0.000 A 
ATOM      6  C   UNL     1       1.846   4.311  19.454  0.00  0.00    +0.000 A 
ATOM      7  C   UNL     1       1.708   5.685  19.661  0.00  0.00    +0.000 A 
ATOM      8  C   UNL     1       2.476   6.614  18.939  0.00  0.00    +0.000 A 
ATOM      9  C   UNL     1       3.405   6.154  17.968  0.00  0.00    +0.000 A 
ATOM     10  C   UNL     1       4.190   7.060  17.215  0.00  0.00    +0.000 A 
ATOM     11  C   UNL     1       5.121   6.634  16.270  0.00  0.00    +0.000 A 
ATOM     12  C   UNL     1       5.283   5.282  16.048  0.00  0.00    +0.000 A 
ATOM     13 BR   UNL     1       6.538   4.688  14.766  0.00  0.00    +0.000 Br
ATOM     14  C   UNL     1       4.526   4.359  16.767  0.00  0.00    +0.000 A 
ATOM     15  C   UNL     1       3.568   4.750  17.743  0.00  0.00    +0.000 A 
ATOM     16  C   UNL     1       2.772   3.837  18.505  0.00  0.00    +0.000 A 
ATOM     17  H   UNL     1       2.112   0.573  19.022  0.00  0.00    +0.000 HD
ENDROOT
BRANCH   8  18
ATOM     18  C   UNL     1       2.264   8.090  19.261  0.00  0.00    +0.000 C 
BRANCH  18  19
ATOM     19  C   UNL     1       1.273   8.349  20.396  0.00  0.00    +0.000 C 
BRANCH  19  20
ATOM     20  O   UNL     1       1.931   8.402  21.657  0.00  0.00    +0.000 OA
ATOM     21  H   UNL     1       2.465   9.216  21.663  0.00  0.00    +0.000 HD
ENDBRANCH  19  20
ENDBRANCH  18  19
ENDBRANCH   8  18
TORSDOF 3
ENDMDL
MODEL 3
REMARK VINA RESULT:      -7.3      3.067      5.321
REMARK  Name = 
REMARK  3 active torsions:
REMARK  status: ('A' for Active; 'I' for Inactive)
REMARK    1  A    between atoms: C_8  and  C_9
REMARK    2  A    between atoms: C_9  and  C_10
REMARK    3  A    between atoms: C_10  and  O_11
REMARK                            x       y       z     vdW  Elec       q    Type
REMARK                         _______ _______ _______ _____ _____    ______ ____
ROOT
ATOM      1  O   UNL     1       4.984   7.309  15.292  0.00  0.00    +0.000 OA
ATOM      2  C   UNL     1       5.188   6.153  15.637  0.00  0.00    +0.000 A 
ATOM      3  N   UNL     1       6.027   5.374  14.866  0.00  0.00    +0.000 N 
ATOM      4  C   UNL     1       6.351   4.076  15.127  0.00  0.00    +0.000 A 
ATOM      5  C   UNL     1       5.851   3.448  16.192  0.00  0.00    +0.000 A 
ATOM      6  C   UNL     1       4.939   4.161  17.092  0.00  0.00    +0.000 A 
ATOM      7  C   UNL     1       4.428   3.490  18.205  0.00  0.00    +0.000 A 
ATOM      8  C   UNL     1       3.556   4.124  19.105  0.00  0.00    +0.000 A 
ATOM      9  C   UNL     1       3.171   5.473  18.880  0.00  0.00    +0.000 A 
ATOM     10  C   UNL     1       2.289   6.143  19.760  0.00  0.00    +0.000 A 
ATOM     11  C   UNL     1       1.911   7.471  19.570  0.00  0.00    +0.000 A 
ATOM     12  C   UNL     1       2.404   8.161  18.483  0.00  0.00    +0.000 A 
ATOM     13 BR   UNL     1       1.897   9.961  18.210  0.00  0.00    +0.000 Br
ATOM     14  C   UNL     1       3.274   7.535  17.591  0.00  0.00    +0.000 A 
ATOM     15  C   UNL     1       3.688   6.184  17.750  0.00  0.00    +0.000 A 
ATOM     16  C   UNL     1       4.579   5.504  16.860  0.00  0.00    +0.000 A 
ATOM     17  H   UNL     1       6.414   5.842  14.054  0.00  0.00    +0.000 HD
ENDROOT
BRANCH   8  18
ATOM     18  C   UNL     1       3.077   3.307  20.300  0.00  0.00    +0.000 C 
BRANCH  18  19
ATOM     19  C   UNL     1       1.790   2.521  20.048  0.00  0.00    +0.000 C 
BRANCH  19  20
ATOM     20  O   UNL     1       0.718   3.010  20.847  0.00  0.00    +0.000 OA
ATOM     21  H   UNL     1       0.283   2.234  21.242  0.00  0.00    +0.000 HD
ENDBRANCH  19  20
ENDBRANCH  18  19
ENDBRANCH   8  18
TORSDOF 3
ENDMDL
MODEL 4
REMARK VINA RESULT:      -7.3      2.690      3.739
REMARK  Name = 
REMARK  3 active torsions:
REMARK  status: ('A' for Active; 'I' for Inactive)
REMARK    1  A    between atoms: C_8  and  C_9
REMARK    2  A    between atoms: C_9  and  C_10
REMARK    3  A    between atoms: C_10  and  O_11
REMARK                            x       y       z     vdW  Elec       q    Type
REMARK                         _______ _______ _______ _____ _____    ______ ____
ROOT
ATOM      1  O   UNL     1       2.239   3.192  16.336  0.00  0.00    +0.000 OA
ATOM      2  C   UNL     1       2.560   3.669  17.416  0.00  0.00    +0.000 A 
ATOM      3  N   UNL     1       1.650   3.621  18.453  0.00  0.00    +0.000 N 
ATOM      4  C   UNL     1       1.868   4.103  19.709  0.00  0.00    +0.000 A 
ATOM      5  C   UNL     1       3.026   4.683  20.028  0.00  0.00    +0.000 A 
ATOM      6  C   UNL     1       4.078   4.804  19.013  0.00  0.00    +0.000 A 
ATOM      7  C   UNL     1       5.286   5.410  19.365  0.00  0.00    +0.000 A 
ATOM      8  C   UNL     1       6.332   5.548  18.438  0.00  0.00    +0.000 A 
ATOM      9  C   UNL     1       6.161   5.075  17.109  0.00  0.00    +0.000 A 
ATOM     10  C   UNL     1       7.189   5.204  16.145  0.00  0.00    +0.000 A 
ATOM     11  C   UNL     1       7.052   4.733  14.841  0.00  0.00    +0.000 A 
ATOM     12  C   UNL     1       5.872   4.125  14.466  0.00  0.00    +0.000 A 
ATOM     13 BR   UNL     1       5.670   3.484  12.700  0.00  0.00    +0.000 Br
ATOM     14  C   UNL     1       4.835   3.982  15.386  0.00  0.00    +0.000 A 
ATOM     15  C   UNL     1       4.934   4.445  16.727  0.00  0.00    +0.000 A 
ATOM     16  C   UNL     1       3.896   4.317  17.704  0.00  0.00    +0.000 A 
ATOM     17  H   UNL     1       0.766   3.180  18.223  0.00  0.00    +0.000 HD
ENDROOT
BRANCH   8  18
ATOM     18  C   UNL     1       7.618   6.202  18.933  0.00  0.00    +0.000 C 
BRANCH  18  19
ATOM     19  C   UNL     1       8.535   5.267  19.721  0.00  0.00    +0.000 C 
BRANCH  19  20
ATOM     20  O   UNL     1       8.237   5.300  21.113  0.00  0.00    +0.000 OA
ATOM     21  H   UNL     1       9.087   5.377  21.582  0.00  0.00    +0.000 HD
ENDBRANCH  19  20
ENDBRANCH  18  19
ENDBRANCH   8  18
TORSDOF 3
ENDMDL
MODEL 5
REMARK VINA RESULT:      -7.2      2.428      4.721
REMARK  Name = 
REMARK  3 active torsions:
REMARK  status: ('A' for Active; 'I' for Inactive)
REMARK    1  A    between atoms: C_8  and  C_9
REMARK    2  A    between atoms: C_9  and  C_10
REMARK    3  A    between atoms: C_10  and  O_11
REMARK                            x       y       z     vdW  Elec       q    Type
REMARK                         _______ _______ _______ _____ _____    ______ ____
ROOT
ATOM      1  O   UNL     1       2.797   8.695  17.161  0.00  0.00    +0.000 OA
ATOM      2  C   UNL     1       2.295   8.434  18.246  0.00  0.00    +0.000 A 
ATOM      3  N   UNL     1       1.531   9.400  18.868  0.00  0.00    +0.000 N 
ATOM      4  C   UNL     1       0.907   9.251  20.071  0.00  0.00    +0.000 A 
ATOM      5  C   UNL     1       1.003   8.111  20.755  0.00  0.00    +0.000 A 
ATOM      6  C   UNL     1       1.794   7.003  20.208  0.00  0.00    +0.000 A 
ATOM      7  C   UNL     1       1.881   5.814  20.935  0.00  0.00    +0.000 A 
ATOM      8  C   UNL     1       2.618   4.717  20.458  0.00  0.00    +0.000 A 
ATOM      9  C   UNL     1       3.301   4.815  19.216  0.00  0.00    +0.000 A 
ATOM     10  C   UNL     1       4.059   3.735  18.706  0.00  0.00    +0.000 A 
ATOM     11  C   UNL     1       4.723   3.800  17.483  0.00  0.00    +0.000 A 
ATOM     12  C   UNL     1       4.650   4.959  16.740  0.00  0.00    +0.000 A 
ATOM     13 BR   UNL     1       5.548   5.065  15.081  0.00  0.00    +0.000 Br
ATOM     14  C   UNL     1       3.915   6.047  17.209  0.00  0.00    +0.000 A 
ATOM     15  C   UNL     1       3.220   6.021  18.449  0.00  0.00    +0.000 A 
ATOM     16  C   UNL     1       2.453   7.113  18.967  0.00  0.00    +0.000 A 
ATOM     17  H   UNL     1       1.449  10.272  18.356  0.00  0.00    +0.000 HD
ENDROOT
BRANCH   8  18
ATOM     18  C   UNL     1       2.627   3.459  21.320  0.00  0.00    +0.000 C 
BRANCH  18  19
ATOM     19  C   UNL     1       1.266   2.775  21.446  0.00  0.00    +0.000 C 
BRANCH  19  20
ATOM     20  O   UNL     1       0.536   2.844  20.226  0.00  0.00    +0.000 OA
ATOM     21  H   UNL     1      -0.370   3.121  20.453  0.00  0.00    +0.000 HD
ENDBRANCH  19  20
ENDBRANCH  18  19
ENDBRANCH   8  18
TORSDOF 3
ENDMDL
MODEL 6
REMARK VINA RESULT:      -7.1      2.987      4.452
REMARK  Name = 
REMARK  3 active torsions:
REMARK  status: ('A' for Active; 'I' for Inactive)
REMARK    1  A    between atoms: C_8  and  C_9
REMARK    2  A    between atoms: C_9  and  C_10
REMARK    3  A    between atoms: C_10  and  O_11
REMARK                            x       y       z     vdW  Elec       q    Type
REMARK                         _______ _______ _______ _____ _____    ______ ____
ROOT
ATOM      1  O   UNL     1       1.121   5.652  21.005  0.00  0.00    +0.000 OA
ATOM      2  C   UNL     1       1.898   4.731  20.797  0.00  0.00    +0.000 A 
ATOM      3  N   UNL     1       1.806   3.601  21.585  0.00  0.00    +0.000 N 
ATOM      4  C   UNL     1       2.596   2.497  21.467  0.00  0.00    +0.000 A 
ATOM      5  C   UNL     1       3.554   2.437  20.541  0.00  0.00    +0.000 A 
ATOM      6  C   UNL     1       3.762   3.576  19.640  0.00  0.00    +0.000 A 
ATOM      7  C   UNL     1       4.766   3.495  18.674  0.00  0.00    +0.000 A 
ATOM      8  C   UNL     1       5.007   4.552  17.779  0.00  0.00    +0.000 A 
ATOM      9  C   UNL     1       4.225   5.735  17.861  0.00  0.00    +0.000 A 
ATOM     10  C   UNL     1       4.443   6.823  16.983  0.00  0.00    +0.000 A 
ATOM     11  C   UNL     1       3.678   7.986  17.031  0.00  0.00    +0.000 A 
ATOM     12  C   UNL     1       2.674   8.092  17.972  0.00  0.00    +0.000 A 
ATOM     13 BR   UNL     1       1.630   9.665  18.053  0.00  0.00    +0.000 Br
ATOM     14  C   UNL     1       2.430   7.043  18.857  0.00  0.00    +0.000 A 
ATOM     15  C   UNL     1       3.185   5.837  18.839  0.00  0.00    +0.000 A 
ATOM     16  C   UNL     1       2.967   4.736  19.727  0.00  0.00    +0.000 A 
ATOM     17  H   UNL     1       1.079   3.635  22.292  0.00  0.00    +0.000 HD
ENDROOT
BRANCH   8  18
ATOM     18  C   UNL     1       6.112   4.350  16.747  0.00  0.00    +0.000 C 
BRANCH  18  19
ATOM     19  C   UNL     1       7.458   4.959  17.141  0.00  0.00    +0.000 C 
BRANCH  19  20
ATOM     20  O   UNL     1       8.327   3.980  17.700  0.00  0.00    +0.000 OA
ATOM     21  H   UNL     1       7.849   3.567  18.441  0.00  0.00    +0.000 HD
ENDBRANCH  19  20
ENDBRANCH  18  19
ENDBRANCH   8  18
TORSDOF 3
ENDMDL
MODEL 7
REMARK VINA RESULT:      -7.1      2.682      3.462
REMARK  Name = 
REMARK  3 active torsions:
REMARK  status: ('A' for Active; 'I' for Inactive)
REMARK    1  A    between atoms: C_8  and  C_9
REMARK    2  A    between atoms: C_9  and  C_10
REMARK    3  A    between atoms: C_10  and  O_11
REMARK                            x       y       z     vdW  Elec       q    Type
REMARK                         _______ _______ _______ _____ _____    ______ ____
ROOT
ATOM      1  O   UNL     1       2.387   3.189  16.439  0.00  0.00    +0.000 OA
ATOM      2  C   UNL     1       2.751   3.713  17.483  0.00  0.00    +0.000 A 
ATOM      3  N   UNL     1       1.897   3.684  18.567  0.00  0.00    +0.000 N 
ATOM      4  C   UNL     1       2.167   4.218  19.792  0.00  0.00    +0.000 A 
ATOM      5  C   UNL     1       3.325   4.834  20.029  0.00  0.00    +0.000 A 
ATOM      6  C   UNL     1       4.322   4.940  18.957  0.00  0.00    +0.000 A 
ATOM      7  C   UNL     1       5.531   5.585  19.224  0.00  0.00    +0.000 A 
ATOM      8  C   UNL     1       6.525   5.711  18.239  0.00  0.00    +0.000 A 
ATOM      9  C   UNL     1       6.298   5.185  16.939  0.00  0.00    +0.000 A 
ATOM     10  C   UNL     1       7.272   5.299  15.919  0.00  0.00    +0.000 A 
ATOM     11  C   UNL     1       7.080   4.777  14.642  0.00  0.00    +0.000 A 
ATOM     12  C   UNL     1       5.898   4.130  14.351  0.00  0.00    +0.000 A 
ATOM     13 BR   UNL     1       5.621   3.419  12.622  0.00  0.00    +0.000 Br
ATOM     14  C   UNL     1       4.912   3.999  15.328  0.00  0.00    +0.000 A 
ATOM     15  C   UNL     1       5.068   4.514  16.645  0.00  0.00    +0.000 A 
ATOM     16  C   UNL     1       4.084   4.400  17.678  0.00  0.00    +0.000 A 
ATOM     17  H   UNL     1       1.013   3.216  18.399  0.00  0.00    +0.000 HD
ENDROOT
BRANCH   8  18
ATOM     18  C   UNL     1       7.818   6.411  18.644  0.00  0.00    +0.000 C 
BRANCH  18  19
ATOM     19  C   UNL     1       7.944   7.844  18.126  0.00  0.00    +0.000 C 
BRANCH  19  20
ATOM     20  O   UNL     1       8.838   8.609  18.928  0.00  0.00    +0.000 OA
ATOM     21  H   UNL     1       8.859   9.506  18.552  0.00  0.00    +0.000 HD
ENDBRANCH  19  20
ENDBRANCH  18  19
ENDBRANCH   8  18
TORSDOF 3
ENDMDL
MODEL 8
REMARK VINA RESULT:      -7.1      2.883      4.368
REMARK  Name = 
REMARK  3 active torsions:
REMARK  status: ('A' for Active; 'I' for Inactive)
REMARK    1  A    between atoms: C_8  and  C_9
REMARK    2  A    between atoms: C_9  and  C_10
REMARK    3  A    between atoms: C_10  and  O_11
REMARK                            x       y       z     vdW  Elec       q    Type
REMARK                         _______ _______ _______ _____ _____    ______ ____
ROOT
ATOM      1  O   UNL     1       0.880   4.328  20.246  0.00  0.00    +0.000 OA
ATOM      2  C   UNL     1       1.672   3.663  19.592  0.00  0.00    +0.000 A 
ATOM      3  N   UNL     1       1.661   2.291  19.744  0.00  0.00    +0.000 N 
ATOM      4  C   UNL     1       2.476   1.424  19.080  0.00  0.00    +0.000 A 
ATOM      5  C   UNL     1       3.381   1.867  18.206  0.00  0.00    +0.000 A 
ATOM      6  C   UNL     1       3.501   3.308  17.957  0.00  0.00    +0.000 A 
ATOM      7  C   UNL     1       4.450   3.755  17.036  0.00  0.00    +0.000 A 
ATOM      8  C   UNL     1       4.605   5.122  16.751  0.00  0.00    +0.000 A 
ATOM      9  C   UNL     1       3.792   6.076  17.420  0.00  0.00    +0.000 A 
ATOM     10  C   UNL     1       3.925   7.462  17.165  0.00  0.00    +0.000 A 
ATOM     11  C   UNL     1       3.128   8.416  17.794  0.00  0.00    +0.000 A 
ATOM     12  C   UNL     1       2.178   8.003  18.705  0.00  0.00    +0.000 A 
ATOM     13 BR   UNL     1       1.092   9.285  19.570  0.00  0.00    +0.000 Br
ATOM     14  C   UNL     1       2.019   6.647  18.985  0.00  0.00    +0.000 A 
ATOM     15  C   UNL     1       2.808   5.641  18.363  0.00  0.00    +0.000 A 
ATOM     16  C   UNL     1       2.676   4.239  18.619  0.00  0.00    +0.000 A 
ATOM     17  H   UNL     1       0.976   1.942  20.405  0.00  0.00    +0.000 HD
ENDROOT
BRANCH   8  18
ATOM     18  C   UNL     1       5.654   5.500  15.711  0.00  0.00    +0.000 C 
BRANCH  18  19
ATOM     19  C   UNL     1       6.701   4.415  15.452  0.00  0.00    +0.000 C 
BRANCH  19  20
ATOM     20  O   UNL     1       7.821   4.558  16.319  0.00  0.00    +0.000 OA
ATOM     21  H   UNL     1       8.572   4.114  15.886  0.00  0.00    +0.000 HD
ENDBRANCH  19  20
ENDBRANCH  18  19
ENDBRANCH   8  18
TORSDOF 3
ENDMDL
MODEL 9
REMARK VINA RESULT:      -7.0      1.495      1.522
REMARK  Name = 
REMARK  3 active torsions:
REMARK  status: ('A' for Active; 'I' for Inactive)
REMARK    1  A    between atoms: C_8  and  C_9
REMARK    2  A    between atoms: C_9  and  C_10
REMARK    3  A    between atoms: C_10  and  O_11
REMARK                            x       y       z     vdW  Elec       q    Type
REMARK                         _______ _______ _______ _____ _____    ______ ____
ROOT
ATOM      1  O   UNL     1       4.909   2.299  19.317  0.00  0.00    +0.000 OA
ATOM      2  C   UNL     1       4.024   2.913  19.896  0.00  0.00    +0.000 A 
ATOM      3  N   UNL     1       3.409   2.317  20.978  0.00  0.00    +0.000 N 
ATOM      4  C   UNL     1       2.416   2.880  21.723  0.00  0.00    +0.000 A 
ATOM      5  C   UNL     1       1.952   4.097  21.435  0.00  0.00    +0.000 A 
ATOM      6  C   UNL     1       2.516   4.838  20.302  0.00  0.00    +0.000 A 
ATOM      7  C   UNL     1       2.021   6.112  20.018  0.00  0.00    +0.000 A 
ATOM      8  C   UNL     1       2.527   6.872  18.949  0.00  0.00    +0.000 A 
ATOM      9  C   UNL     1       3.556   6.334  18.129  0.00  0.00    +0.000 A 
ATOM     10  C   UNL     1       4.085   7.065  17.040  0.00  0.00    +0.000 A 
ATOM     11  C   UNL     1       5.106   6.567  16.232  0.00  0.00    +0.000 A 
ATOM     12  C   UNL     1       5.618   5.314  16.493  0.00  0.00    +0.000 A 
ATOM     13 BR   UNL     1       6.999   4.623  15.404  0.00  0.00    +0.000 Br
ATOM     14  C   UNL     1       5.121   4.561  17.555  0.00  0.00    +0.000 A 
ATOM     15  C   UNL     1       4.083   5.032  18.406  0.00  0.00    +0.000 A 
ATOM     16  C   UNL     1       3.545   4.294  19.508  0.00  0.00    +0.000 A 
ATOM     17  H   UNL     1       3.756   1.392  21.207  0.00  0.00    +0.000 HD
ENDROOT
BRANCH   8  18
ATOM     18  C   UNL     1       1.933   8.261  18.742  0.00  0.00    +0.000 C 
BRANCH  18  19
ATOM     19  C   UNL     1       1.407   8.916  20.019  0.00  0.00    +0.000 C 
BRANCH  19  20
ATOM     20  O   UNL     1       0.327   9.801  19.741  0.00  0.00    +0.000 OA
ATOM     21  H   UNL     1      -0.223   9.836  20.544  0.00  0.00    +0.000 HD
ENDBRANCH  19  20
ENDBRANCH  18  19
ENDBRANCH   8  18
TORSDOF 3
ENDMDL
