MODEL 1
REMARK VINA RESULT:      -7.6      0.000      0.000
REMARK  Name = 
REMARK  2 active torsions:
REMARK  status: ('A' for Active; 'I' for Inactive)
REMARK    1  A    between atoms: N_5  and  C_6
REMARK    2  A    between atoms: N_15  and  C_16
REMARK                            x       y       z     vdW  Elec       q    Type
REMARK                         _______ _______ _______ _____ _____    ______ ____
ROOT
ATOM      1  O   UNL     1       8.342  18.539  18.430  0.00  0.00    +0.000 OA
ATOM      2  C   UNL     1       8.999  17.529  18.233  0.00  0.00    +0.000 C 
ATOM      3  N   UNL     1      10.103  17.472  17.427  0.00  0.00    +0.000 N 
ATOM      4  C   UNL     1      10.636  16.161  17.285  0.00  0.00    +0.000 C 
ATOM      5  N   UNL     1      10.017  15.387  18.384  0.00  0.00    +0.000 N 
ATOM      6  C   UNL     1       8.704  16.094  18.686  0.00  0.00    +0.000 C 
ATOM      7  C   UNL     1       8.269  16.156  20.165  0.00  0.00    +0.000 C 
ATOM      8  C   UNL     1       7.284  15.068  20.619  0.00  0.00    +0.000 C 
ATOM      9  N   UNL     1       6.290  14.788  19.564  0.00  0.00    +0.000 NA
ATOM     10  C   UNL     1       7.006  14.467  18.332  0.00  0.00    +0.000 C 
ATOM     11  C   UNL     1       7.613  15.666  17.708  0.00  0.00    +0.000 C 
ATOM     12  H   UNL     1      10.432  18.294  16.945  0.00  0.00    +0.000 HD
ENDROOT
BRANCH   9  13
ATOM     13  C   UNL     1       4.697  14.814  19.971  0.00  0.00    +0.000 C 
ATOM     14  C   UNL     1       4.713  14.639  21.569  0.00  0.00    +0.000 C 
ATOM     15  C   UNL     1       3.555  15.360  21.204  0.00  0.00    +0.000 C 
ATOM     16  C   UNL     1       2.754  13.926  20.107  0.00  0.00    +0.000 C 
ATOM     17  C   UNL     1       3.456  13.884  18.329  0.00  0.00    +0.000 C 
ATOM     18  N   UNL     1       4.623  15.158  17.718  0.00  0.00    +0.000 NA
ATOM     19  C   UNL     1       4.867  16.741  18.658  0.00  0.00    +0.000 C 
ATOM     20  C   UNL     1       4.647  16.834  20.490  0.00  0.00    +0.000 C 
ATOM     21  O   UNL     1       2.521  16.095  21.695  0.00  0.00    +0.000 OA
ATOM     22  C   UNL     1       2.252  16.531  20.398  0.00  0.00    +0.000 A 
ATOM     23  C   UNL     1       1.488  17.682  20.164  0.00  0.00    +0.000 A 
ATOM     24  C   UNL     1       1.337  18.159  18.855  0.00  0.00    +0.000 A 
ATOM     25  C   UNL     1       1.718  17.376  17.775  0.00  0.00    +0.000 A 
ATOM     26  C   UNL     1       2.428  16.196  17.993  0.00  0.00    +0.000 A 
ATOM     27  C   UNL     1       3.032  15.873  19.320  0.00  0.00    +0.000 A 
ATOM     28  H   UNL     1       5.497  14.649  17.899  0.00  0.00    +0.000 HD
ENDBRANCH   9  13
BRANCH   5  29
ATOM     29  C   UNL     1      10.530  14.111  18.629  0.00  0.00    +0.000 A 
ATOM     30  C   UNL     1      10.462  13.126  17.622  0.00  0.00    +0.000 A 
ATOM     31  C   UNL     1      10.957  11.813  17.754  0.00  0.00    +0.000 A 
ATOM     32  C   UNL     1      11.537  11.391  18.934  0.00  0.00    +0.000 A 
ATOM     33  C   UNL     1      11.634  12.301  19.961  0.00  0.00    +0.000 A 
ATOM     34  C   UNL     1      11.185  13.628  19.780  0.00  0.00    +0.000 A 
ENDBRANCH   5  29
TORSDOF 2
ENDMDL
MODEL 2
REMARK VINA RESULT:      -7.4      1.587      2.316
REMARK  Name = 
REMARK  2 active torsions:
REMARK  status: ('A' for Active; 'I' for Inactive)
REMARK    1  A    between atoms: N_5  and  C_6
REMARK    2  A    between atoms: N_15  and  C_16
REMARK                            x       y       z     vdW  Elec       q    Type
REMARK                         _______ _______ _______ _____ _____    ______ ____
ROOT
ATOM      1  O   UNL     1       9.552  17.979  19.221  0.00  0.00    +0.000 OA
ATOM      2  C   UNL     1       9.670  16.805  18.907  0.00  0.00    +0.000 C 
ATOM      3  N   UNL     1      10.634  16.325  18.062  0.00  0.00    +0.000 N 
ATOM      4  C   UNL     1      10.501  14.937  17.779  0.00  0.00    +0.000 C 
ATOM      5  N   UNL     1       9.580  14.432  18.820  0.00  0.00    +0.000 N 
ATOM      6  C   UNL     1       8.739  15.630  19.233  0.00  0.00    +0.000 C 
ATOM      7  C   UNL     1       8.362  15.739  20.724  0.00  0.00    +0.000 C 
ATOM      8  C   UNL     1       6.980  15.189  21.108  0.00  0.00    +0.000 C 
ATOM      9  N   UNL     1       5.983  15.506  20.065  0.00  0.00    +0.000 NA
ATOM     10  C   UNL     1       6.486  15.015  18.785  0.00  0.00    +0.000 C 
ATOM     11  C   UNL     1       7.587  15.854  18.257  0.00  0.00    +0.000 C 
ATOM     12  H   UNL     1      11.312  16.945  17.649  0.00  0.00    +0.000 HD
ENDROOT
BRANCH   9  13
ATOM     13  C   UNL     1       4.578  16.223  20.528  0.00  0.00    +0.000 C 
ATOM     14  C   UNL     1       4.903  17.794  20.429  0.00  0.00    +0.000 C 
ATOM     15  C   UNL     1       3.520  17.605  20.221  0.00  0.00    +0.000 C 
ATOM     16  C   UNL     1       3.146  16.830  21.998  0.00  0.00    +0.000 C 
ATOM     17  C   UNL     1       3.530  14.958  22.078  0.00  0.00    +0.000 C 
ATOM     18  N   UNL     1       4.034  14.009  20.594  0.00  0.00    +0.000 NA
ATOM     19  C   UNL     1       3.818  14.729  18.896  0.00  0.00    +0.000 C 
ATOM     20  C   UNL     1       3.865  16.551  18.595  0.00  0.00    +0.000 C 
ATOM     21  O   UNL     1       2.376  18.223  19.820  0.00  0.00    +0.000 OA
ATOM     22  C   UNL     1       1.768  16.973  19.717  0.00  0.00    +0.000 A 
ATOM     23  C   UNL     1       0.607  16.792  18.955  0.00  0.00    +0.000 A 
ATOM     24  C   UNL     1       0.090  15.502  18.775  0.00  0.00    +0.000 A 
ATOM     25  C   UNL     1       0.562  14.445  19.539  0.00  0.00    +0.000 A 
ATOM     26  C   UNL     1       1.682  14.624  20.349  0.00  0.00    +0.000 A 
ATOM     27  C   UNL     1       2.560  15.826  20.228  0.00  0.00    +0.000 A 
ATOM     28  H   UNL     1       5.051  14.056  20.734  0.00  0.00    +0.000 HD
ENDBRANCH   9  13
BRANCH   5  29
ATOM     29  C   UNL     1       9.441  13.046  18.927  0.00  0.00    +0.000 A 
ATOM     30  C   UNL     1       9.764  12.403  20.140  0.00  0.00    +0.000 A 
ATOM     31  C   UNL     1       9.649  11.016  20.365  0.00  0.00    +0.000 A 
ATOM     32  C   UNL     1       9.222  10.170  19.360  0.00  0.00    +0.000 A 
ATOM     33  C   UNL     1       8.892  10.730  18.148  0.00  0.00    +0.000 A 
ATOM     34  C   UNL     1       8.958  12.130  17.970  0.00  0.00    +0.000 A 
ENDBRANCH   5  29
TORSDOF 2
ENDMDL
MODEL 3
REMARK VINA RESULT:      -7.4      1.813      2.699
REMARK  Name = 
REMARK  2 active torsions:
REMARK  status: ('A' for Active; 'I' for Inactive)
REMARK    1  A    between atoms: N_5  and  C_6
REMARK    2  A    between atoms: N_15  and  C_16
REMARK                            x       y       z     vdW  Elec       q    Type
REMARK                         _______ _______ _______ _____ _____    ______ ____
ROOT
ATOM      1  O   UNL     1       8.211  18.204  18.247  0.00  0.00    +0.000 OA
ATOM      2  C   UNL     1       8.590  17.045  18.206  0.00  0.00    +0.000 C 
ATOM      3  N   UNL     1       9.693  16.618  17.518  0.00  0.00    +0.000 N 
ATOM      4  C   UNL     1       9.871  15.207  17.548  0.00  0.00    +0.000 C 
ATOM      5  N   UNL     1       8.997  14.746  18.649  0.00  0.00    +0.000 N 
ATOM      6  C   UNL     1       7.898  15.793  18.759  0.00  0.00    +0.000 C 
ATOM      7  C   UNL     1       7.395  16.131  20.177  0.00  0.00    +0.000 C 
ATOM      8  C   UNL     1       6.130  15.388  20.634  0.00  0.00    +0.000 C 
ATOM      9  N   UNL     1       5.172  15.253  19.518  0.00  0.00    +0.000 NA
ATOM     10  C   UNL     1       5.860  14.623  18.395  0.00  0.00    +0.000 C 
ATOM     11  C   UNL     1       6.802  15.549  17.725  0.00  0.00    +0.000 C 
ATOM     12  H   UNL     1      10.259  17.269  16.996  0.00  0.00    +0.000 HD
ENDROOT
BRANCH   9  13
ATOM     13  C   UNL     1       3.618  15.729  19.768  0.00  0.00    +0.000 C 
ATOM     14  C   UNL     1       3.495  17.086  18.916  0.00  0.00    +0.000 C 
ATOM     15  C   UNL     1       2.221  16.484  18.993  0.00  0.00    +0.000 C 
ATOM     16  C   UNL     1       2.059  16.588  20.958  0.00  0.00    +0.000 C 
ATOM     17  C   UNL     1       2.946  15.144  21.844  0.00  0.00    +0.000 C 
ATOM     18  N   UNL     1       3.709  13.760  20.916  0.00  0.00    +0.000 NA
ATOM     19  C   UNL     1       3.319  13.502  19.119  0.00  0.00    +0.000 C 
ATOM     20  C   UNL     1       2.861  14.905  18.008  0.00  0.00    +0.000 C 
ATOM     21  O   UNL     1       0.955  16.530  18.497  0.00  0.00    +0.000 OA
ATOM     22  C   UNL     1       0.719  15.276  19.059  0.00  0.00    +0.000 A 
ATOM     23  C   UNL     1      -0.339  14.471  18.618  0.00  0.00    +0.000 A 
ATOM     24  C   UNL     1      -0.476  13.169  19.119  0.00  0.00    +0.000 A 
ATOM     25  C   UNL     1       0.263  12.761  20.220  0.00  0.00    +0.000 A 
ATOM     26  C   UNL     1       1.282  13.577  20.710  0.00  0.00    +0.000 A 
ATOM     27  C   UNL     1       1.792  14.750  19.939  0.00  0.00    +0.000 A 
ATOM     28  H   UNL     1       4.671  14.119  20.891  0.00  0.00    +0.000 HD
ENDBRANCH   9  13
BRANCH   5  29
ATOM     29  C   UNL     1       9.137  13.418  19.058  0.00  0.00    +0.000 A 
ATOM     30  C   UNL     1       9.220  12.394  18.090  0.00  0.00    +0.000 A 
ATOM     31  C   UNL     1       9.376  11.025  18.387  0.00  0.00    +0.000 A 
ATOM     32  C   UNL     1       9.432  10.587  19.696  0.00  0.00    +0.000 A 
ATOM     33  C   UNL     1       9.354  11.532  20.692  0.00  0.00    +0.000 A 
ATOM     34  C   UNL     1       9.261  12.903  20.365  0.00  0.00    +0.000 A 
ENDBRANCH   5  29
TORSDOF 2
ENDMDL
MODEL 4
REMARK VINA RESULT:      -7.2      3.927      5.919
REMARK  Name = 
REMARK  2 active torsions:
REMARK  status: ('A' for Active; 'I' for Inactive)
REMARK    1  A    between atoms: N_5  and  C_6
REMARK    2  A    between atoms: N_15  and  C_16
REMARK                            x       y       z     vdW  Elec       q    Type
REMARK                         _______ _______ _______ _____ _____    ______ ____
ROOT
ATOM      1  O   UNL     1       7.259  17.801  20.402  0.00  0.00    +0.000 OA
ATOM      2  C   UNL     1       7.738  16.803  19.888  0.00  0.00    +0.000 C 
ATOM      3  N   UNL     1       7.757  16.561  18.541  0.00  0.00    +0.000 N 
ATOM      4  C   UNL     1       8.286  15.285  18.200  0.00  0.00    +0.000 C 
ATOM      5  N   UNL     1       8.986  14.834  19.423  0.00  0.00    +0.000 N 
ATOM      6  C   UNL     1       8.291  15.546  20.573  0.00  0.00    +0.000 C 
ATOM      7  C   UNL     1       9.178  16.011  21.746  0.00  0.00    +0.000 C 
ATOM      8  C   UNL     1       9.247  15.061  22.951  0.00  0.00    +0.000 C 
ATOM      9  N   UNL     1       7.927  14.453  23.214  0.00  0.00    +0.000 NA
ATOM     10  C   UNL     1       7.459  13.821  21.984  0.00  0.00    +0.000 C 
ATOM     11  C   UNL     1       7.013  14.815  20.979  0.00  0.00    +0.000 C 
ATOM     12  H   UNL     1       7.359  17.223  17.894  0.00  0.00    +0.000 HD
ENDROOT
BRANCH   9  13
ATOM     13  C   UNL     1       7.328  14.532  24.743  0.00  0.00    +0.000 C 
ATOM     14  C   UNL     1       6.381  15.830  24.713  0.00  0.00    +0.000 C 
ATOM     15  C   UNL     1       5.888  14.934  25.686  0.00  0.00    +0.000 C 
ATOM     16  C   UNL     1       7.496  14.967  26.833  0.00  0.00    +0.000 C 
ATOM     17  C   UNL     1       8.857  13.771  26.222  0.00  0.00    +0.000 C 
ATOM     18  N   UNL     1       8.583  12.628  24.815  0.00  0.00    +0.000 NA
ATOM     19  C   UNL     1       6.867  12.309  24.182  0.00  0.00    +0.000 C 
ATOM     20  C   UNL     1       5.526  13.573  24.311  0.00  0.00    +0.000 C 
ATOM     21  O   UNL     1       4.834  14.676  26.506  0.00  0.00    +0.000 OA
ATOM     22  C   UNL     1       5.342  13.395  26.712  0.00  0.00    +0.000 A 
ATOM     23  C   UNL     1       4.530  12.363  27.200  0.00  0.00    +0.000 A 
ATOM     24  C   UNL     1       5.041  11.060  27.283  0.00  0.00    +0.000 A 
ATOM     25  C   UNL     1       6.400  10.829  27.130  0.00  0.00    +0.000 A 
ATOM     26  C   UNL     1       7.233  11.862  26.702  0.00  0.00    +0.000 A 
ATOM     27  C   UNL     1       6.688  13.134  26.143  0.00  0.00    +0.000 A 
ATOM     28  H   UNL     1       8.994  13.211  24.076  0.00  0.00    +0.000 HD
ENDBRANCH   9  13
BRANCH   5  29
ATOM     29  C   UNL     1       9.797  13.702  19.310  0.00  0.00    +0.000 A 
ATOM     30  C   UNL     1       9.632  12.833  18.211  0.00  0.00    +0.000 A 
ATOM     31  C   UNL     1      10.400  11.672  17.989  0.00  0.00    +0.000 A 
ATOM     32  C   UNL     1      11.381  11.290  18.884  0.00  0.00    +0.000 A 
ATOM     33  C   UNL     1      11.593  12.092  19.981  0.00  0.00    +0.000 A 
ATOM     34  C   UNL     1      10.851  13.282  20.146  0.00  0.00    +0.000 A 
ENDBRANCH   5  29
TORSDOF 2
ENDMDL
MODEL 5
REMARK VINA RESULT:      -7.2      6.768      9.615
REMARK  Name = 
REMARK  2 active torsions:
REMARK  status: ('A' for Active; 'I' for Inactive)
REMARK    1  A    between atoms: N_5  and  C_6
REMARK    2  A    between atoms: N_15  and  C_16
REMARK                            x       y       z     vdW  Elec       q    Type
REMARK                         _______ _______ _______ _____ _____    ______ ____
ROOT
ATOM      1  O   UNL     1       0.847  15.368  19.004  0.00  0.00    +0.000 OA
ATOM      2  C   UNL     1       0.917  14.150  19.047  0.00  0.00    +0.000 C 
ATOM      3  N   UNL     1       1.520  13.377  18.092  0.00  0.00    +0.000 N 
ATOM      4  C   UNL     1       1.385  11.980  18.323  0.00  0.00    +0.000 C 
ATOM      5  N   UNL     1       0.963  11.877  19.737  0.00  0.00    +0.000 N 
ATOM      6  C   UNL     1       0.260  13.190  20.047  0.00  0.00    +0.000 C 
ATOM      7  C   UNL     1       0.469  13.778  21.457  0.00  0.00    +0.000 C 
ATOM      8  C   UNL     1      -0.625  13.454  22.486  0.00  0.00    +0.000 C 
ATOM      9  N   UNL     1      -1.961  13.489  21.858  0.00  0.00    +0.000 NA
ATOM     10  C   UNL     1      -1.948  12.596  20.702  0.00  0.00    +0.000 C 
ATOM     11  C   UNL     1      -1.188  13.165  19.564  0.00  0.00    +0.000 C 
ATOM     12  H   UNL     1       1.947  13.799  17.283  0.00  0.00    +0.000 HD
ENDROOT
BRANCH   9  13
ATOM     13  C   UNL     1      -3.133  14.393  22.574  0.00  0.00    +0.000 C 
ATOM     14  C   UNL     1      -2.943  15.848  21.919  0.00  0.00    +0.000 C 
ATOM     15  C   UNL     1      -4.295  15.694  22.292  0.00  0.00    +0.000 C 
ATOM     16  C   UNL     1      -3.955  15.479  24.225  0.00  0.00    +0.000 C 
ATOM     17  C   UNL     1      -3.478  13.687  24.692  0.00  0.00    +0.000 C 
ATOM     18  N   UNL     1      -3.507  12.327  23.465  0.00  0.00    +0.000 NA
ATOM     19  C   UNL     1      -4.363  12.548  21.832  0.00  0.00    +0.000 C 
ATOM     20  C   UNL     1      -4.518  14.203  21.026  0.00  0.00    +0.000 C 
ATOM     21  O   UNL     1      -5.534  16.243  22.176  0.00  0.00    +0.000 OA
ATOM     22  C   UNL     1      -6.076  15.055  22.663  0.00  0.00    +0.000 A 
ATOM     23  C   UNL     1      -7.426  14.738  22.462  0.00  0.00    +0.000 A 
ATOM     24  C   UNL     1      -7.910  13.484  22.860  0.00  0.00    +0.000 A 
ATOM     25  C   UNL     1      -7.141  12.660  23.669  0.00  0.00    +0.000 A 
ATOM     26  C   UNL     1      -5.812  12.991  23.928  0.00  0.00    +0.000 A 
ATOM     27  C   UNL     1      -5.099  14.053  23.157  0.00  0.00    +0.000 A 
ATOM     28  H   UNL     1      -2.513  12.348  23.205  0.00  0.00    +0.000 HD
ENDBRANCH   9  13
BRANCH   5  29
ATOM     29  C   UNL     1       0.968  10.603  20.310  0.00  0.00    +0.000 A 
ATOM     30  C   UNL     1       1.374   9.493  19.540  0.00  0.00    +0.000 A 
ATOM     31  C   UNL     1       1.431   8.167  20.017  0.00  0.00    +0.000 A 
ATOM     32  C   UNL     1       1.054   7.864  21.311  0.00  0.00    +0.000 A 
ATOM     33  C   UNL     1       0.644   8.900  22.117  0.00  0.00    +0.000 A 
ATOM     34  C   UNL     1       0.655  10.226  21.632  0.00  0.00    +0.000 A 
ENDBRANCH   5  29
TORSDOF 2
ENDMDL
MODEL 6
REMARK VINA RESULT:      -7.1      3.947      5.921
REMARK  Name = 
REMARK  2 active torsions:
REMARK  status: ('A' for Active; 'I' for Inactive)
REMARK    1  A    between atoms: N_5  and  C_6
REMARK    2  A    between atoms: N_15  and  C_16
REMARK                            x       y       z     vdW  Elec       q    Type
REMARK                         _______ _______ _______ _____ _____    ______ ____
ROOT
ATOM      1  O   UNL     1       9.715  10.839  17.897  0.00  0.00    +0.000 OA
ATOM      2  C   UNL     1      10.363  11.873  17.872  0.00  0.00    +0.000 C 
ATOM      3  N   UNL     1      11.520  12.041  17.162  0.00  0.00    +0.000 N 
ATOM      4  C   UNL     1      12.137  13.306  17.372  0.00  0.00    +0.000 C 
ATOM      5  N   UNL     1      11.082  14.134  17.996  0.00  0.00    +0.000 N 
ATOM      6  C   UNL     1      10.156  13.151  18.695  0.00  0.00    +0.000 C 
ATOM      7  C   UNL     1       8.648  13.475  18.674  0.00  0.00    +0.000 C 
ATOM      8  C   UNL     1       8.101  14.198  19.914  0.00  0.00    +0.000 C 
ATOM      9  N   UNL     1       8.731  13.677  21.143  0.00  0.00    +0.000 NA
ATOM     10  C   UNL     1      10.181  13.769  20.991  0.00  0.00    +0.000 C 
ATOM     11  C   UNL     1      10.711  12.748  20.058  0.00  0.00    +0.000 C 
ATOM     12  H   UNL     1      11.900  11.289  16.610  0.00  0.00    +0.000 HD
ENDROOT
BRANCH   9  13
ATOM     13  C   UNL     1       7.752  13.207  22.377  0.00  0.00    +0.000 C 
ATOM     14  C   UNL     1       7.976  11.618  22.455  0.00  0.00    +0.000 C 
ATOM     15  C   UNL     1       7.618  12.086  23.737  0.00  0.00    +0.000 C 
ATOM     16  C   UNL     1       5.836  12.763  23.222  0.00  0.00    +0.000 C 
ATOM     17  C   UNL     1       5.909  14.511  22.453  0.00  0.00    +0.000 C 
ATOM     18  N   UNL     1       7.469  15.470  22.374  0.00  0.00    +0.000 NA
ATOM     19  C   UNL     1       8.944  14.954  23.375  0.00  0.00    +0.000 C 
ATOM     20  C   UNL     1       9.245  13.190  23.834  0.00  0.00    +0.000 C 
ATOM     21  O   UNL     1       7.535  11.736  25.049  0.00  0.00    +0.000 OA
ATOM     22  C   UNL     1       7.385  13.084  25.371  0.00  0.00    +0.000 A 
ATOM     23  C   UNL     1       7.625  13.550  26.671  0.00  0.00    +0.000 A 
ATOM     24  C   UNL     1       7.581  14.926  26.932  0.00  0.00    +0.000 A 
ATOM     25  C   UNL     1       7.063  15.803  25.991  0.00  0.00    +0.000 A 
ATOM     26  C   UNL     1       6.764  15.343  24.709  0.00  0.00    +0.000 A 
ATOM     27  C   UNL     1       7.226  14.009  24.221  0.00  0.00    +0.000 A 
ATOM     28  H   UNL     1       7.743  15.217  21.417  0.00  0.00    +0.000 HD
ENDBRANCH   9  13
BRANCH   5  29
ATOM     29  C   UNL     1      11.335  15.503  18.112  0.00  0.00    +0.000 A 
ATOM     30  C   UNL     1      10.754  16.401  17.192  0.00  0.00    +0.000 A 
ATOM     31  C   UNL     1      10.929  17.799  17.221  0.00  0.00    +0.000 A 
ATOM     32  C   UNL     1      11.732  18.392  18.176  0.00  0.00    +0.000 A 
ATOM     33  C   UNL     1      12.333  17.574  19.104  0.00  0.00    +0.000 A 
ATOM     34  C   UNL     1      12.091  16.183  19.089  0.00  0.00    +0.000 A 
ENDBRANCH   5  29
TORSDOF 2
ENDMDL
MODEL 7
REMARK VINA RESULT:      -7.1      7.476     11.104
REMARK  Name = 
REMARK  2 active torsions:
REMARK  status: ('A' for Active; 'I' for Inactive)
REMARK    1  A    between atoms: N_5  and  C_6
REMARK    2  A    between atoms: N_15  and  C_16
REMARK                            x       y       z     vdW  Elec       q    Type
REMARK                         _______ _______ _______ _____ _____    ______ ____
ROOT
ATOM      1  O   UNL     1      -5.077  12.593  22.596  0.00  0.00    +0.000 OA
ATOM      2  C   UNL     1      -4.691  13.565  23.226  0.00  0.00    +0.000 C 
ATOM      3  N   UNL     1      -5.517  14.449  23.865  0.00  0.00    +0.000 N 
ATOM      4  C   UNL     1      -4.829  15.550  24.447  0.00  0.00    +0.000 C 
ATOM      5  N   UNL     1      -3.411  15.129  24.476  0.00  0.00    +0.000 N 
ATOM      6  C   UNL     1      -3.266  14.120  23.348  0.00  0.00    +0.000 C 
ATOM      7  C   UNL     1      -2.324  12.924  23.597  0.00  0.00    +0.000 C 
ATOM      8  C   UNL     1      -0.893  13.075  23.060  0.00  0.00    +0.000 C 
ATOM      9  N   UNL     1      -0.895  13.757  21.750  0.00  0.00    +0.000 NA
ATOM     10  C   UNL     1      -1.615  15.020  21.891  0.00  0.00    +0.000 C 
ATOM     11  C   UNL     1      -3.078  14.821  22.004  0.00  0.00    +0.000 C 
ATOM     12  H   UNL     1      -6.517  14.329  23.841  0.00  0.00    +0.000 HD
ENDROOT
BRANCH   9  13
ATOM     13  C   UNL     1      -0.081  13.053  20.507  0.00  0.00    +0.000 C 
ATOM     14  C   UNL     1       1.218  12.424  21.213  0.00  0.00    +0.000 C 
ATOM     15  C   UNL     1       0.911  11.659  20.067  0.00  0.00    +0.000 C 
ATOM     16  C   UNL     1       1.162  13.122  18.766  0.00  0.00    +0.000 C 
ATOM     17  C   UNL     1      -0.385  14.235  18.606  0.00  0.00    +0.000 C 
ATOM     18  N   UNL     1      -1.953  13.844  19.471  0.00  0.00    +0.000 NA
ATOM     19  C   UNL     1      -2.225  12.165  20.216  0.00  0.00    +0.000 C 
ATOM     20  C   UNL     1      -0.824  11.131  20.833  0.00  0.00    +0.000 C 
ATOM     21  O   UNL     1       1.200  10.503  19.411  0.00  0.00    +0.000 OA
ATOM     22  C   UNL     1       0.062  10.694  18.629  0.00  0.00    +0.000 A 
ATOM     23  C   UNL     1      -0.520   9.633  17.924  0.00  0.00    +0.000 A 
ATOM     24  C   UNL     1      -1.730   9.833  17.244  0.00  0.00    +0.000 A 
ATOM     25  C   UNL     1      -2.223  11.116  17.054  0.00  0.00    +0.000 A 
ATOM     26  C   UNL     1      -1.619  12.192  17.702  0.00  0.00    +0.000 A 
ATOM     27  C   UNL     1      -0.631  11.995  18.805  0.00  0.00    +0.000 A 
ATOM     28  H   UNL     1      -1.812  14.439  20.296  0.00  0.00    +0.000 HD
ENDBRANCH   9  13
BRANCH   5  29
ATOM     29  C   UNL     1      -2.526  15.928  25.205  0.00  0.00    +0.000 A 
ATOM     30  C   UNL     1      -2.637  17.332  25.138  0.00  0.00    +0.000 A 
ATOM     31  C   UNL     1      -1.810  18.233  25.839  0.00  0.00    +0.000 A 
ATOM     32  C   UNL     1      -0.785  17.773  26.644  0.00  0.00    +0.000 A 
ATOM     33  C   UNL     1      -0.618  16.412  26.752  0.00  0.00    +0.000 A 
ATOM     34  C   UNL     1      -1.500  15.532  26.087  0.00  0.00    +0.000 A 
ENDBRANCH   5  29
TORSDOF 2
ENDMDL
MODEL 8
REMARK VINA RESULT:      -7.0      6.590     11.769
REMARK  Name = 
REMARK  2 active torsions:
REMARK  status: ('A' for Active; 'I' for Inactive)
REMARK    1  A    between atoms: N_5  and  C_6
REMARK    2  A    between atoms: N_15  and  C_16
REMARK                            x       y       z     vdW  Elec       q    Type
REMARK                         _______ _______ _______ _____ _____    ______ ____
ROOT
ATOM      1  O   UNL     1      -4.976  12.680  23.805  0.00  0.00    +0.000 OA
ATOM      2  C   UNL     1      -5.434  12.716  22.674  0.00  0.00    +0.000 C 
ATOM      3  N   UNL     1      -6.470  11.938  22.235  0.00  0.00    +0.000 N 
ATOM      4  C   UNL     1      -6.756  12.099  20.851  0.00  0.00    +0.000 C 
ATOM      5  N   UNL     1      -6.065  13.352  20.473  0.00  0.00    +0.000 N 
ATOM      6  C   UNL     1      -4.914  13.492  21.457  0.00  0.00    +0.000 C 
ATOM      7  C   UNL     1      -4.570  14.919  21.931  0.00  0.00    +0.000 C 
ATOM      8  C   UNL     1      -3.433  15.621  21.173  0.00  0.00    +0.000 C 
ATOM      9  N   UNL     1      -2.354  14.666  20.849  0.00  0.00    +0.000 NA
ATOM     10  C   UNL     1      -2.940  13.537  20.131  0.00  0.00    +0.000 C 
ATOM     11  C   UNL     1      -3.717  12.648  21.026  0.00  0.00    +0.000 C 
ATOM     12  H   UNL     1      -6.914  11.276  22.851  0.00  0.00    +0.000 HD
ENDROOT
BRANCH   9  13
ATOM     13  C   UNL     1      -0.813  15.069  21.257  0.00  0.00    +0.000 C 
ATOM     14  C   UNL     1      -0.588  14.327  22.665  0.00  0.00    +0.000 C 
ATOM     15  C   UNL     1       0.661  14.459  22.019  0.00  0.00    +0.000 C 
ATOM     16  C   UNL     1       0.669  16.433  21.981  0.00  0.00    +0.000 C 
ATOM     17  C   UNL     1      -0.324  17.143  20.509  0.00  0.00    +0.000 C 
ATOM     18  N   UNL     1      -1.046  16.062  19.217  0.00  0.00    +0.000 NA
ATOM     19  C   UNL     1      -0.522  14.287  19.072  0.00  0.00    +0.000 C 
ATOM     20  C   UNL     1       0.059  13.317  20.533  0.00  0.00    +0.000 C 
ATOM     21  O   UNL     1       1.963  14.067  22.058  0.00  0.00    +0.000 OA
ATOM     22  C   UNL     1       2.120  14.555  20.762  0.00  0.00    +0.000 A 
ATOM     23  C   UNL     1       3.188  14.140  19.956  0.00  0.00    +0.000 A 
ATOM     24  C   UNL     1       3.251  14.556  18.619  0.00  0.00    +0.000 A 
ATOM     25  C   UNL     1       2.417  15.565  18.160  0.00  0.00    +0.000 A 
ATOM     26  C   UNL     1       1.384  16.031  18.972  0.00  0.00    +0.000 A 
ATOM     27  C   UNL     1       0.967  15.310  20.211  0.00  0.00    +0.000 A 
ATOM     28  H   UNL     1      -1.994  15.989  19.607  0.00  0.00    +0.000 HD
ENDBRANCH   9  13
BRANCH   5  29
ATOM     29  C   UNL     1      -6.356  13.882  19.214  0.00  0.00    +0.000 A 
ATOM     30  C   UNL     1      -6.468  13.021  18.102  0.00  0.00    +0.000 A 
ATOM     31  C   UNL     1      -6.770  13.443  16.791  0.00  0.00    +0.000 A 
ATOM     32  C   UNL     1      -6.956  14.782  16.504  0.00  0.00    +0.000 A 
ATOM     33  C   UNL     1      -6.858  15.679  17.543  0.00  0.00    +0.000 A 
ATOM     34  C   UNL     1      -6.616  15.222  18.857  0.00  0.00    +0.000 A 
ENDBRANCH   5  29
TORSDOF 2
ENDMDL
MODEL 9
REMARK VINA RESULT:      -7.0      3.826      7.786
REMARK  Name = 
REMARK  2 active torsions:
REMARK  status: ('A' for Active; 'I' for Inactive)
REMARK    1  A    between atoms: N_5  and  C_6
REMARK    2  A    between atoms: N_15  and  C_16
REMARK                            x       y       z     vdW  Elec       q    Type
REMARK                         _______ _______ _______ _____ _____    ______ ____
ROOT
ATOM      1  O   UNL     1      -1.756  13.040  22.014  0.00  0.00    +0.000 OA
ATOM      2  C   UNL     1      -1.103  12.052  21.717  0.00  0.00    +0.000 C 
ATOM      3  N   UNL     1      -1.176  10.853  22.372  0.00  0.00    +0.000 N 
ATOM      4  C   UNL     1      -0.247   9.887  21.895  0.00  0.00    +0.000 C 
ATOM      5  N   UNL     1       0.203  10.418  20.589  0.00  0.00    +0.000 N 
ATOM      6  C   UNL     1       0.021  11.926  20.681  0.00  0.00    +0.000 C 
ATOM      7  C   UNL     1      -0.444  12.653  19.403  0.00  0.00    +0.000 C 
ATOM      8  C   UNL     1       0.667  13.278  18.546  0.00  0.00    +0.000 C 
ATOM      9  N   UNL     1       1.712  13.876  19.401  0.00  0.00    +0.000 NA
ATOM     10  C   UNL     1       2.183  12.854  20.333  0.00  0.00    +0.000 C 
ATOM     11  C   UNL     1       1.197  12.578  21.404  0.00  0.00    +0.000 C 
ATOM     12  H   UNL     1      -1.795  10.732  23.158  0.00  0.00    +0.000 HD
ENDROOT
BRANCH   9  13
ATOM     13  C   UNL     1       2.163  15.429  19.104  0.00  0.00    +0.000 C 
ATOM     14  C   UNL     1       0.962  16.297  19.726  0.00  0.00    +0.000 C 
ATOM     15  C   UNL     1       2.146  17.065  19.772  0.00  0.00    +0.000 C 
ATOM     16  C   UNL     1       2.434  17.119  17.819  0.00  0.00    +0.000 C 
ATOM     17  C   UNL     1       3.313  15.552  17.164  0.00  0.00    +0.000 C 
ATOM     18  N   UNL     1       3.938  14.249  18.291  0.00  0.00    +0.000 NA
ATOM     19  C   UNL     1       4.092  14.573  20.113  0.00  0.00    +0.000 C 
ATOM     20  C   UNL     1       2.990  15.769  20.989  0.00  0.00    +0.000 C 
ATOM     21  O   UNL     1       2.697  18.202  20.276  0.00  0.00    +0.000 OA
ATOM     22  C   UNL     1       3.955  17.714  19.930  0.00  0.00    +0.000 A 
ATOM     23  C   UNL     1       5.119  18.228  20.516  0.00  0.00    +0.000 A 
ATOM     24  C   UNL     1       6.357  17.634  20.235  0.00  0.00    +0.000 A 
ATOM     25  C   UNL     1       6.476  16.716  19.203  0.00  0.00    +0.000 A 
ATOM     26  C   UNL     1       5.331  16.237  18.568  0.00  0.00    +0.000 A 
ATOM     27  C   UNL     1       3.965  16.464  19.128  0.00  0.00    +0.000 A 
ATOM     28  H   UNL     1       3.129  13.617  18.240  0.00  0.00    +0.000 HD
ENDBRANCH   9  13
BRANCH   5  29
ATOM     29  C   UNL     1       0.957   9.564  19.781  0.00  0.00    +0.000 A 
ATOM     30  C   UNL     1       1.462   8.361  20.318  0.00  0.00    +0.000 A 
ATOM     31  C   UNL     1       2.222   7.419  19.594  0.00  0.00    +0.000 A 
ATOM     32  C   UNL     1       2.551   7.644  18.271  0.00  0.00    +0.000 A 
ATOM     33  C   UNL     1       2.093   8.801  17.685  0.00  0.00    +0.000 A 
ATOM     34  C   UNL     1       1.282   9.696  18.416  0.00  0.00    +0.000 A 
ENDBRANCH   5  29
TORSDOF 2
ENDMDL
