MODEL 1
REMARK VINA RESULT:      -6.6      0.000      0.000
REMARK  Name = 
REMARK  5 active torsions:
REMARK  status: ('A' for Active; 'I' for Inactive)
REMARK    1  A    between atoms: C_1  and  C_2
REMARK    2  A    between atoms: C_4  and  C_5
REMARK    3  A    between atoms: C_13  and  C_14
REMARK    4  A    between atoms: N_15  and  C_16
REMARK    5  A    between atoms: C_21  and  C_22
REMARK                            x       y       z     vdW  Elec       q    Type
REMARK                         _______ _______ _______ _____ _____    ______ ____
ROOT
ATOM      1  C   UNL     1      -1.991   9.886  17.852  0.00  0.00    +0.000 C 
ATOM      2  C   UNL     1      -1.057  10.994  18.199  0.00  0.00    +0.000 A 
ATOM      3  C   UNL     1      -1.364  12.338  18.080  0.00  0.00    +0.000 A 
ATOM      4  C   UNL     1      -0.437  13.043  18.853  0.00  0.00    +0.000 A 
ATOM      5  C   UNL     1       0.531  12.165  19.296  0.00  0.00    +0.000 A 
ATOM      6  C   UNL     1       1.740  12.511  20.113  0.00  0.00    +0.000 C 
ATOM      7  N   UNL     1       0.193  10.880  18.823  0.00  0.00    +0.000 N 
ENDROOT
BRANCH   4   8
ATOM      8  C   UNL     1      -0.525  14.419  19.197  0.00  0.00    +0.000 C 
ATOM      9  C   UNL     1      -1.225  14.899  20.235  0.00  0.00    +0.000 C 
ATOM     10  S   UNL     1      -1.325  16.585  20.617  0.00  0.00    +0.000 S 
ATOM     11  C   UNL     1      -2.375  16.295  21.988  0.00  0.00    +0.000 C 
ATOM     12  O   UNL     1      -2.803  17.167  22.723  0.00  0.00    +0.000 OA
ATOM     13  N   UNL     1      -2.622  14.969  22.105  0.00  0.00    +0.000 N 
ATOM     14  C   UNL     1      -2.017  14.111  21.229  0.00  0.00    +0.000 C 
ATOM     15  O   UNL     1      -2.134  12.901  21.296  0.00  0.00    +0.000 OA
ATOM     16  H   UNL     1      -3.187  14.612  22.856  0.00  0.00    +0.000 HD
ENDBRANCH   4   8
BRANCH   7  17
ATOM     17  C   UNL     1       0.957   9.676  19.034  0.00  0.00    +0.000 A 
ATOM     18  C   UNL     1       1.736   9.192  17.960  0.00  0.00    +0.000 A 
ATOM     19  C   UNL     1       2.447   7.990  18.034  0.00  0.00    +0.000 A 
ATOM     20  C   UNL     1       2.466   7.281  19.219  0.00  0.00    +0.000 A 
ATOM     21  C   UNL     1       1.745   7.758  20.310  0.00  0.00    +0.000 A 
ATOM     22  C   UNL     1       0.941   8.923  20.229  0.00  0.00    +0.000 A 
BRANCH  22  23
ATOM     23  C   UNL     1       0.076   9.158  21.447  0.00  0.00    +0.000 C 
ATOM     24  F   UNL     1      -0.810  10.184  21.369  0.00  0.00    +0.000 F 
ATOM     25  F   UNL     1      -0.699   8.066  21.724  0.00  0.00    +0.000 F 
ATOM     26  F   UNL     1       0.820   9.359  22.572  0.00  0.00    +0.000 F 
ENDBRANCH  22  23
ENDBRANCH   7  17
TORSDOF 3
ENDMDL
MODEL 2
REMARK VINA RESULT:      -6.4      5.272      7.654
REMARK  Name = 
REMARK  5 active torsions:
REMARK  status: ('A' for Active; 'I' for Inactive)
REMARK    1  A    between atoms: C_1  and  C_2
REMARK    2  A    between atoms: C_4  and  C_5
REMARK    3  A    between atoms: C_13  and  C_14
REMARK    4  A    between atoms: N_15  and  C_16
REMARK    5  A    between atoms: C_21  and  C_22
REMARK                            x       y       z     vdW  Elec       q    Type
REMARK                         _______ _______ _______ _____ _____    ______ ____
ROOT
ATOM      1  C   UNL     1       3.148   2.805  17.658  0.00  0.00    +0.000 C 
ATOM      2  C   UNL     1       3.132   4.286  17.817  0.00  0.00    +0.000 A 
ATOM      3  C   UNL     1       2.245   4.974  18.624  0.00  0.00    +0.000 A 
ATOM      4  C   UNL     1       2.776   6.250  18.830  0.00  0.00    +0.000 A 
ATOM      5  C   UNL     1       3.883   6.406  18.020  0.00  0.00    +0.000 A 
ATOM      6  C   UNL     1       4.723   7.641  17.888  0.00  0.00    +0.000 C 
ATOM      7  N   UNL     1       4.072   5.199  17.316  0.00  0.00    +0.000 N 
ENDROOT
BRANCH   4   8
ATOM      8  C   UNL     1       2.307   7.197  19.780  0.00  0.00    +0.000 C 
ATOM      9  C   UNL     1       1.709   8.355  19.467  0.00  0.00    +0.000 C 
ATOM     10  S   UNL     1       1.163   9.496  20.650  0.00  0.00    +0.000 S 
ATOM     11  C   UNL     1       0.586  10.609  19.428  0.00  0.00    +0.000 C 
ATOM     12  O   UNL     1       0.042  11.673  19.669  0.00  0.00    +0.000 OA
ATOM     13  N   UNL     1       0.829  10.105  18.195  0.00  0.00    +0.000 N 
ATOM     14  C   UNL     1       1.400   8.866  18.096  0.00  0.00    +0.000 C 
ATOM     15  O   UNL     1       1.599   8.311  17.031  0.00  0.00    +0.000 OA
ATOM     16  H   UNL     1       0.540  10.598  17.368  0.00  0.00    +0.000 HD
ENDBRANCH   4   8
BRANCH   7  17
ATOM     17  C   UNL     1       5.100   4.945  16.338  0.00  0.00    +0.000 A 
ATOM     18  C   UNL     1       4.698   4.688  15.009  0.00  0.00    +0.000 A 
ATOM     19  C   UNL     1       5.610   4.349  14.005  0.00  0.00    +0.000 A 
ATOM     20  C   UNL     1       6.962   4.342  14.285  0.00  0.00    +0.000 A 
ATOM     21  C   UNL     1       7.392   4.638  15.576  0.00  0.00    +0.000 A 
ATOM     22  C   UNL     1       6.480   4.890  16.632  0.00  0.00    +0.000 A 
BRANCH  22  23
ATOM     23  C   UNL     1       7.131   4.982  17.995  0.00  0.00    +0.000 C 
ATOM     24  F   UNL     1       6.371   4.595  19.052  0.00  0.00    +0.000 F 
ATOM     25  F   UNL     1       8.240   4.187  18.070  0.00  0.00    +0.000 F 
ATOM     26  F   UNL     1       7.578   6.241  18.265  0.00  0.00    +0.000 F 
ENDBRANCH  22  23
ENDBRANCH   7  17
TORSDOF 3
ENDMDL
MODEL 3
REMARK VINA RESULT:      -6.3      2.279      2.628
REMARK  Name = 
REMARK  5 active torsions:
REMARK  status: ('A' for Active; 'I' for Inactive)
REMARK    1  A    between atoms: C_1  and  C_2
REMARK    2  A    between atoms: C_4  and  C_5
REMARK    3  A    between atoms: C_13  and  C_14
REMARK    4  A    between atoms: N_15  and  C_16
REMARK    5  A    between atoms: C_21  and  C_22
REMARK                            x       y       z     vdW  Elec       q    Type
REMARK                         _______ _______ _______ _____ _____    ______ ____
ROOT
ATOM      1  C   UNL     1      -1.665  10.059  17.560  0.00  0.00    +0.000 C 
ATOM      2  C   UNL     1      -0.798  11.085  18.204  0.00  0.00    +0.000 A 
ATOM      3  C   UNL     1      -1.081  12.438  18.233  0.00  0.00    +0.000 A 
ATOM      4  C   UNL     1      -0.287  13.004  19.234  0.00  0.00    +0.000 A 
ATOM      5  C   UNL     1       0.598  12.051  19.692  0.00  0.00    +0.000 A 
ATOM      6  C   UNL     1       1.664  12.248  20.729  0.00  0.00    +0.000 C 
ATOM      7  N   UNL     1       0.339  10.853  18.993  0.00  0.00    +0.000 N 
ENDROOT
BRANCH   4   8
ATOM      8  C   UNL     1      -0.428  14.319  19.755  0.00  0.00    +0.000 C 
ATOM      9  C   UNL     1       0.432  15.323  19.528  0.00  0.00    +0.000 C 
ATOM     10  S   UNL     1       0.240  16.910  20.191  0.00  0.00    +0.000 S 
ATOM     11  C   UNL     1       1.713  17.489  19.444  0.00  0.00    +0.000 C 
ATOM     12  O   UNL     1       2.132  18.629  19.542  0.00  0.00    +0.000 OA
ATOM     13  N   UNL     1       2.298  16.488  18.744  0.00  0.00    +0.000 N 
ATOM     14  C   UNL     1       1.668  15.275  18.687  0.00  0.00    +0.000 C 
ATOM     15  O   UNL     1       2.089  14.339  18.034  0.00  0.00    +0.000 OA
ATOM     16  H   UNL     1       3.144  16.645  18.225  0.00  0.00    +0.000 HD
ENDBRANCH   4   8
BRANCH   7  17
ATOM     17  C   UNL     1       1.059   9.614  19.145  0.00  0.00    +0.000 A 
ATOM     18  C   UNL     1       1.887   9.198  18.080  0.00  0.00    +0.000 A 
ATOM     19  C   UNL     1       2.563   7.973  18.093  0.00  0.00    +0.000 A 
ATOM     20  C   UNL     1       2.495   7.170  19.213  0.00  0.00    +0.000 A 
ATOM     21  C   UNL     1       1.723   7.576  20.298  0.00  0.00    +0.000 A 
ATOM     22  C   UNL     1       0.954   8.767  20.269  0.00  0.00    +0.000 A 
BRANCH  22  23
ATOM     23  C   UNL     1       0.026   8.926  21.453  0.00  0.00    +0.000 C 
ATOM     24  F   UNL     1      -0.810   7.886  21.707  0.00  0.00    +0.000 F 
ATOM     25  F   UNL     1       0.727   9.085  22.616  0.00  0.00    +0.000 F 
ATOM     26  F   UNL     1      -0.748  10.043  21.350  0.00  0.00    +0.000 F 
ENDBRANCH  22  23
ENDBRANCH   7  17
TORSDOF 3
ENDMDL
MODEL 4
REMARK VINA RESULT:      -6.2      3.556      6.621
REMARK  Name = 
REMARK  5 active torsions:
REMARK  status: ('A' for Active; 'I' for Inactive)
REMARK    1  A    between atoms: C_1  and  C_2
REMARK    2  A    between atoms: C_4  and  C_5
REMARK    3  A    between atoms: C_13  and  C_14
REMARK    4  A    between atoms: N_15  and  C_16
REMARK    5  A    between atoms: C_21  and  C_22
REMARK                            x       y       z     vdW  Elec       q    Type
REMARK                         _______ _______ _______ _____ _____    ______ ____
ROOT
ATOM      1  C   UNL     1      -2.886  11.555  18.508  0.00  0.00    +0.000 C 
ATOM      2  C   UNL     1      -1.453  11.201  18.712  0.00  0.00    +0.000 A 
ATOM      3  C   UNL     1      -0.899   9.975  18.392  0.00  0.00    +0.000 A 
ATOM      4  C   UNL     1       0.486  10.148  18.341  0.00  0.00    +0.000 A 
ATOM      5  C   UNL     1       0.793  11.414  18.797  0.00  0.00    +0.000 A 
ATOM      6  C   UNL     1       2.166  11.994  18.958  0.00  0.00    +0.000 C 
ATOM      7  N   UNL     1      -0.420  12.063  19.110  0.00  0.00    +0.000 N 
ENDROOT
BRANCH   4   8
ATOM      8  C   UNL     1       1.418   9.208  17.824  0.00  0.00    +0.000 C 
ATOM      9  C   UNL     1       1.986   8.228  18.541  0.00  0.00    +0.000 C 
ATOM     10  S   UNL     1       3.131   7.108  17.884  0.00  0.00    +0.000 S 
ATOM     11  C   UNL     1       3.328   6.284  19.416  0.00  0.00    +0.000 C 
ATOM     12  O   UNL     1       4.053   5.320  19.591  0.00  0.00    +0.000 OA
ATOM     13  N   UNL     1       2.553   6.874  20.357  0.00  0.00    +0.000 N 
ATOM     14  C   UNL     1       1.750   7.916  19.984  0.00  0.00    +0.000 C 
ATOM     15  O   UNL     1       0.978   8.465  20.749  0.00  0.00    +0.000 OA
ATOM     16  H   UNL     1       2.517   6.516  21.296  0.00  0.00    +0.000 HD
ENDBRANCH   4   8
BRANCH   7  17
ATOM     17  C   UNL     1      -0.551  13.393  19.648  0.00  0.00    +0.000 A 
ATOM     18  C   UNL     1      -0.303  14.482  18.784  0.00  0.00    +0.000 A 
ATOM     19  C   UNL     1      -0.322  15.808  19.228  0.00  0.00    +0.000 A 
ATOM     20  C   UNL     1      -0.676  16.084  20.533  0.00  0.00    +0.000 A 
ATOM     21  C   UNL     1      -0.973  15.033  21.397  0.00  0.00    +0.000 A 
ATOM     22  C   UNL     1      -0.866  13.678  20.995  0.00  0.00    +0.000 A 
BRANCH  22  23
ATOM     23  C   UNL     1      -1.024  12.688  22.128  0.00  0.00    +0.000 C 
ATOM     24  F   UNL     1      -1.050  13.207  23.382  0.00  0.00    +0.000 F 
ATOM     25  F   UNL     1      -2.202  12.000  22.026  0.00  0.00    +0.000 F 
ATOM     26  F   UNL     1      -0.053  11.732  22.112  0.00  0.00    +0.000 F 
ENDBRANCH  22  23
ENDBRANCH   7  17
TORSDOF 3
ENDMDL
MODEL 5
REMARK VINA RESULT:      -6.1      2.130      2.886
REMARK  Name = 
REMARK  5 active torsions:
REMARK  status: ('A' for Active; 'I' for Inactive)
REMARK    1  A    between atoms: C_1  and  C_2
REMARK    2  A    between atoms: C_4  and  C_5
REMARK    3  A    between atoms: C_13  and  C_14
REMARK    4  A    between atoms: N_15  and  C_16
REMARK    5  A    between atoms: C_21  and  C_22
REMARK                            x       y       z     vdW  Elec       q    Type
REMARK                         _______ _______ _______ _____ _____    ______ ____
ROOT
ATOM      1  C   UNL     1       2.055  13.020  20.484  0.00  0.00    +0.000 C 
ATOM      2  C   UNL     1       0.631  12.588  20.410  0.00  0.00    +0.000 A 
ATOM      3  C   UNL     1      -0.444  13.379  20.771  0.00  0.00    +0.000 A 
ATOM      4  C   UNL     1      -1.586  12.811  20.200  0.00  0.00    +0.000 A 
ATOM      5  C   UNL     1      -1.247  11.594  19.646  0.00  0.00    +0.000 A 
ATOM      6  C   UNL     1      -2.179  10.628  18.978  0.00  0.00    +0.000 C 
ATOM      7  N   UNL     1       0.137  11.404  19.841  0.00  0.00    +0.000 N 
ENDROOT
BRANCH   4   8
ATOM      8  C   UNL     1      -2.865  13.425  20.126  0.00  0.00    +0.000 C 
ATOM      9  C   UNL     1      -3.812  13.326  21.070  0.00  0.00    +0.000 C 
ATOM     10  S   UNL     1      -5.368  14.074  20.942  0.00  0.00    +0.000 S 
ATOM     11  C   UNL     1      -5.891  13.439  22.487  0.00  0.00    +0.000 C 
ATOM     12  O   UNL     1      -6.982  13.655  22.985  0.00  0.00    +0.000 OA
ATOM     13  N   UNL     1      -4.905  12.689  23.033  0.00  0.00    +0.000 N 
ATOM     14  C   UNL     1      -3.714  12.590  22.369  0.00  0.00    +0.000 C 
ATOM     15  O   UNL     1      -2.754  11.989  22.813  0.00  0.00    +0.000 OA
ATOM     16  H   UNL     1      -5.019  12.264  23.937  0.00  0.00    +0.000 HD
ENDBRANCH   4   8
BRANCH   7  17
ATOM     17  C   UNL     1       0.895  10.246  19.441  0.00  0.00    +0.000 A 
ATOM     18  C   UNL     1       1.448  10.235  18.142  0.00  0.00    +0.000 A 
ATOM     19  C   UNL     1       2.129   9.126  17.628  0.00  0.00    +0.000 A 
ATOM     20  C   UNL     1       2.350   8.029  18.435  0.00  0.00    +0.000 A 
ATOM     21  C   UNL     1       1.857   8.029  19.738  0.00  0.00    +0.000 A 
ATOM     22  C   UNL     1       1.082   9.102  20.247  0.00  0.00    +0.000 A 
BRANCH  22  23
ATOM     23  C   UNL     1       0.467   8.824  21.601  0.00  0.00    +0.000 C 
ATOM     24  F   UNL     1      -0.637   8.032  21.609  0.00  0.00    +0.000 F 
ATOM     25  F   UNL     1       1.348   8.180  22.425  0.00  0.00    +0.000 F 
ATOM     26  F   UNL     1       0.139   9.971  22.260  0.00  0.00    +0.000 F 
ENDBRANCH  22  23
ENDBRANCH   7  17
TORSDOF 3
ENDMDL
MODEL 6
REMARK VINA RESULT:      -6.1      4.786      7.931
REMARK  Name = 
REMARK  5 active torsions:
REMARK  status: ('A' for Active; 'I' for Inactive)
REMARK    1  A    between atoms: C_1  and  C_2
REMARK    2  A    between atoms: C_4  and  C_5
REMARK    3  A    between atoms: C_13  and  C_14
REMARK    4  A    between atoms: N_15  and  C_16
REMARK    5  A    between atoms: C_21  and  C_22
REMARK                            x       y       z     vdW  Elec       q    Type
REMARK                         _______ _______ _______ _____ _____    ______ ____
ROOT
ATOM      1  C   UNL     1      -0.428   8.845  22.049  0.00  0.00    +0.000 C 
ATOM      2  C   UNL     1       0.626   8.710  21.005  0.00  0.00    +0.000 A 
ATOM      3  C   UNL     1       1.728   7.882  21.112  0.00  0.00    +0.000 A 
ATOM      4  C   UNL     1       2.249   7.717  19.826  0.00  0.00    +0.000 A 
ATOM      5  C   UNL     1       1.588   8.570  18.967  0.00  0.00    +0.000 A 
ATOM      6  C   UNL     1       1.866   8.754  17.505  0.00  0.00    +0.000 C 
ATOM      7  N   UNL     1       0.612   9.261  19.715  0.00  0.00    +0.000 N 
ENDROOT
BRANCH   4   8
ATOM      8  C   UNL     1       3.235   6.766  19.450  0.00  0.00    +0.000 C 
ATOM      9  C   UNL     1       3.088   5.437  19.552  0.00  0.00    +0.000 C 
ATOM     10  S   UNL     1       4.317   4.305  19.100  0.00  0.00    +0.000 S 
ATOM     11  C   UNL     1       3.336   2.930  19.560  0.00  0.00    +0.000 C 
ATOM     12  O   UNL     1       3.684   1.768  19.449  0.00  0.00    +0.000 OA
ATOM     13  N   UNL     1       2.144   3.358  20.041  0.00  0.00    +0.000 N 
ATOM     14  C   UNL     1       1.885   4.700  20.047  0.00  0.00    +0.000 C 
ATOM     15  O   UNL     1       0.820   5.169  20.405  0.00  0.00    +0.000 OA
ATOM     16  H   UNL     1       1.438   2.703  20.330  0.00  0.00    +0.000 HD
ENDBRANCH   4   8
BRANCH   7  17
ATOM     17  C   UNL     1      -0.281  10.272  19.208  0.00  0.00    +0.000 A 
ATOM     18  C   UNL     1      -1.507   9.850  18.649  0.00  0.00    +0.000 A 
ATOM     19  C   UNL     1      -2.405  10.743  18.056  0.00  0.00    +0.000 A 
ATOM     20  C   UNL     1      -2.138  12.097  18.083  0.00  0.00    +0.000 A 
ATOM     21  C   UNL     1      -0.958  12.548  18.669  0.00  0.00    +0.000 A 
ATOM     22  C   UNL     1       0.011  11.654  19.191  0.00  0.00    +0.000 A 
BRANCH  22  23
ATOM     23  C   UNL     1       1.308  12.321  19.591  0.00  0.00    +0.000 C 
ATOM     24  F   UNL     1       1.310  13.679  19.595  0.00  0.00    +0.000 F 
ATOM     25  F   UNL     1       1.669  11.981  20.865  0.00  0.00    +0.000 F 
ATOM     26  F   UNL     1       2.351  11.924  18.809  0.00  0.00    +0.000 F 
ENDBRANCH  22  23
ENDBRANCH   7  17
TORSDOF 3
ENDMDL
MODEL 7
REMARK VINA RESULT:      -6.0      5.053      7.162
REMARK  Name = 
REMARK  5 active torsions:
REMARK  status: ('A' for Active; 'I' for Inactive)
REMARK    1  A    between atoms: C_1  and  C_2
REMARK    2  A    between atoms: C_4  and  C_5
REMARK    3  A    between atoms: C_13  and  C_14
REMARK    4  A    between atoms: N_15  and  C_16
REMARK    5  A    between atoms: C_21  and  C_22
REMARK                            x       y       z     vdW  Elec       q    Type
REMARK                         _______ _______ _______ _____ _____    ______ ____
ROOT
ATOM      1  C   UNL     1       2.963   3.915  19.319  0.00  0.00    +0.000 C 
ATOM      2  C   UNL     1       2.979   5.193  18.555  0.00  0.00    +0.000 A 
ATOM      3  C   UNL     1       1.858   5.960  18.293  0.00  0.00    +0.000 A 
ATOM      4  C   UNL     1       2.303   7.233  17.929  0.00  0.00    +0.000 A 
ATOM      5  C   UNL     1       3.675   7.202  17.795  0.00  0.00    +0.000 A 
ATOM      6  C   UNL     1       4.554   8.339  17.367  0.00  0.00    +0.000 C 
ATOM      7  N   UNL     1       4.108   5.897  18.111  0.00  0.00    +0.000 N 
ENDROOT
BRANCH   4   8
ATOM      8  C   UNL     1       1.486   8.389  17.803  0.00  0.00    +0.000 C 
ATOM      9  C   UNL     1       0.997   9.091  18.835  0.00  0.00    +0.000 C 
ATOM     10  S   UNL     1      -0.010  10.486  18.647  0.00  0.00    +0.000 S 
ATOM     11  C   UNL     1      -0.168  10.707  20.376  0.00  0.00    +0.000 C 
ATOM     12  O   UNL     1      -0.798  11.609  20.900  0.00  0.00    +0.000 OA
ATOM     13  N   UNL     1       0.516   9.737  21.027  0.00  0.00    +0.000 N 
ATOM     14  C   UNL     1       1.221   8.826  20.290  0.00  0.00    +0.000 C 
ATOM     15  O   UNL     1       1.912   7.958  20.791  0.00  0.00    +0.000 OA
ATOM     16  H   UNL     1       0.560   9.720  22.032  0.00  0.00    +0.000 HD
ENDBRANCH   4   8
BRANCH   7  17
ATOM     17  C   UNL     1       5.470   5.426  18.068  0.00  0.00    +0.000 A 
ATOM     18  C   UNL     1       6.264   5.598  19.222  0.00  0.00    +0.000 A 
ATOM     19  C   UNL     1       7.619   5.251  19.256  0.00  0.00    +0.000 A 
ATOM     20  C   UNL     1       8.193   4.641  18.159  0.00  0.00    +0.000 A 
ATOM     21  C   UNL     1       7.422   4.416  17.022  0.00  0.00    +0.000 A 
ATOM     22  C   UNL     1       6.074   4.846  16.932  0.00  0.00    +0.000 A 
BRANCH  22  23
ATOM     23  C   UNL     1       5.475   4.698  15.551  0.00  0.00    +0.000 C 
ATOM     24  F   UNL     1       5.207   5.850  14.883  0.00  0.00    +0.000 F 
ATOM     25  F   UNL     1       6.314   4.014  14.716  0.00  0.00    +0.000 F 
ATOM     26  F   UNL     1       4.322   3.970  15.567  0.00  0.00    +0.000 F 
ENDBRANCH  22  23
ENDBRANCH   7  17
TORSDOF 3
ENDMDL
MODEL 8
REMARK VINA RESULT:      -5.9      4.673      7.824
REMARK  Name = 
REMARK  5 active torsions:
REMARK  status: ('A' for Active; 'I' for Inactive)
REMARK    1  A    between atoms: C_1  and  C_2
REMARK    2  A    between atoms: C_4  and  C_5
REMARK    3  A    between atoms: C_13  and  C_14
REMARK    4  A    between atoms: N_15  and  C_16
REMARK    5  A    between atoms: C_21  and  C_22
REMARK                            x       y       z     vdW  Elec       q    Type
REMARK                         _______ _______ _______ _____ _____    ______ ____
ROOT
ATOM      1  C   UNL     1      -0.570   8.753  22.228  0.00  0.00    +0.000 C 
ATOM      2  C   UNL     1       0.461   8.704  21.154  0.00  0.00    +0.000 A 
ATOM      3  C   UNL     1       1.613   7.943  21.214  0.00  0.00    +0.000 A 
ATOM      4  C   UNL     1       2.108   7.837  19.911  0.00  0.00    +0.000 A 
ATOM      5  C   UNL     1       1.373   8.667  19.089  0.00  0.00    +0.000 A 
ATOM      6  C   UNL     1       1.599   8.899  17.625  0.00  0.00    +0.000 C 
ATOM      7  N   UNL     1       0.378   9.281  19.878  0.00  0.00    +0.000 N 
ENDROOT
BRANCH   4   8
ATOM      8  C   UNL     1       3.139   6.957  19.487  0.00  0.00    +0.000 C 
ATOM      9  C   UNL     1       3.086   5.621  19.584  0.00  0.00    +0.000 C 
ATOM     10  S   UNL     1       4.368   4.576  19.073  0.00  0.00    +0.000 S 
ATOM     11  C   UNL     1       3.500   3.136  19.561  0.00  0.00    +0.000 C 
ATOM     12  O   UNL     1       3.921   2.000  19.427  0.00  0.00    +0.000 OA
ATOM     13  N   UNL     1       2.304   3.480  20.095  0.00  0.00    +0.000 N 
ATOM     14  C   UNL     1       1.955   4.802  20.122  0.00  0.00    +0.000 C 
ATOM     15  O   UNL     1       0.877   5.196  20.527  0.00  0.00    +0.000 OA
ATOM     16  H   UNL     1       1.655   2.778  20.407  0.00  0.00    +0.000 HD
ENDBRANCH   4   8
BRANCH   7  17
ATOM     17  C   UNL     1      -0.588  10.247  19.418  0.00  0.00    +0.000 A 
ATOM     18  C   UNL     1      -1.513   9.836  18.433  0.00  0.00    +0.000 A 
ATOM     19  C   UNL     1      -2.435  10.718  17.860  0.00  0.00    +0.000 A 
ATOM     20  C   UNL     1      -2.514  12.016  18.322  0.00  0.00    +0.000 A 
ATOM     21  C   UNL     1      -1.646  12.437  19.327  0.00  0.00    +0.000 A 
ATOM     22  C   UNL     1      -0.640  11.589  19.854  0.00  0.00    +0.000 A 
BRANCH  22  23
ATOM     23  C   UNL     1       0.330  12.290  20.779  0.00  0.00    +0.000 C 
ATOM     24  F   UNL     1       0.204  12.016  22.103  0.00  0.00    +0.000 F 
ATOM     25  F   UNL     1       1.623  11.954  20.488  0.00  0.00    +0.000 F 
ATOM     26  F   UNL     1       0.277  13.645  20.645  0.00  0.00    +0.000 F 
ENDBRANCH  22  23
ENDBRANCH   7  17
TORSDOF 3
ENDMDL
MODEL 9
REMARK VINA RESULT:      -5.9      8.666     10.193
REMARK  Name = 
REMARK  5 active torsions:
REMARK  status: ('A' for Active; 'I' for Inactive)
REMARK    1  A    between atoms: C_1  and  C_2
REMARK    2  A    between atoms: C_4  and  C_5
REMARK    3  A    between atoms: C_13  and  C_14
REMARK    4  A    between atoms: N_15  and  C_16
REMARK    5  A    between atoms: C_21  and  C_22
REMARK                            x       y       z     vdW  Elec       q    Type
REMARK                         _______ _______ _______ _____ _____    ______ ____
ROOT
ATOM      1  C   UNL     1       6.598  14.404  17.963  0.00  0.00    +0.000 C 
ATOM      2  C   UNL     1       7.317  14.747  19.222  0.00  0.00    +0.000 A 
ATOM      3  C   UNL     1       6.693  15.029  20.424  0.00  0.00    +0.000 A 
ATOM      4  C   UNL     1       7.656  14.903  21.429  0.00  0.00    +0.000 A 
ATOM      5  C   UNL     1       8.891  14.721  20.841  0.00  0.00    +0.000 A 
ATOM      6  C   UNL     1      10.206  14.594  21.550  0.00  0.00    +0.000 C 
ATOM      7  N   UNL     1       8.701  14.700  19.443  0.00  0.00    +0.000 N 
ENDROOT
BRANCH   4   8
ATOM      8  C   UNL     1       7.394  14.878  22.825  0.00  0.00    +0.000 C 
ATOM      9  C   UNL     1       7.288  13.761  23.559  0.00  0.00    +0.000 C 
ATOM     10  S   UNL     1       6.952  13.765  25.258  0.00  0.00    +0.000 S 
ATOM     11  C   UNL     1       6.972  12.017  25.349  0.00  0.00    +0.000 C 
ATOM     12  O   UNL     1       6.801  11.380  26.374  0.00  0.00    +0.000 OA
ATOM     13  N   UNL     1       7.213  11.496  24.123  0.00  0.00    +0.000 N 
ATOM     14  C   UNL     1       7.440  12.352  23.081  0.00  0.00    +0.000 C 
ATOM     15  O   UNL     1       7.723  11.973  21.959  0.00  0.00    +0.000 OA
ATOM     16  H   UNL     1       7.287  10.502  23.988  0.00  0.00    +0.000 HD
ENDBRANCH   4   8
BRANCH   7  17
ATOM     17  C   UNL     1       9.739  14.562  18.453  0.00  0.00    +0.000 A 
ATOM     18  C   UNL     1      10.333  15.741  17.951  0.00  0.00    +0.000 A 
ATOM     19  C   UNL     1      11.289  15.720  16.930  0.00  0.00    +0.000 A 
ATOM     20  C   UNL     1      11.739  14.510  16.443  0.00  0.00    +0.000 A 
ATOM     21  C   UNL     1      11.205  13.328  16.952  0.00  0.00    +0.000 A 
ATOM     22  C   UNL     1      10.168  13.328  17.918  0.00  0.00    +0.000 A 
BRANCH  22  23
ATOM     23  C   UNL     1       9.581  11.960  18.186  0.00  0.00    +0.000 C 
ATOM     24  F   UNL     1      10.242  10.904  17.645  0.00  0.00    +0.000 F 
ATOM     25  F   UNL     1       9.551  11.686  19.526  0.00  0.00    +0.000 F 
ATOM     26  F   UNL     1       8.284  11.869  17.777  0.00  0.00    +0.000 F 
ENDBRANCH  22  23
ENDBRANCH   7  17
TORSDOF 3
ENDMDL
