MODEL 1
REMARK VINA RESULT:      -7.0      0.000      0.000
REMARK  Name = 
REMARK  14 active torsions:
REMARK  status: ('A' for Active; 'I' for Inactive)
REMARK    1  A    between atoms: C_1  and  C_2
REMARK    2  A    between atoms: C_2  and  O_3
REMARK    3  A    between atoms: O_3  and  C_4
REMARK    4  A    between atoms: C_4  and  C_6
REMARK    5  A    between atoms: C_9  and  N_10
REMARK    6  A    between atoms: N_10  and  S_11
REMARK    7  A    between atoms: S_11  and  C_14
REMARK    8  A    between atoms: C_14  and  C_15
REMARK    9  A    between atoms: C_15  and  O_16
REMARK   10  A    between atoms: C_15  and  C_18
REMARK   11  A    between atoms: O_16  and  C_17
REMARK   12  A    between atoms: C_18  and  C_19
REMARK   13  A    between atoms: C_18  and  C_20
REMARK   14  A    between atoms: C_21  and  O_22
REMARK                            x       y       z     vdW  Elec       q    Type
REMARK                         _______ _______ _______ _____ _____    ______ ____
ROOT
ATOM      1  C   UNL     1       6.190   5.061  15.511  0.00  0.00    +0.000 A 
ATOM      2  C   UNL     1       5.130   5.980  15.558  0.00  0.00    +0.000 A 
ATOM      3  C   UNL     1       4.496   6.267  16.777  0.00  0.00    +0.000 A 
ATOM      4  C   UNL     1       4.932   5.647  17.950  0.00  0.00    +0.000 A 
ATOM      5  C   UNL     1       5.975   4.718  17.890  0.00  0.00    +0.000 A 
ATOM      6  C   UNL     1       6.602   4.425  16.688  0.00  0.00    +0.000 A 
ENDROOT
BRANCH   1   7
ATOM      7  C   UNL     1       6.986   4.786  14.288  0.00  0.00    +0.000 C 
ATOM      8  O   UNL     1       7.784   5.587  13.822  0.00  0.00    +0.000 OA
BRANCH   7   9
ATOM      9  O   UNL     1       6.582   3.632  13.705  0.00  0.00    +0.000 OA
BRANCH   9  11
ATOM     10  C   UNL     1       5.072   3.239  11.912  0.00  0.00    +0.000 C 
ATOM     11  C   UNL     1       6.469   3.711  12.275  0.00  0.00    +0.000 C 
ENDBRANCH   9  11
ENDBRANCH   7   9
ENDBRANCH   1   7
BRANCH   4  12
ATOM     12  N   UNL     1       4.352   5.987  19.217  0.00  0.00    +0.000 N 
ATOM     13  H   UNL     1       4.690   6.880  19.586  0.00  0.00    +0.000 HD
BRANCH  12  14
ATOM     14  S   UNL     1       2.647   6.069  19.304  0.00  0.00    +0.000 S 
ATOM     15  O   UNL     1       2.413   7.388  19.872  0.00  0.00    +0.000 OA
ATOM     16  O   UNL     1       2.070   5.666  18.045  0.00  0.00    +0.000 OA
BRANCH  14  17
ATOM     17  C   UNL     1       2.343   4.813  20.547  0.00  0.00    +0.000 C 
BRANCH  17  18
ATOM     18  C   UNL     1       2.595   3.389  20.040  0.00  0.00    +0.000 C 
BRANCH  18  19
ATOM     19  C   UNL     1       1.882   3.087  18.689  0.00  0.00    +0.000 C 
ATOM     20  C   UNL     1       2.809   2.338  17.721  0.00  0.00    +0.000 C 
ATOM     21  C   UNL     1       0.572   2.315  18.835  0.00  0.00    +0.000 C 
ENDBRANCH  18  19
BRANCH  18  22
ATOM     22  O   UNL     1       3.996   3.097  19.917  0.00  0.00    +0.000 OA
ATOM     23  C   UNL     1       4.501   2.036  20.717  0.00  0.00    +0.000 C 
ENDBRANCH  18  22
ENDBRANCH  17  18
ENDBRANCH  14  17
ENDBRANCH  12  14
ENDBRANCH   4  12
BRANCH   5  24
ATOM     24  O   UNL     1       6.468   4.115  19.013  0.00  0.00    +0.000 OA
ATOM     25  H   UNL     1       6.164   4.651  19.764  0.00  0.00    +0.000 HD
ENDBRANCH   5  24
TORSDOF 10
ENDMDL
MODEL 2
REMARK VINA RESULT:      -6.9      2.240      3.687
REMARK  Name = 
REMARK  14 active torsions:
REMARK  status: ('A' for Active; 'I' for Inactive)
REMARK    1  A    between atoms: C_1  and  C_2
REMARK    2  A    between atoms: C_2  and  O_3
REMARK    3  A    between atoms: O_3  and  C_4
REMARK    4  A    between atoms: C_4  and  C_6
REMARK    5  A    between atoms: C_9  and  N_10
REMARK    6  A    between atoms: N_10  and  S_11
REMARK    7  A    between atoms: S_11  and  C_14
REMARK    8  A    between atoms: C_14  and  C_15
REMARK    9  A    between atoms: C_15  and  O_16
REMARK   10  A    between atoms: C_15  and  C_18
REMARK   11  A    between atoms: O_16  and  C_17
REMARK   12  A    between atoms: C_18  and  C_19
REMARK   13  A    between atoms: C_18  and  C_20
REMARK   14  A    between atoms: C_21  and  O_22
REMARK                            x       y       z     vdW  Elec       q    Type
REMARK                         _______ _______ _______ _____ _____    ______ ____
ROOT
ATOM      1  C   UNL     1       5.855   5.029  15.420  0.00  0.00    +0.000 A 
ATOM      2  C   UNL     1       5.300   6.301  15.636  0.00  0.00    +0.000 A 
ATOM      3  C   UNL     1       4.669   6.598  16.853  0.00  0.00    +0.000 A 
ATOM      4  C   UNL     1       4.607   5.631  17.859  0.00  0.00    +0.000 A 
ATOM      5  C   UNL     1       5.145   4.362  17.627  0.00  0.00    +0.000 A 
ATOM      6  C   UNL     1       5.764   4.059  16.424  0.00  0.00    +0.000 A 
ENDROOT
BRANCH   1   7
ATOM      7  C   UNL     1       6.637   4.668  14.209  0.00  0.00    +0.000 C 
ATOM      8  O   UNL     1       7.453   5.422  13.698  0.00  0.00    +0.000 OA
BRANCH   7   9
ATOM      9  O   UNL     1       6.198   3.496  13.689  0.00  0.00    +0.000 OA
BRANCH   9  11
ATOM     10  C   UNL     1       4.752   3.413  11.805  0.00  0.00    +0.000 C 
ATOM     11  C   UNL     1       6.202   3.459  12.254  0.00  0.00    +0.000 C 
ENDBRANCH   9  11
ENDBRANCH   7   9
ENDBRANCH   1   7
BRANCH   4  12
ATOM     12  N   UNL     1       4.038   5.941  19.139  0.00  0.00    +0.000 N 
ATOM     13  H   UNL     1       4.013   6.946  19.333  0.00  0.00    +0.000 HD
BRANCH  12  14
ATOM     14  S   UNL     1       2.457   5.373  19.456  0.00  0.00    +0.000 S 
ATOM     15  O   UNL     1       1.821   5.432  18.149  0.00  0.00    +0.000 OA
ATOM     16  O   UNL     1       2.518   4.151  20.221  0.00  0.00    +0.000 OA
BRANCH  14  17
ATOM     17  C   UNL     1       1.852   6.711  20.484  0.00  0.00    +0.000 C 
BRANCH  17  18
ATOM     18  C   UNL     1       1.414   7.940  19.681  0.00  0.00    +0.000 C 
BRANCH  18  19
ATOM     19  C   UNL     1       1.059   9.161  20.578  0.00  0.00    +0.000 C 
ATOM     20  C   UNL     1      -0.403   9.593  20.384  0.00  0.00    +0.000 C 
ATOM     21  C   UNL     1       1.328   8.942  22.066  0.00  0.00    +0.000 C 
ENDBRANCH  18  19
BRANCH  18  22
ATOM     22  O   UNL     1       2.398   8.331  18.709  0.00  0.00    +0.000 OA
ATOM     23  C   UNL     1       2.048   9.399  17.839  0.00  0.00    +0.000 C 
ENDBRANCH  18  22
ENDBRANCH  17  18
ENDBRANCH  14  17
ENDBRANCH  12  14
ENDBRANCH   4  12
BRANCH   5  24
ATOM     24  O   UNL     1       5.147   3.394  18.591  0.00  0.00    +0.000 OA
ATOM     25  H   UNL     1       4.260   2.997  18.579  0.00  0.00    +0.000 HD
ENDBRANCH   5  24
TORSDOF 10
ENDMDL
MODEL 3
REMARK VINA RESULT:      -6.7      3.279      7.374
REMARK  Name = 
REMARK  14 active torsions:
REMARK  status: ('A' for Active; 'I' for Inactive)
REMARK    1  A    between atoms: C_1  and  C_2
REMARK    2  A    between atoms: C_2  and  O_3
REMARK    3  A    between atoms: O_3  and  C_4
REMARK    4  A    between atoms: C_4  and  C_6
REMARK    5  A    between atoms: C_9  and  N_10
REMARK    6  A    between atoms: N_10  and  S_11
REMARK    7  A    between atoms: S_11  and  C_14
REMARK    8  A    between atoms: C_14  and  C_15
REMARK    9  A    between atoms: C_15  and  O_16
REMARK   10  A    between atoms: C_15  and  C_18
REMARK   11  A    between atoms: O_16  and  C_17
REMARK   12  A    between atoms: C_18  and  C_19
REMARK   13  A    between atoms: C_18  and  C_20
REMARK   14  A    between atoms: C_21  and  O_22
REMARK                            x       y       z     vdW  Elec       q    Type
REMARK                         _______ _______ _______ _____ _____    ______ ____
ROOT
ATOM      1  C   UNL     1       1.463   8.713  19.678  0.00  0.00    +0.000 A 
ATOM      2  C   UNL     1       2.025   8.637  18.394  0.00  0.00    +0.000 A 
ATOM      3  C   UNL     1       2.601   7.439  17.944  0.00  0.00    +0.000 A 
ATOM      4  C   UNL     1       2.602   6.314  18.772  0.00  0.00    +0.000 A 
ATOM      5  C   UNL     1       2.059   6.406  20.057  0.00  0.00    +0.000 A 
ATOM      6  C   UNL     1       1.493   7.588  20.510  0.00  0.00    +0.000 A 
ENDROOT
BRANCH   1   7
ATOM      7  C   UNL     1       0.735   9.903  20.188  0.00  0.00    +0.000 C 
ATOM      8  O   UNL     1       1.145  11.045  20.040  0.00  0.00    +0.000 OA
BRANCH   7   9
ATOM      9  O   UNL     1      -0.316   9.527  20.956  0.00  0.00    +0.000 OA
BRANCH   9  11
ATOM     10  C   UNL     1       0.045   9.525  23.305  0.00  0.00    +0.000 C 
ATOM     11  C   UNL     1      -0.492  10.329  22.135  0.00  0.00    +0.000 C 
ENDBRANCH   9  11
ENDBRANCH   7   9
ENDBRANCH   1   7
BRANCH   4  12
ATOM     12  N   UNL     1       3.113   5.060  18.303  0.00  0.00    +0.000 N 
ATOM     13  H   UNL     1       3.227   5.029  17.285  0.00  0.00    +0.000 HD
BRANCH  12  14
ATOM     14  S   UNL     1       4.604   4.526  18.948  0.00  0.00    +0.000 S 
ATOM     15  O   UNL     1       4.905   5.534  19.952  0.00  0.00    +0.000 OA
ATOM     16  O   UNL     1       4.525   3.123  19.274  0.00  0.00    +0.000 OA
BRANCH  14  17
ATOM     17  C   UNL     1       5.659   4.764  17.517  0.00  0.00    +0.000 C 
BRANCH  17  18
ATOM     18  C   UNL     1       6.035   6.230  17.281  0.00  0.00    +0.000 C 
BRANCH  18  19
ATOM     19  C   UNL     1       7.514   6.548  17.649  0.00  0.00    +0.000 C 
ATOM     20  C   UNL     1       7.798   8.055  17.577  0.00  0.00    +0.000 C 
ATOM     21  C   UNL     1       7.945   6.016  19.015  0.00  0.00    +0.000 C 
ENDBRANCH  18  19
BRANCH  18  22
ATOM     22  O   UNL     1       5.778   6.646  15.930  0.00  0.00    +0.000 OA
ATOM     23  C   UNL     1       5.493   5.620  14.988  0.00  0.00    +0.000 C 
ENDBRANCH  18  22
ENDBRANCH  17  18
ENDBRANCH  14  17
ENDBRANCH  12  14
ENDBRANCH   4  12
BRANCH   5  24
ATOM     24  O   UNL     1       1.997   5.326  20.892  0.00  0.00    +0.000 OA
ATOM     25  H   UNL     1       1.422   4.677  20.453  0.00  0.00    +0.000 HD
ENDBRANCH   5  24
TORSDOF 10
ENDMDL
MODEL 4
REMARK VINA RESULT:      -6.7      1.806      2.783
REMARK  Name = 
REMARK  14 active torsions:
REMARK  status: ('A' for Active; 'I' for Inactive)
REMARK    1  A    between atoms: C_1  and  C_2
REMARK    2  A    between atoms: C_2  and  O_3
REMARK    3  A    between atoms: O_3  and  C_4
REMARK    4  A    between atoms: C_4  and  C_6
REMARK    5  A    between atoms: C_9  and  N_10
REMARK    6  A    between atoms: N_10  and  S_11
REMARK    7  A    between atoms: S_11  and  C_14
REMARK    8  A    between atoms: C_14  and  C_15
REMARK    9  A    between atoms: C_15  and  O_16
REMARK   10  A    between atoms: C_15  and  C_18
REMARK   11  A    between atoms: O_16  and  C_17
REMARK   12  A    between atoms: C_18  and  C_19
REMARK   13  A    between atoms: C_18  and  C_20
REMARK   14  A    between atoms: C_21  and  O_22
REMARK                            x       y       z     vdW  Elec       q    Type
REMARK                         _______ _______ _______ _____ _____    ______ ____
ROOT
ATOM      1  C   UNL     1       6.532   4.489  15.304  0.00  0.00    +0.000 A 
ATOM      2  C   UNL     1       5.215   4.066  15.544  0.00  0.00    +0.000 A 
ATOM      3  C   UNL     1       4.768   3.858  16.858  0.00  0.00    +0.000 A 
ATOM      4  C   UNL     1       5.632   4.088  17.931  0.00  0.00    +0.000 A 
ATOM      5  C   UNL     1       6.948   4.490  17.681  0.00  0.00    +0.000 A 
ATOM      6  C   UNL     1       7.398   4.691  16.385  0.00  0.00    +0.000 A 
ENDROOT
BRANCH   1   7
ATOM      7  C   UNL     1       7.050   4.841  13.957  0.00  0.00    +0.000 C 
ATOM      8  O   UNL     1       8.029   5.556  13.789  0.00  0.00    +0.000 OA
BRANCH   7   9
ATOM      9  O   UNL     1       6.206   4.406  12.991  0.00  0.00    +0.000 OA
BRANCH   9  11
ATOM     10  C   UNL     1       5.716   2.465  11.711  0.00  0.00    +0.000 C 
ATOM     11  C   UNL     1       6.797   3.465  12.082  0.00  0.00    +0.000 C 
ENDBRANCH   9  11
ENDBRANCH   7   9
ENDBRANCH   1   7
BRANCH   4  12
ATOM     12  N   UNL     1       5.171   3.958  19.282  0.00  0.00    +0.000 N 
ATOM     13  H   UNL     1       4.596   4.749  19.587  0.00  0.00    +0.000 HD
BRANCH  12  14
ATOM     14  S   UNL     1       4.274   2.557  19.677  0.00  0.00    +0.000 S 
ATOM     15  O   UNL     1       4.137   1.885  18.394  0.00  0.00    +0.000 OA
ATOM     16  O   UNL     1       4.859   1.905  20.823  0.00  0.00    +0.000 OA
BRANCH  14  17
ATOM     17  C   UNL     1       2.713   3.313  20.134  0.00  0.00    +0.000 C 
BRANCH  17  18
ATOM     18  C   UNL     1       2.721   4.840  20.006  0.00  0.00    +0.000 C 
BRANCH  18  19
ATOM     19  C   UNL     1       1.942   5.352  18.758  0.00  0.00    +0.000 C 
ATOM     20  C   UNL     1       2.756   6.395  17.979  0.00  0.00    +0.000 C 
ATOM     21  C   UNL     1       1.494   4.245  17.806  0.00  0.00    +0.000 C 
ENDBRANCH  18  19
BRANCH  18  22
ATOM     22  O   UNL     1       2.215   5.486  21.184  0.00  0.00    +0.000 OA
ATOM     23  C   UNL     1       1.339   6.587  20.984  0.00  0.00    +0.000 C 
ENDBRANCH  18  22
ENDBRANCH  17  18
ENDBRANCH  14  17
ENDBRANCH  12  14
ENDBRANCH   4  12
BRANCH   5  24
ATOM     24  O   UNL     1       7.821   4.768  18.694  0.00  0.00    +0.000 OA
ATOM     25  H   UNL     1       8.709   4.741  18.302  0.00  0.00    +0.000 HD
ENDBRANCH   5  24
TORSDOF 10
ENDMDL
MODEL 5
REMARK VINA RESULT:      -6.7      1.140      1.364
REMARK  Name = 
REMARK  14 active torsions:
REMARK  status: ('A' for Active; 'I' for Inactive)
REMARK    1  A    between atoms: C_1  and  C_2
REMARK    2  A    between atoms: C_2  and  O_3
REMARK    3  A    between atoms: O_3  and  C_4
REMARK    4  A    between atoms: C_4  and  C_6
REMARK    5  A    between atoms: C_9  and  N_10
REMARK    6  A    between atoms: N_10  and  S_11
REMARK    7  A    between atoms: S_11  and  C_14
REMARK    8  A    between atoms: C_14  and  C_15
REMARK    9  A    between atoms: C_15  and  O_16
REMARK   10  A    between atoms: C_15  and  C_18
REMARK   11  A    between atoms: O_16  and  C_17
REMARK   12  A    between atoms: C_18  and  C_19
REMARK   13  A    between atoms: C_18  and  C_20
REMARK   14  A    between atoms: C_21  and  O_22
REMARK                            x       y       z     vdW  Elec       q    Type
REMARK                         _______ _______ _______ _____ _____    ______ ____
ROOT
ATOM      1  C   UNL     1       6.233   5.316  15.371  0.00  0.00    +0.000 A 
ATOM      2  C   UNL     1       5.315   6.368  15.521  0.00  0.00    +0.000 A 
ATOM      3  C   UNL     1       4.652   6.558  16.742  0.00  0.00    +0.000 A 
ATOM      4  C   UNL     1       4.917   5.708  17.818  0.00  0.00    +0.000 A 
ATOM      5  C   UNL     1       5.817   4.651  17.653  0.00  0.00    +0.000 A 
ATOM      6  C   UNL     1       6.472   4.453  16.447  0.00  0.00    +0.000 A 
ENDROOT
BRANCH   1   7
ATOM      7  C   UNL     1       7.060   5.112  14.154  0.00  0.00    +0.000 C 
ATOM      8  O   UNL     1       8.226   5.472  14.077  0.00  0.00    +0.000 OA
BRANCH   7   9
ATOM      9  O   UNL     1       6.302   4.642  13.134  0.00  0.00    +0.000 OA
BRANCH   9  11
ATOM     10  C   UNL     1       5.747   2.781  11.764  0.00  0.00    +0.000 C 
ATOM     11  C   UNL     1       6.084   3.223  13.177  0.00  0.00    +0.000 C 
ENDBRANCH   9  11
ENDBRANCH   7   9
ENDBRANCH   1   7
BRANCH   4  12
ATOM     12  N   UNL     1       4.310   5.934  19.097  0.00  0.00    +0.000 N 
ATOM     13  H   UNL     1       4.673   6.766  19.571  0.00  0.00    +0.000 HD
BRANCH  12  14
ATOM     14  S   UNL     1       2.607   6.085  19.145  0.00  0.00    +0.000 S 
ATOM     15  O   UNL     1       2.316   6.037  20.569  0.00  0.00    +0.000 OA
ATOM     16  O   UNL     1       2.188   7.188  18.316  0.00  0.00    +0.000 OA
BRANCH  14  17
ATOM     17  C   UNL     1       2.142   4.531  18.379  0.00  0.00    +0.000 C 
BRANCH  17  18
ATOM     18  C   UNL     1       2.779   3.312  19.052  0.00  0.00    +0.000 C 
BRANCH  18  19
ATOM     19  C   UNL     1       1.789   2.532  19.966  0.00  0.00    +0.000 C 
ATOM     20  C   UNL     1       2.113   2.742  21.452  0.00  0.00    +0.000 C 
ATOM     21  C   UNL     1       0.318   2.863  19.717  0.00  0.00    +0.000 C 
ENDBRANCH  18  19
BRANCH  18  22
ATOM     22  O   UNL     1       3.363   2.409  18.099  0.00  0.00    +0.000 OA
ATOM     23  C   UNL     1       3.796   1.149  18.593  0.00  0.00    +0.000 C 
ENDBRANCH  18  22
ENDBRANCH  17  18
ENDBRANCH  14  17
ENDBRANCH  12  14
ENDBRANCH   4  12
BRANCH   5  24
ATOM     24  O   UNL     1       6.143   3.815  18.684  0.00  0.00    +0.000 OA
ATOM     25  H   UNL     1       7.091   3.623  18.588  0.00  0.00    +0.000 HD
ENDBRANCH   5  24
TORSDOF 10
ENDMDL
MODEL 6
REMARK VINA RESULT:      -6.7      3.700      5.423
REMARK  Name = 
REMARK  14 active torsions:
REMARK  status: ('A' for Active; 'I' for Inactive)
REMARK    1  A    between atoms: C_1  and  C_2
REMARK    2  A    between atoms: C_2  and  O_3
REMARK    3  A    between atoms: O_3  and  C_4
REMARK    4  A    between atoms: C_4  and  C_6
REMARK    5  A    between atoms: C_9  and  N_10
REMARK    6  A    between atoms: N_10  and  S_11
REMARK    7  A    between atoms: S_11  and  C_14
REMARK    8  A    between atoms: C_14  and  C_15
REMARK    9  A    between atoms: C_15  and  O_16
REMARK   10  A    between atoms: C_15  and  C_18
REMARK   11  A    between atoms: O_16  and  C_17
REMARK   12  A    between atoms: C_18  and  C_19
REMARK   13  A    between atoms: C_18  and  C_20
REMARK   14  A    between atoms: C_21  and  O_22
REMARK                            x       y       z     vdW  Elec       q    Type
REMARK                         _______ _______ _______ _____ _____    ______ ____
ROOT
ATOM      1  C   UNL     1       7.965   8.056  18.069  0.00  0.00    +0.000 A 
ATOM      2  C   UNL     1       7.124   7.557  17.061  0.00  0.00    +0.000 A 
ATOM      3  C   UNL     1       6.700   6.220  17.092  0.00  0.00    +0.000 A 
ATOM      4  C   UNL     1       7.104   5.386  18.138  0.00  0.00    +0.000 A 
ATOM      5  C   UNL     1       7.957   5.887  19.126  0.00  0.00    +0.000 A 
ATOM      6  C   UNL     1       8.385   7.206  19.098  0.00  0.00    +0.000 A 
ENDROOT
BRANCH   1   7
ATOM      7  C   UNL     1       8.366   9.482  18.174  0.00  0.00    +0.000 C 
ATOM      8  O   UNL     1       7.993  10.336  17.382  0.00  0.00    +0.000 OA
BRANCH   7   9
ATOM      9  O   UNL     1       9.303   9.645  19.139  0.00  0.00    +0.000 OA
BRANCH   9  11
ATOM     10  C   UNL     1       9.343  11.193  20.942  0.00  0.00    +0.000 C 
ATOM     11  C   UNL     1       9.584  11.018  19.453  0.00  0.00    +0.000 C 
ENDBRANCH   9  11
ENDBRANCH   7   9
ENDBRANCH   1   7
BRANCH   4  12
ATOM     12  N   UNL     1       6.618   4.041  18.231  0.00  0.00    +0.000 N 
ATOM     13  H   UNL     1       7.163   3.461  18.875  0.00  0.00    +0.000 HD
BRANCH  12  14
ATOM     14  S   UNL     1       4.984   3.824  18.689  0.00  0.00    +0.000 S 
ATOM     15  O   UNL     1       4.306   3.665  17.413  0.00  0.00    +0.000 OA
ATOM     16  O   UNL     1       4.894   2.831  19.732  0.00  0.00    +0.000 OA
BRANCH  14  17
ATOM     17  C   UNL     1       4.638   5.451  19.361  0.00  0.00    +0.000 C 
BRANCH  17  18
ATOM     18  C   UNL     1       3.180   5.883  19.173  0.00  0.00    +0.000 C 
BRANCH  18  19
ATOM     19  C   UNL     1       2.241   5.370  20.305  0.00  0.00    +0.000 C 
ATOM     20  C   UNL     1       1.395   6.510  20.891  0.00  0.00    +0.000 C 
ATOM     21  C   UNL     1       1.323   4.225  19.882  0.00  0.00    +0.000 C 
ENDBRANCH  18  19
BRANCH  18  22
ATOM     22  O   UNL     1       3.048   7.309  19.051  0.00  0.00    +0.000 OA
ATOM     23  C   UNL     1       2.867   7.824  17.739  0.00  0.00    +0.000 C 
ENDBRANCH  18  22
ENDBRANCH  17  18
ENDBRANCH  14  17
ENDBRANCH  12  14
ENDBRANCH   4  12
BRANCH   5  24
ATOM     24  O   UNL     1       8.348   5.127  20.192  0.00  0.00    +0.000 OA
ATOM     25  H   UNL     1       8.846   4.378  19.823  0.00  0.00    +0.000 HD
ENDBRANCH   5  24
TORSDOF 10
ENDMDL
MODEL 7
REMARK VINA RESULT:      -6.6      2.218      3.613
REMARK  Name = 
REMARK  14 active torsions:
REMARK  status: ('A' for Active; 'I' for Inactive)
REMARK    1  A    between atoms: C_1  and  C_2
REMARK    2  A    between atoms: C_2  and  O_3
REMARK    3  A    between atoms: O_3  and  C_4
REMARK    4  A    between atoms: C_4  and  C_6
REMARK    5  A    between atoms: C_9  and  N_10
REMARK    6  A    between atoms: N_10  and  S_11
REMARK    7  A    between atoms: S_11  and  C_14
REMARK    8  A    between atoms: C_14  and  C_15
REMARK    9  A    between atoms: C_15  and  O_16
REMARK   10  A    between atoms: C_15  and  C_18
REMARK   11  A    between atoms: O_16  and  C_17
REMARK   12  A    between atoms: C_18  and  C_19
REMARK   13  A    between atoms: C_18  and  C_20
REMARK   14  A    between atoms: C_21  and  O_22
REMARK                            x       y       z     vdW  Elec       q    Type
REMARK                         _______ _______ _______ _____ _____    ______ ____
ROOT
ATOM      1  C   UNL     1       5.898   4.333  16.473  0.00  0.00    +0.000 A 
ATOM      2  C   UNL     1       6.392   4.481  17.779  0.00  0.00    +0.000 A 
ATOM      3  C   UNL     1       5.580   4.173  18.881  0.00  0.00    +0.000 A 
ATOM      4  C   UNL     1       4.281   3.701  18.678  0.00  0.00    +0.000 A 
ATOM      5  C   UNL     1       3.791   3.576  17.375  0.00  0.00    +0.000 A 
ATOM      6  C   UNL     1       4.586   3.885  16.281  0.00  0.00    +0.000 A 
ENDROOT
BRANCH   1   7
ATOM      7  C   UNL     1       6.724   4.528  15.254  0.00  0.00    +0.000 C 
ATOM      8  O   UNL     1       7.508   5.457  15.126  0.00  0.00    +0.000 OA
BRANCH   7   9
ATOM      9  O   UNL     1       6.360   3.652  14.286  0.00  0.00    +0.000 OA
BRANCH   9  11
ATOM     10  C   UNL     1       6.083   3.110  11.989  0.00  0.00    +0.000 C 
ATOM     11  C   UNL     1       6.790   4.029  12.969  0.00  0.00    +0.000 C 
ENDBRANCH   9  11
ENDBRANCH   7   9
ENDBRANCH   1   7
BRANCH   4  12
ATOM     12  N   UNL     1       3.465   3.304  19.788  0.00  0.00    +0.000 N 
ATOM     13  H   UNL     1       4.011   3.016  20.604  0.00  0.00    +0.000 HD
BRANCH  12  14
ATOM     14  S   UNL     1       2.327   4.439  20.373  0.00  0.00    +0.000 S 
ATOM     15  O   UNL     1       1.136   4.139  19.594  0.00  0.00    +0.000 OA
ATOM     16  O   UNL     1       2.319   4.427  21.816  0.00  0.00    +0.000 OA
BRANCH  14  17
ATOM     17  C   UNL     1       3.075   5.956  19.777  0.00  0.00    +0.000 C 
BRANCH  17  18
ATOM     18  C   UNL     1       2.056   6.945  19.202  0.00  0.00    +0.000 C 
BRANCH  18  19
ATOM     19  C   UNL     1       1.824   8.184  20.116  0.00  0.00    +0.000 C 
ATOM     20  C   UNL     1       1.244   9.364  19.324  0.00  0.00    +0.000 C 
ATOM     21  C   UNL     1       0.940   7.905  21.330  0.00  0.00    +0.000 C 
ENDBRANCH  18  19
BRANCH  18  22
ATOM     22  O   UNL     1       2.413   7.385  17.881  0.00  0.00    +0.000 OA
ATOM     23  C   UNL     1       3.775   7.236  17.504  0.00  0.00    +0.000 C 
ENDBRANCH  18  22
ENDBRANCH  17  18
ENDBRANCH  14  17
ENDBRANCH  12  14
ENDBRANCH   4  12
BRANCH   5  24
ATOM     24  O   UNL     1       2.544   3.080  17.119  0.00  0.00    +0.000 OA
ATOM     25  H   UNL     1       2.304   2.538  17.889  0.00  0.00    +0.000 HD
ENDBRANCH   5  24
TORSDOF 10
ENDMDL
MODEL 8
REMARK VINA RESULT:      -6.4      4.210      7.013
REMARK  Name = 
REMARK  14 active torsions:
REMARK  status: ('A' for Active; 'I' for Inactive)
REMARK    1  A    between atoms: C_1  and  C_2
REMARK    2  A    between atoms: C_2  and  O_3
REMARK    3  A    between atoms: O_3  and  C_4
REMARK    4  A    between atoms: C_4  and  C_6
REMARK    5  A    between atoms: C_9  and  N_10
REMARK    6  A    between atoms: N_10  and  S_11
REMARK    7  A    between atoms: S_11  and  C_14
REMARK    8  A    between atoms: C_14  and  C_15
REMARK    9  A    between atoms: C_15  and  O_16
REMARK   10  A    between atoms: C_15  and  C_18
REMARK   11  A    between atoms: O_16  and  C_17
REMARK   12  A    between atoms: C_18  and  C_19
REMARK   13  A    between atoms: C_18  and  C_20
REMARK   14  A    between atoms: C_21  and  O_22
REMARK                            x       y       z     vdW  Elec       q    Type
REMARK                         _______ _______ _______ _____ _____    ______ ____
ROOT
ATOM      1  C   UNL     1       0.233   9.931  18.959  0.00  0.00    +0.000 A 
ATOM      2  C   UNL     1       0.974   9.429  17.877  0.00  0.00    +0.000 A 
ATOM      3  C   UNL     1       1.942   8.435  18.084  0.00  0.00    +0.000 A 
ATOM      4  C   UNL     1       2.160   7.933  19.369  0.00  0.00    +0.000 A 
ATOM      5  C   UNL     1       1.432   8.454  20.443  0.00  0.00    +0.000 A 
ATOM      6  C   UNL     1       0.477   9.441  20.247  0.00  0.00    +0.000 A 
ENDROOT
BRANCH   1   7
ATOM      7  C   UNL     1      -0.885  10.898  18.813  0.00  0.00    +0.000 C 
ATOM      8  O   UNL     1      -1.234  11.650  19.712  0.00  0.00    +0.000 OA
BRANCH   7   9
ATOM      9  O   UNL     1      -1.535  10.702  17.640  0.00  0.00    +0.000 OA
BRANCH   9  11
ATOM     10  C   UNL     1      -3.906  10.745  17.473  0.00  0.00    +0.000 C 
ATOM     11  C   UNL     1      -2.698   9.867  17.752  0.00  0.00    +0.000 C 
ENDBRANCH   9  11
ENDBRANCH   7   9
ENDBRANCH   1   7
BRANCH   4  12
ATOM     12  N   UNL     1       3.087   6.862  19.590  0.00  0.00    +0.000 N 
ATOM     13  H   UNL     1       3.596   6.948  20.474  0.00  0.00    +0.000 HD
BRANCH  12  14
ATOM     14  S   UNL     1       2.467   5.268  19.569  0.00  0.00    +0.000 S 
ATOM     15  O   UNL     1       2.057   5.059  20.948  0.00  0.00    +0.000 OA
ATOM     16  O   UNL     1       1.549   5.112  18.467  0.00  0.00    +0.000 OA
BRANCH  14  17
ATOM     17  C   UNL     1       3.977   4.358  19.241  0.00  0.00    +0.000 C 
BRANCH  17  18
ATOM     18  C   UNL     1       4.122   3.936  17.776  0.00  0.00    +0.000 C 
BRANCH  18  19
ATOM     19  C   UNL     1       5.323   4.620  17.059  0.00  0.00    +0.000 C 
ATOM     20  C   UNL     1       6.569   4.651  17.957  0.00  0.00    +0.000 C 
ATOM     21  C   UNL     1       5.684   3.995  15.713  0.00  0.00    +0.000 C 
ENDBRANCH  18  19
BRANCH  18  22
ATOM     22  O   UNL     1       4.227   2.510  17.630  0.00  0.00    +0.000 OA
ATOM     23  C   UNL     1       3.217   1.727  18.252  0.00  0.00    +0.000 C 
ENDBRANCH  18  22
ENDBRANCH  17  18
ENDBRANCH  14  17
ENDBRANCH  12  14
ENDBRANCH   4  12
BRANCH   5  24
ATOM     24  O   UNL     1       1.575   7.970  21.713  0.00  0.00    +0.000 OA
ATOM     25  H   UNL     1       2.063   8.649  22.208  0.00  0.00    +0.000 HD
ENDBRANCH   5  24
TORSDOF 10
ENDMDL
MODEL 9
REMARK VINA RESULT:      -6.4      2.349      6.994
REMARK  Name = 
REMARK  14 active torsions:
REMARK  status: ('A' for Active; 'I' for Inactive)
REMARK    1  A    between atoms: C_1  and  C_2
REMARK    2  A    between atoms: C_2  and  O_3
REMARK    3  A    between atoms: O_3  and  C_4
REMARK    4  A    between atoms: C_4  and  C_6
REMARK    5  A    between atoms: C_9  and  N_10
REMARK    6  A    between atoms: N_10  and  S_11
REMARK    7  A    between atoms: S_11  and  C_14
REMARK    8  A    between atoms: C_14  and  C_15
REMARK    9  A    between atoms: C_15  and  O_16
REMARK   10  A    between atoms: C_15  and  C_18
REMARK   11  A    between atoms: O_16  and  C_17
REMARK   12  A    between atoms: C_18  and  C_19
REMARK   13  A    between atoms: C_18  and  C_20
REMARK   14  A    between atoms: C_21  and  O_22
REMARK                            x       y       z     vdW  Elec       q    Type
REMARK                         _______ _______ _______ _____ _____    ______ ____
ROOT
ATOM      1  C   UNL     1       3.124   3.516  19.813  0.00  0.00    +0.000 A 
ATOM      2  C   UNL     1       2.466   3.141  18.631  0.00  0.00    +0.000 A 
ATOM      3  C   UNL     1       3.169   3.086  17.418  0.00  0.00    +0.000 A 
ATOM      4  C   UNL     1       4.532   3.389  17.389  0.00  0.00    +0.000 A 
ATOM      5  C   UNL     1       5.174   3.781  18.568  0.00  0.00    +0.000 A 
ATOM      6  C   UNL     1       4.484   3.844  19.769  0.00  0.00    +0.000 A 
ENDROOT
BRANCH   1   7
ATOM      7  C   UNL     1       2.485   3.492  21.154  0.00  0.00    +0.000 C 
ATOM      8  O   UNL     1       2.233   2.454  21.749  0.00  0.00    +0.000 OA
BRANCH   7   9
ATOM      9  O   UNL     1       2.089   4.736  21.517  0.00  0.00    +0.000 OA
BRANCH   9  11
ATOM     10  C   UNL     1       1.885   6.874  20.500  0.00  0.00    +0.000 C 
ATOM     11  C   UNL     1       1.377   5.443  20.490  0.00  0.00    +0.000 C 
ENDBRANCH   9  11
ENDBRANCH   7   9
ENDBRANCH   1   7
BRANCH   4  12
ATOM     12  N   UNL     1       5.286   3.261  16.176  0.00  0.00    +0.000 N 
ATOM     13  H   UNL     1       4.737   2.874  15.403  0.00  0.00    +0.000 HD
BRANCH  12  14
ATOM     14  S   UNL     1       6.025   4.672  15.555  0.00  0.00    +0.000 S 
ATOM     15  O   UNL     1       5.295   5.741  16.220  0.00  0.00    +0.000 OA
ATOM     16  O   UNL     1       7.460   4.556  15.645  0.00  0.00    +0.000 OA
BRANCH  14  17
ATOM     17  C   UNL     1       5.507   4.559  13.842  0.00  0.00    +0.000 C 
BRANCH  17  18
ATOM     18  C   UNL     1       6.473   3.752  12.971  0.00  0.00    +0.000 C 
BRANCH  18  19
ATOM     19  C   UNL     1       5.770   2.621  12.165  0.00  0.00    +0.000 C 
ATOM     20  C   UNL     1       4.527   3.145  11.432  0.00  0.00    +0.000 C 
ATOM     21  C   UNL     1       6.681   1.906  11.169  0.00  0.00    +0.000 C 
ENDBRANCH  18  19
BRANCH  18  22
ATOM     22  O   UNL     1       7.221   4.587  12.072  0.00  0.00    +0.000 OA
ATOM     23  C   UNL     1       8.146   5.492  12.659  0.00  0.00    +0.000 C 
ENDBRANCH  18  22
ENDBRANCH  17  18
ENDBRANCH  14  17
ENDBRANCH  12  14
ENDBRANCH   4  12
BRANCH   5  24
ATOM     24  O   UNL     1       6.513   4.049  18.604  0.00  0.00    +0.000 OA
ATOM     25  H   UNL     1       6.613   4.865  19.121  0.00  0.00    +0.000 HD
ENDBRANCH   5  24
TORSDOF 10
ENDMDL
