MODEL 1
REMARK VINA RESULT:      -7.7      0.000      0.000
REMARK  Name = 
REMARK  8 active torsions:
REMARK  status: ('A' for Active; 'I' for Inactive)
REMARK    1  A    between atoms: C_1  and  C_2
REMARK    2  A    between atoms: C_2  and  O_3
REMARK    3  A    between atoms: O_3  and  C_4
REMARK    4  A    between atoms: C_4  and  C_6
REMARK    5  A    between atoms: C_10  and  O_11
REMARK    6  A    between atoms: C_12  and  C_13
REMARK    7  A    between atoms: C_13  and  C_14
REMARK    8  A    between atoms: C_19  and  C_20
REMARK                            x       y       z     vdW  Elec       q    Type
REMARK                         _______ _______ _______ _____ _____    ______ ____
ROOT
ATOM      1  C   UNL     1       3.692   5.624  19.345  0.00  0.00    +0.000 A 
ATOM      2  O   UNL     1       2.731   5.913  20.308  0.00  0.00    +0.000 OA
ATOM      3  C   UNL     1       1.987   7.050  20.192  0.00  0.00    +0.000 A 
ATOM      4  C   UNL     1       1.044   7.292  21.188  0.00  0.00    +0.000 A 
ATOM      5  C   UNL     1       0.253   8.440  21.130  0.00  0.00    +0.000 A 
ATOM      6  C   UNL     1       0.388   9.357  20.077  0.00  0.00    +0.000 A 
ATOM      7  C   UNL     1       1.338   9.091  19.077  0.00  0.00    +0.000 A 
ATOM      8  C   UNL     1       2.140   7.944  19.144  0.00  0.00    +0.000 A 
ATOM      9  C   UNL     1       3.162   7.662  18.124  0.00  0.00    +0.000 A 
ATOM     10  O   UNL     1       3.329   8.436  17.189  0.00  0.00    +0.000 OA
ATOM     11  C   UNL     1       3.960   6.407  18.277  0.00  0.00    +0.000 A 
ENDROOT
BRANCH  11  12
ATOM     12  C   UNL     1       4.968   6.093  17.247  0.00  0.00    +0.000 A 
ATOM     13  C   UNL     1       6.294   6.533  17.377  0.00  0.00    +0.000 A 
ATOM     14  C   UNL     1       7.240   6.220  16.395  0.00  0.00    +0.000 A 
ATOM     15  C   UNL     1       6.866   5.470  15.281  0.00  0.00    +0.000 A 
ATOM     16  C   UNL     1       5.549   5.017  15.154  0.00  0.00    +0.000 A 
ATOM     17  C   UNL     1       4.600   5.340  16.123  0.00  0.00    +0.000 A 
ATOM     18  O   UNL     1       5.116   4.252  14.103  0.00  0.00    +0.000 OA
ATOM     19  C   UNL     1       6.218   3.670  13.400  0.00  0.00    +0.000 C 
ATOM     20  C   UNL     1       7.292   4.712  13.133  0.00  0.00    +0.000 C 
ATOM     21  O   UNL     1       7.846   5.200  14.360  0.00  0.00    +0.000 OA
ENDBRANCH  11  12
BRANCH   1  22
ATOM     22  C   UNL     1       4.380   4.307  19.526  0.00  0.00    +0.000 C 
ATOM     23  O   UNL     1       5.578   4.111  19.568  0.00  0.00    +0.000 OA
BRANCH  22  24
ATOM     24  O   UNL     1       3.428   3.332  19.517  0.00  0.00    +0.000 OA
BRANCH  24  26
ATOM     25  C   UNL     1       2.462   2.459  17.525  0.00  0.00    +0.000 C 
ATOM     26  C   UNL     1       3.608   2.325  18.514  0.00  0.00    +0.000 C 
ENDBRANCH  24  26
ENDBRANCH  22  24
ENDBRANCH   1  22
BRANCH   5  27
ATOM     27  O   UNL     1      -0.658   8.689  22.116  0.00  0.00    +0.000 OA
ATOM     28  H   UNL     1      -0.188   8.974  22.919  0.00  0.00    +0.000 HD
ENDBRANCH   5  27
BRANCH   6  29
ATOM     29  C   UNL     1      -0.435  10.624  20.007  0.00  0.00    +0.000 C 
ATOM     30  C   UNL     1      -1.298  10.725  18.758  0.00  0.00    +0.000 C 
ENDBRANCH   6  29
TORSDOF 6
ENDMDL
MODEL 2
REMARK VINA RESULT:      -7.5      1.650      2.421
REMARK  Name = 
REMARK  8 active torsions:
REMARK  status: ('A' for Active; 'I' for Inactive)
REMARK    1  A    between atoms: C_1  and  C_2
REMARK    2  A    between atoms: C_2  and  O_3
REMARK    3  A    between atoms: O_3  and  C_4
REMARK    4  A    between atoms: C_4  and  C_6
REMARK    5  A    between atoms: C_10  and  O_11
REMARK    6  A    between atoms: C_12  and  C_13
REMARK    7  A    between atoms: C_13  and  C_14
REMARK    8  A    between atoms: C_19  and  C_20
REMARK                            x       y       z     vdW  Elec       q    Type
REMARK                         _______ _______ _______ _____ _____    ______ ____
ROOT
ATOM      1  C   UNL     1       2.032   6.457  20.149  0.00  0.00    +0.000 A 
ATOM      2  O   UNL     1       1.274   7.256  20.999  0.00  0.00    +0.000 OA
ATOM      3  C   UNL     1       0.951   8.524  20.616  0.00  0.00    +0.000 A 
ATOM      4  C   UNL     1       0.197   9.281  21.509  0.00  0.00    +0.000 A 
ATOM      5  C   UNL     1      -0.164  10.587  21.179  0.00  0.00    +0.000 A 
ATOM      6  C   UNL     1       0.218  11.154  19.954  0.00  0.00    +0.000 A 
ATOM      7  C   UNL     1       0.972  10.372  19.063  0.00  0.00    +0.000 A 
ATOM      8  C   UNL     1       1.343   9.064  19.401  0.00  0.00    +0.000 A 
ATOM      9  C   UNL     1       2.157   8.239  18.495  0.00  0.00    +0.000 A 
ATOM     10  O   UNL     1       2.527   8.689  17.418  0.00  0.00    +0.000 OA
ATOM     11  C   UNL     1       2.493   6.853  18.942  0.00  0.00    +0.000 A 
ENDROOT
BRANCH  11  12
ATOM     12  C   UNL     1       3.283   6.000  18.033  0.00  0.00    +0.000 A 
ATOM     13  C   UNL     1       2.793   4.759  17.601  0.00  0.00    +0.000 A 
ATOM     14  C   UNL     1       3.551   3.966  16.734  0.00  0.00    +0.000 A 
ATOM     15  C   UNL     1       4.800   4.408  16.297  0.00  0.00    +0.000 A 
ATOM     16  C   UNL     1       5.286   5.650  16.714  0.00  0.00    +0.000 A 
ATOM     17  C   UNL     1       4.540   6.436  17.591  0.00  0.00    +0.000 A 
ATOM     18  O   UNL     1       6.490   6.163  16.304  0.00  0.00    +0.000 OA
ATOM     19  C   UNL     1       6.972   5.480  15.143  0.00  0.00    +0.000 C 
ATOM     20  C   UNL     1       6.857   3.974  15.321  0.00  0.00    +0.000 C 
ATOM     21  O   UNL     1       5.487   3.578  15.447  0.00  0.00    +0.000 OA
ENDBRANCH  11  12
BRANCH   1  22
ATOM     22  C   UNL     1       2.245   5.057  20.634  0.00  0.00    +0.000 C 
ATOM     23  O   UNL     1       3.305   4.538  20.919  0.00  0.00    +0.000 OA
BRANCH  22  24
ATOM     24  O   UNL     1       1.045   4.411  20.589  0.00  0.00    +0.000 OA
BRANCH  24  26
ATOM     25  C   UNL     1       0.703   2.501  19.211  0.00  0.00    +0.000 C 
ATOM     26  C   UNL     1       1.133   2.980  20.587  0.00  0.00    +0.000 C 
ENDBRANCH  24  26
ENDBRANCH  22  24
ENDBRANCH   1  22
BRANCH   5  27
ATOM     27  O   UNL     1      -0.886  11.337  22.062  0.00  0.00    +0.000 OA
ATOM     28  H   UNL     1      -1.708  11.630  21.633  0.00  0.00    +0.000 HD
ENDBRANCH   5  27
BRANCH   6  29
ATOM     29  C   UNL     1      -0.133  12.578  19.585  0.00  0.00    +0.000 C 
ATOM     30  C   UNL     1      -0.867  12.703  18.258  0.00  0.00    +0.000 C 
ENDBRANCH   6  29
TORSDOF 6
ENDMDL
MODEL 3
REMARK VINA RESULT:      -7.4      2.693      8.149
REMARK  Name = 
REMARK  8 active torsions:
REMARK  status: ('A' for Active; 'I' for Inactive)
REMARK    1  A    between atoms: C_1  and  C_2
REMARK    2  A    between atoms: C_2  and  O_3
REMARK    3  A    between atoms: O_3  and  C_4
REMARK    4  A    between atoms: C_4  and  C_6
REMARK    5  A    between atoms: C_10  and  O_11
REMARK    6  A    between atoms: C_12  and  C_13
REMARK    7  A    between atoms: C_13  and  C_14
REMARK    8  A    between atoms: C_19  and  C_20
REMARK                            x       y       z     vdW  Elec       q    Type
REMARK                         _______ _______ _______ _____ _____    ______ ____
ROOT
ATOM      1  C   UNL     1       1.302   8.608  20.834  0.00  0.00    +0.000 A 
ATOM      2  O   UNL     1       1.740   7.307  21.055  0.00  0.00    +0.000 OA
ATOM      3  C   UNL     1       2.255   6.588  20.017  0.00  0.00    +0.000 A 
ATOM      4  C   UNL     1       2.672   5.289  20.294  0.00  0.00    +0.000 A 
ATOM      5  C   UNL     1       3.205   4.499  19.275  0.00  0.00    +0.000 A 
ATOM      6  C   UNL     1       3.332   4.994  17.969  0.00  0.00    +0.000 A 
ATOM      7  C   UNL     1       2.914   6.310  17.710  0.00  0.00    +0.000 A 
ATOM      8  C   UNL     1       2.368   7.098  18.733  0.00  0.00    +0.000 A 
ATOM      9  C   UNL     1       1.896   8.468  18.477  0.00  0.00    +0.000 A 
ATOM     10  O   UNL     1       1.974   8.946  17.352  0.00  0.00    +0.000 OA
ATOM     11  C   UNL     1       1.338   9.231  19.635  0.00  0.00    +0.000 A 
ENDROOT
BRANCH  11  12
ATOM     12  C   UNL     1       0.888  10.617  19.404  0.00  0.00    +0.000 A 
ATOM     13  C   UNL     1      -0.371  10.883  18.847  0.00  0.00    +0.000 A 
ATOM     14  C   UNL     1      -0.786  12.202  18.640  0.00  0.00    +0.000 A 
ATOM     15  C   UNL     1       0.053  13.259  18.988  0.00  0.00    +0.000 A 
ATOM     16  C   UNL     1       1.304  13.000  19.556  0.00  0.00    +0.000 A 
ATOM     17  C   UNL     1       1.728  11.686  19.749  0.00  0.00    +0.000 A 
ATOM     18  O   UNL     1       2.171  13.987  19.949  0.00  0.00    +0.000 OA
ATOM     19  C   UNL     1       1.500  15.245  20.067  0.00  0.00    +0.000 C 
ATOM     20  C   UNL     1       0.625  15.502  18.851  0.00  0.00    +0.000 C 
ATOM     21  O   UNL     1      -0.420  14.527  18.758  0.00  0.00    +0.000 OA
ENDBRANCH  11  12
BRANCH   1  22
ATOM     22  C   UNL     1       0.843   9.329  22.063  0.00  0.00    +0.000 C 
ATOM     23  O   UNL     1       1.521   9.635  23.023  0.00  0.00    +0.000 OA
BRANCH  22  24
ATOM     24  O   UNL     1      -0.509   9.482  21.979  0.00  0.00    +0.000 OA
BRANCH  24  26
ATOM     25  C   UNL     1      -1.084  11.749  22.420  0.00  0.00    +0.000 C 
ATOM     26  C   UNL     1      -1.080  10.336  22.978  0.00  0.00    +0.000 C 
ENDBRANCH  24  26
ENDBRANCH  22  24
ENDBRANCH   1  22
BRANCH   5  27
ATOM     27  O   UNL     1       3.596   3.218  19.541  0.00  0.00    +0.000 OA
ATOM     28  H   UNL     1       4.532   3.219  19.805  0.00  0.00    +0.000 HD
ENDBRANCH   5  27
BRANCH   6  29
ATOM     29  C   UNL     1       3.878   4.149  16.840  0.00  0.00    +0.000 C 
ATOM     30  C   UNL     1       5.167   4.688  16.238  0.00  0.00    +0.000 C 
ENDBRANCH   6  29
TORSDOF 6
ENDMDL
MODEL 4
REMARK VINA RESULT:      -7.4      2.258      8.002
REMARK  Name = 
REMARK  8 active torsions:
REMARK  status: ('A' for Active; 'I' for Inactive)
REMARK    1  A    between atoms: C_1  and  C_2
REMARK    2  A    between atoms: C_2  and  O_3
REMARK    3  A    between atoms: O_3  and  C_4
REMARK    4  A    between atoms: C_4  and  C_6
REMARK    5  A    between atoms: C_10  and  O_11
REMARK    6  A    between atoms: C_12  and  C_13
REMARK    7  A    between atoms: C_13  and  C_14
REMARK    8  A    between atoms: C_19  and  C_20
REMARK                            x       y       z     vdW  Elec       q    Type
REMARK                         _______ _______ _______ _____ _____    ______ ____
ROOT
ATOM      1  C   UNL     1       1.304   7.753  20.285  0.00  0.00    +0.000 A 
ATOM      2  O   UNL     1       1.939   6.529  20.463  0.00  0.00    +0.000 OA
ATOM      3  C   UNL     1       2.849   6.106  19.540  0.00  0.00    +0.000 A 
ATOM      4  C   UNL     1       3.450   4.870  19.766  0.00  0.00    +0.000 A 
ATOM      5  C   UNL     1       4.387   4.378  18.857  0.00  0.00    +0.000 A 
ATOM      6  C   UNL     1       4.742   5.113  17.716  0.00  0.00    +0.000 A 
ATOM      7  C   UNL     1       4.132   6.362  17.510  0.00  0.00    +0.000 A 
ATOM      8  C   UNL     1       3.181   6.848  18.418  0.00  0.00    +0.000 A 
ATOM      9  C   UNL     1       2.509   8.139  18.206  0.00  0.00    +0.000 A 
ATOM     10  O   UNL     1       2.773   8.816  17.220  0.00  0.00    +0.000 OA
ATOM     11  C   UNL     1       1.517   8.577  19.235  0.00  0.00    +0.000 A 
ENDROOT
BRANCH  11  12
ATOM     12  C   UNL     1       0.855   9.882  19.055  0.00  0.00    +0.000 A 
ATOM     13  C   UNL     1      -0.400   9.975  18.435  0.00  0.00    +0.000 A 
ATOM     14  C   UNL     1      -1.018  11.220  18.277  0.00  0.00    +0.000 A 
ATOM     15  C   UNL     1      -0.385  12.375  18.736  0.00  0.00    +0.000 A 
ATOM     16  C   UNL     1       0.859  12.286  19.366  0.00  0.00    +0.000 A 
ATOM     17  C   UNL     1       1.486  11.049  19.511  0.00  0.00    +0.000 A 
ATOM     18  O   UNL     1       1.528  13.373  19.868  0.00  0.00    +0.000 OA
ATOM     19  C   UNL     1       0.651  14.495  20.014  0.00  0.00    +0.000 C 
ATOM     20  C   UNL     1      -0.189  14.685  18.761  0.00  0.00    +0.000 C 
ATOM     21  O   UNL     1      -1.050  13.560  18.549  0.00  0.00    +0.000 OA
ENDBRANCH  11  12
BRANCH   1  22
ATOM     22  C   UNL     1       0.396   8.154  21.406  0.00  0.00    +0.000 C 
ATOM     23  O   UNL     1      -0.785   7.893  21.516  0.00  0.00    +0.000 OA
BRANCH  22  24
ATOM     24  O   UNL     1       1.096   8.974  22.239  0.00  0.00    +0.000 OA
BRANCH  24  26
ATOM     25  C   UNL     1      -0.404  10.777  22.642  0.00  0.00    +0.000 C 
ATOM     26  C   UNL     1       0.316   9.595  23.269  0.00  0.00    +0.000 C 
ENDBRANCH  24  26
ENDBRANCH  22  24
ENDBRANCH   1  22
BRANCH   5  27
ATOM     27  O   UNL     1       4.962   3.157  19.067  0.00  0.00    +0.000 OA
ATOM     28  H   UNL     1       4.763   2.578  18.311  0.00  0.00    +0.000 HD
ENDBRANCH   5  27
BRANCH   6  29
ATOM     29  C   UNL     1       5.732   4.589  16.701  0.00  0.00    +0.000 C 
ATOM     30  C   UNL     1       7.170   5.005  16.976  0.00  0.00    +0.000 C 
ENDBRANCH   6  29
TORSDOF 6
ENDMDL
MODEL 5
REMARK VINA RESULT:      -6.9      1.747      2.707
REMARK  Name = 
REMARK  8 active torsions:
REMARK  status: ('A' for Active; 'I' for Inactive)
REMARK    1  A    between atoms: C_1  and  C_2
REMARK    2  A    between atoms: C_2  and  O_3
REMARK    3  A    between atoms: O_3  and  C_4
REMARK    4  A    between atoms: C_4  and  C_6
REMARK    5  A    between atoms: C_10  and  O_11
REMARK    6  A    between atoms: C_12  and  C_13
REMARK    7  A    between atoms: C_13  and  C_14
REMARK    8  A    between atoms: C_19  and  C_20
REMARK                            x       y       z     vdW  Elec       q    Type
REMARK                         _______ _______ _______ _____ _____    ______ ____
ROOT
ATOM      1  C   UNL     1       1.588   6.062  20.415  0.00  0.00    +0.000 A 
ATOM      2  O   UNL     1       0.820   6.790  21.319  0.00  0.00    +0.000 OA
ATOM      3  C   UNL     1       0.677   8.135  21.144  0.00  0.00    +0.000 A 
ATOM      4  C   UNL     1      -0.097   8.814  22.082  0.00  0.00    +0.000 A 
ATOM      5  C   UNL     1      -0.279  10.192  21.963  0.00  0.00    +0.000 A 
ATOM      6  C   UNL     1       0.302  10.909  20.907  0.00  0.00    +0.000 A 
ATOM      7  C   UNL     1       1.072  10.205  19.966  0.00  0.00    +0.000 A 
ATOM      8  C   UNL     1       1.264   8.823  20.094  0.00  0.00    +0.000 A 
ATOM      9  C   UNL     1       2.091   8.071  19.137  0.00  0.00    +0.000 A 
ATOM     10  O   UNL     1       2.630   8.650  18.202  0.00  0.00    +0.000 OA
ATOM     11  C   UNL     1       2.228   6.598  19.353  0.00  0.00    +0.000 A 
ENDROOT
BRANCH  11  12
ATOM     12  C   UNL     1       3.028   5.824  18.386  0.00  0.00    +0.000 A 
ATOM     13  C   UNL     1       2.474   4.734  17.700  0.00  0.00    +0.000 A 
ATOM     14  C   UNL     1       3.244   4.013  16.781  0.00  0.00    +0.000 A 
ATOM     15  C   UNL     1       4.569   4.378  16.545  0.00  0.00    +0.000 A 
ATOM     16  C   UNL     1       5.122   5.472  17.217  0.00  0.00    +0.000 A 
ATOM     17  C   UNL     1       4.362   6.183  18.145  0.00  0.00    +0.000 A 
ATOM     18  O   UNL     1       6.407   5.907  17.016  0.00  0.00    +0.000 OA
ATOM     19  C   UNL     1       6.947   5.374  15.803  0.00  0.00    +0.000 C 
ATOM     20  C   UNL     1       6.671   3.882  15.703  0.00  0.00    +0.000 C 
ATOM     21  O   UNL     1       5.264   3.627  15.631  0.00  0.00    +0.000 OA
ENDBRANCH  11  12
BRANCH   1  22
ATOM     22  C   UNL     1       1.597   4.584  20.655  0.00  0.00    +0.000 C 
ATOM     23  O   UNL     1       0.671   3.815  20.497  0.00  0.00    +0.000 OA
BRANCH  22  24
ATOM     24  O   UNL     1       2.802   4.257  21.203  0.00  0.00    +0.000 OA
BRANCH  24  26
ATOM     25  C   UNL     1       4.066   2.544  20.138  0.00  0.00    +0.000 C 
ATOM     26  C   UNL     1       3.078   2.851  21.251  0.00  0.00    +0.000 C 
ENDBRANCH  24  26
ENDBRANCH  22  24
ENDBRANCH   1  22
BRANCH   5  27
ATOM     27  O   UNL     1      -1.021  10.863  22.893  0.00  0.00    +0.000 OA
ATOM     28  H   UNL     1      -1.022  10.358  23.724  0.00  0.00    +0.000 HD
ENDBRANCH   5  27
BRANCH   6  29
ATOM     29  C   UNL     1       0.144  12.407  20.771  0.00  0.00    +0.000 C 
ATOM     30  C   UNL     1      -0.343  12.851  19.400  0.00  0.00    +0.000 C 
ENDBRANCH   6  29
TORSDOF 6
ENDMDL
MODEL 6
REMARK VINA RESULT:      -6.8      3.512      9.961
REMARK  Name = 
REMARK  8 active torsions:
REMARK  status: ('A' for Active; 'I' for Inactive)
REMARK    1  A    between atoms: C_1  and  C_2
REMARK    2  A    between atoms: C_2  and  O_3
REMARK    3  A    between atoms: O_3  and  C_4
REMARK    4  A    between atoms: C_4  and  C_6
REMARK    5  A    between atoms: C_10  and  O_11
REMARK    6  A    between atoms: C_12  and  C_13
REMARK    7  A    between atoms: C_13  and  C_14
REMARK    8  A    between atoms: C_19  and  C_20
REMARK                            x       y       z     vdW  Elec       q    Type
REMARK                         _______ _______ _______ _____ _____    ______ ____
ROOT
ATOM      1  C   UNL     1       0.347  11.215  19.243  0.00  0.00    +0.000 A 
ATOM      2  O   UNL     1       0.976  10.336  18.367  0.00  0.00    +0.000 OA
ATOM      3  C   UNL     1       1.445   9.144  18.837  0.00  0.00    +0.000 A 
ATOM      4  C   UNL     1       2.071   8.306  17.917  0.00  0.00    +0.000 A 
ATOM      5  C   UNL     1       2.577   7.074  18.334  0.00  0.00    +0.000 A 
ATOM      6  C   UNL     1       2.462   6.661  19.669  0.00  0.00    +0.000 A 
ATOM      7  C   UNL     1       1.820   7.516  20.580  0.00  0.00    +0.000 A 
ATOM      8  C   UNL     1       1.323   8.758  20.162  0.00  0.00    +0.000 A 
ATOM      9  C   UNL     1       0.674   9.681  21.106  0.00  0.00    +0.000 A 
ATOM     10  O   UNL     1       0.557   9.374  22.286  0.00  0.00    +0.000 OA
ATOM     11  C   UNL     1       0.168  10.979  20.562  0.00  0.00    +0.000 A 
ENDROOT
BRANCH  11  12
ATOM     12  C   UNL     1      -0.512  11.904  21.487  0.00  0.00    +0.000 A 
ATOM     13  C   UNL     1       0.077  13.124  21.850  0.00  0.00    +0.000 A 
ATOM     14  C   UNL     1      -0.584  13.994  22.723  0.00  0.00    +0.000 A 
ATOM     15  C   UNL     1      -1.833  13.649  23.237  0.00  0.00    +0.000 A 
ATOM     16  C   UNL     1      -2.431  12.440  22.868  0.00  0.00    +0.000 A 
ATOM     17  C   UNL     1      -1.768  11.564  22.010  0.00  0.00    +0.000 A 
ATOM     18  O   UNL     1      -3.668  12.047  23.309  0.00  0.00    +0.000 OA
ATOM     19  C   UNL     1      -4.399  13.154  23.846  0.00  0.00    +0.000 C 
ATOM     20  C   UNL     1      -3.527  13.966  24.789  0.00  0.00    +0.000 C 
ATOM     21  O   UNL     1      -2.423  14.551  24.087  0.00  0.00    +0.000 OA
ENDBRANCH  11  12
BRANCH   1  22
ATOM     22  C   UNL     1      -0.207  12.447  18.599  0.00  0.00    +0.000 C 
ATOM     23  O   UNL     1       0.409  13.445  18.286  0.00  0.00    +0.000 OA
BRANCH  22  24
ATOM     24  O   UNL     1      -1.562  12.309  18.528  0.00  0.00    +0.000 OA
BRANCH  24  26
ATOM     25  C   UNL     1      -2.726  10.365  17.801  0.00  0.00    +0.000 C 
ATOM     26  C   UNL     1      -2.037  11.642  17.352  0.00  0.00    +0.000 C 
ENDBRANCH  24  26
ENDBRANCH  22  24
ENDBRANCH   1  22
BRANCH   5  27
ATOM     27  O   UNL     1       3.208   6.260  17.437  0.00  0.00    +0.000 OA
ATOM     28  H   UNL     1       3.771   5.631  17.920  0.00  0.00    +0.000 HD
ENDBRANCH   5  27
BRANCH   6  29
ATOM     29  C   UNL     1       3.028   5.344  20.152  0.00  0.00    +0.000 C 
ATOM     30  C   UNL     1       2.083   4.566  21.056  0.00  0.00    +0.000 C 
ENDBRANCH   6  29
TORSDOF 6
ENDMDL
MODEL 7
REMARK VINA RESULT:      -6.8      1.202      1.422
REMARK  Name = 
REMARK  8 active torsions:
REMARK  status: ('A' for Active; 'I' for Inactive)
REMARK    1  A    between atoms: C_1  and  C_2
REMARK    2  A    between atoms: C_2  and  O_3
REMARK    3  A    between atoms: O_3  and  C_4
REMARK    4  A    between atoms: C_4  and  C_6
REMARK    5  A    between atoms: C_10  and  O_11
REMARK    6  A    between atoms: C_12  and  C_13
REMARK    7  A    between atoms: C_13  and  C_14
REMARK    8  A    between atoms: C_19  and  C_20
REMARK                            x       y       z     vdW  Elec       q    Type
REMARK                         _______ _______ _______ _____ _____    ______ ____
ROOT
ATOM      1  C   UNL     1       3.837   4.884  18.505  0.00  0.00    +0.000 A 
ATOM      2  O   UNL     1       2.962   5.223  19.532  0.00  0.00    +0.000 OA
ATOM      3  C   UNL     1       2.420   6.474  19.564  0.00  0.00    +0.000 A 
ATOM      4  C   UNL     1       1.556   6.761  20.618  0.00  0.00    +0.000 A 
ATOM      5  C   UNL     1       0.971   8.024  20.711  0.00  0.00    +0.000 A 
ATOM      6  C   UNL     1       1.235   9.014  19.753  0.00  0.00    +0.000 A 
ATOM      7  C   UNL     1       2.103   8.704  18.693  0.00  0.00    +0.000 A 
ATOM      8  C   UNL     1       2.699   7.438  18.608  0.00  0.00    +0.000 A 
ATOM      9  C   UNL     1       3.633   7.102  17.523  0.00  0.00    +0.000 A 
ATOM     10  O   UNL     1       3.908   7.933  16.667  0.00  0.00    +0.000 OA
ATOM     11  C   UNL     1       4.210   5.722  17.513  0.00  0.00    +0.000 A 
ENDROOT
BRANCH  11  12
ATOM     12  C   UNL     1       5.125   5.358  16.416  0.00  0.00    +0.000 A 
ATOM     13  C   UNL     1       6.508   5.567  16.529  0.00  0.00    +0.000 A 
ATOM     14  C   UNL     1       7.363   5.210  15.482  0.00  0.00    +0.000 A 
ATOM     15  C   UNL     1       6.843   4.643  14.320  0.00  0.00    +0.000 A 
ATOM     16  C   UNL     1       5.468   4.419  14.208  0.00  0.00    +0.000 A 
ATOM     17  C   UNL     1       4.610   4.789  15.243  0.00  0.00    +0.000 A 
ATOM     18  O   UNL     1       4.887   3.840  13.108  0.00  0.00    +0.000 OA
ATOM     19  C   UNL     1       5.861   3.165  12.306  0.00  0.00    +0.000 C 
ATOM     20  C   UNL     1       7.082   4.046  12.093  0.00  0.00    +0.000 C 
ATOM     21  O   UNL     1       7.741   4.316  13.335  0.00  0.00    +0.000 OA
ENDBRANCH  11  12
BRANCH   1  22
ATOM     22  C   UNL     1       4.295   3.459  18.522  0.00  0.00    +0.000 C 
ATOM     23  O   UNL     1       4.053   2.606  17.693  0.00  0.00    +0.000 OA
BRANCH  22  24
ATOM     24  O   UNL     1       4.941   3.241  19.703  0.00  0.00    +0.000 OA
BRANCH  24  26
ATOM     25  C   UNL     1       3.254   2.375  21.141  0.00  0.00    +0.000 C 
ATOM     26  C   UNL     1       4.539   2.053  20.397  0.00  0.00    +0.000 C 
ENDBRANCH  24  26
ENDBRANCH  22  24
ENDBRANCH   1  22
BRANCH   5  27
ATOM     27  O   UNL     1       0.139   8.313  21.754  0.00  0.00    +0.000 OA
ATOM     28  H   UNL     1       0.310   7.688  22.480  0.00  0.00    +0.000 HD
ENDBRANCH   5  27
BRANCH   6  29
ATOM     29  C   UNL     1       0.638  10.401  19.848  0.00  0.00    +0.000 C 
ATOM     30  C   UNL     1      -0.603  10.592  18.989  0.00  0.00    +0.000 C 
ENDBRANCH   6  29
TORSDOF 6
ENDMDL
MODEL 8
REMARK VINA RESULT:      -6.7      3.735     10.338
REMARK  Name = 
REMARK  8 active torsions:
REMARK  status: ('A' for Active; 'I' for Inactive)
REMARK    1  A    between atoms: C_1  and  C_2
REMARK    2  A    between atoms: C_2  and  O_3
REMARK    3  A    between atoms: O_3  and  C_4
REMARK    4  A    between atoms: C_4  and  C_6
REMARK    5  A    between atoms: C_10  and  O_11
REMARK    6  A    between atoms: C_12  and  C_13
REMARK    7  A    between atoms: C_13  and  C_14
REMARK    8  A    between atoms: C_19  and  C_20
REMARK                            x       y       z     vdW  Elec       q    Type
REMARK                         _______ _______ _______ _____ _____    ______ ____
ROOT
ATOM      1  C   UNL     1      -0.098  11.522  19.415  0.00  0.00    +0.000 A 
ATOM      2  O   UNL     1       0.644  10.704  18.569  0.00  0.00    +0.000 OA
ATOM      3  C   UNL     1       1.131   9.520  19.040  0.00  0.00    +0.000 A 
ATOM      4  C   UNL     1       1.871   8.744  18.152  0.00  0.00    +0.000 A 
ATOM      5  C   UNL     1       2.402   7.524  18.572  0.00  0.00    +0.000 A 
ATOM      6  C   UNL     1       2.198   7.060  19.880  0.00  0.00    +0.000 A 
ATOM      7  C   UNL     1       1.441   7.853  20.759  0.00  0.00    +0.000 A 
ATOM      8  C   UNL     1       0.919   9.084  20.338  0.00  0.00    +0.000 A 
ATOM      9  C   UNL     1       0.150   9.943  21.251  0.00  0.00    +0.000 A 
ATOM     10  O   UNL     1      -0.048   9.591  22.408  0.00  0.00    +0.000 OA
ATOM     11  C   UNL     1      -0.373  11.233  20.706  0.00  0.00    +0.000 A 
ENDROOT
BRANCH  11  12
ATOM     12  C   UNL     1      -1.173  12.093  21.598  0.00  0.00    +0.000 A 
ATOM     13  C   UNL     1      -2.566  11.954  21.677  0.00  0.00    +0.000 A 
ATOM     14  C   UNL     1      -3.309  12.773  22.533  0.00  0.00    +0.000 A 
ATOM     15  C   UNL     1      -2.665  13.733  23.312  0.00  0.00    +0.000 A 
ATOM     16  C   UNL     1      -1.275  13.867  23.247  0.00  0.00    +0.000 A 
ATOM     17  C   UNL     1      -0.533  13.063  22.383  0.00  0.00    +0.000 A 
ATOM     18  O   UNL     1      -0.570  14.768  24.003  0.00  0.00    +0.000 OA
ATOM     19  C   UNL     1      -1.355  15.247  25.099  0.00  0.00    +0.000 C 
ATOM     20  C   UNL     1      -2.747  15.639  24.629  0.00  0.00    +0.000 C 
ATOM     21  O   UNL     1      -3.457  14.500  24.129  0.00  0.00    +0.000 OA
ENDBRANCH  11  12
BRANCH   1  22
ATOM     22  C   UNL     1      -0.658  12.748  18.763  0.00  0.00    +0.000 C 
ATOM     23  O   UNL     1      -0.540  13.894  19.145  0.00  0.00    +0.000 OA
BRANCH  22  24
ATOM     24  O   UNL     1      -1.437  12.347  17.718  0.00  0.00    +0.000 OA
BRANCH  24  26
ATOM     25  C   UNL     1      -2.733  10.389  17.334  0.00  0.00    +0.000 C 
ATOM     26  C   UNL     1      -2.661  11.703  18.093  0.00  0.00    +0.000 C 
ENDBRANCH  24  26
ENDBRANCH  22  24
ENDBRANCH   1  22
BRANCH   5  27
ATOM     27  O   UNL     1       3.145   6.771  17.708  0.00  0.00    +0.000 OA
ATOM     28  H   UNL     1       3.912   6.408  18.182  0.00  0.00    +0.000 HD
ENDBRANCH   5  27
BRANCH   6  29
ATOM     29  C   UNL     1       2.787   5.756  20.370  0.00  0.00    +0.000 C 
ATOM     30  C   UNL     1       1.745   4.694  20.685  0.00  0.00    +0.000 C 
ENDBRANCH   6  29
TORSDOF 6
ENDMDL
MODEL 9
REMARK VINA RESULT:      -6.7      3.798     10.361
REMARK  Name = 
REMARK  8 active torsions:
REMARK  status: ('A' for Active; 'I' for Inactive)
REMARK    1  A    between atoms: C_1  and  C_2
REMARK    2  A    between atoms: C_2  and  O_3
REMARK    3  A    between atoms: O_3  and  C_4
REMARK    4  A    between atoms: C_4  and  C_6
REMARK    5  A    between atoms: C_10  and  O_11
REMARK    6  A    between atoms: C_12  and  C_13
REMARK    7  A    between atoms: C_13  and  C_14
REMARK    8  A    between atoms: C_19  and  C_20
REMARK                            x       y       z     vdW  Elec       q    Type
REMARK                         _______ _______ _______ _____ _____    ______ ____
ROOT
ATOM      1  C   UNL     1       0.397  11.445  19.283  0.00  0.00    +0.000 A 
ATOM      2  O   UNL     1       1.161  10.529  18.567  0.00  0.00    +0.000 OA
ATOM      3  C   UNL     1       1.409   9.300  19.104  0.00  0.00    +0.000 A 
ATOM      4  C   UNL     1       2.184   8.425  18.346  0.00  0.00    +0.000 A 
ATOM      5  C   UNL     1       2.478   7.154  18.840  0.00  0.00    +0.000 A 
ATOM      6  C   UNL     1       2.000   6.736  20.090  0.00  0.00    +0.000 A 
ATOM      7  C   UNL     1       1.212   7.629  20.836  0.00  0.00    +0.000 A 
ATOM      8  C   UNL     1       0.928   8.910  20.344  0.00  0.00    +0.000 A 
ATOM      9  C   UNL     1       0.131   9.871  21.121  0.00  0.00    +0.000 A 
ATOM     10  O   UNL     1      -0.302   9.562  22.225  0.00  0.00    +0.000 OA
ATOM     11  C   UNL     1      -0.126  11.210  20.507  0.00  0.00    +0.000 A 
ENDROOT
BRANCH  11  12
ATOM     12  C   UNL     1      -0.949  12.175  21.259  0.00  0.00    +0.000 A 
ATOM     13  C   UNL     1      -2.338  12.236  21.076  0.00  0.00    +0.000 A 
ATOM     14  C   UNL     1      -3.106  13.153  21.801  0.00  0.00    +0.000 A 
ATOM     15  C   UNL     1      -2.490  14.011  22.711  0.00  0.00    +0.000 A 
ATOM     16  C   UNL     1      -1.107  13.945  22.908  0.00  0.00    +0.000 A 
ATOM     17  C   UNL     1      -0.337  13.043  22.174  0.00  0.00    +0.000 A 
ATOM     18  O   UNL     1      -0.436  14.736  23.805  0.00  0.00    +0.000 OA
ATOM     19  C   UNL     1      -1.337  15.322  24.749  0.00  0.00    +0.000 C 
ATOM     20  C   UNL     1      -2.548  15.909  24.041  0.00  0.00    +0.000 C 
ATOM     21  O   UNL     1      -3.305  14.883  23.388  0.00  0.00    +0.000 OA
ENDBRANCH  11  12
BRANCH   1  22
ATOM     22  C   UNL     1       0.114  12.723  18.557  0.00  0.00    +0.000 C 
ATOM     23  O   UNL     1      -0.880  12.989  17.911  0.00  0.00    +0.000 OA
BRANCH  22  24
ATOM     24  O   UNL     1       1.225  13.507  18.641  0.00  0.00    +0.000 OA
BRANCH  24  26
ATOM     25  C   UNL     1       1.995  15.093  20.240  0.00  0.00    +0.000 C 
ATOM     26  C   UNL     1       0.990  14.833  19.131  0.00  0.00    +0.000 C 
ENDBRANCH  24  26
ENDBRANCH  22  24
ENDBRANCH   1  22
BRANCH   5  27
ATOM     27  O   UNL     1       3.254   6.302  18.107  0.00  0.00    +0.000 OA
ATOM     28  H   UNL     1       2.773   6.047  17.301  0.00  0.00    +0.000 HD
ENDBRANCH   5  27
BRANCH   6  29
ATOM     29  C   UNL     1       2.328   5.375  20.661  0.00  0.00    +0.000 C 
ATOM     30  C   UNL     1       1.206   4.359  20.509  0.00  0.00    +0.000 C 
ENDBRANCH   6  29
TORSDOF 6
ENDMDL
