MODEL 1
REMARK VINA RESULT:      -8.8      0.000      0.000
REMARK  Name = 
REMARK  6 active torsions:
REMARK  status: ('A' for Active; 'I' for Inactive)
REMARK    1  A    between atoms: N_1  and  C_2
REMARK    2  A    between atoms: C_2  and  C_3
REMARK    3  A    between atoms: C_2  and  C_10
REMARK    4  A    between atoms: C_3  and  C_4
REMARK    5  A    between atoms: C_10  and  O_12
REMARK    6  A    between atoms: O_12  and  C_13
REMARK                            x       y       z     vdW  Elec       q    Type
REMARK                         _______ _______ _______ _____ _____    ______ ____
ROOT
ATOM      1  C   UNL     1       4.672   3.408  18.978  0.00  0.00    +0.000 A 
ATOM      2  C   UNL     1       5.358   4.548  19.397  0.00  0.00    +0.000 A 
ATOM      3  C   UNL     1       5.996   5.345  18.443  0.00  0.00    +0.000 A 
ATOM      4  C   UNL     1       5.914   4.991  17.091  0.00  0.00    +0.000 A 
ATOM      5  C   UNL     1       6.754   5.648  16.079  0.00  0.00    +0.000 A 
ATOM      6  O   UNL     1       7.434   6.630  16.341  0.00  0.00    +0.000 OA
ATOM      7  C   UNL     1       6.763   5.026  14.745  0.00  0.00    +0.000 A 
ATOM      8  C   UNL     1       7.759   5.319  13.815  0.00  0.00    +0.000 A 
ATOM      9  C   UNL     1       7.691   4.756  12.539  0.00  0.00    +0.000 A 
ATOM     10  C   UNL     1       6.606   3.950  12.186  0.00  0.00    +0.000 A 
ATOM     11  C   UNL     1       5.634   3.629  13.134  0.00  0.00    +0.000 A 
ATOM     12  C   UNL     1       5.750   4.122  14.432  0.00  0.00    +0.000 A 
ATOM     13  O   UNL     1       4.864   3.634  15.359  0.00  0.00    +0.000 OA
ATOM     14  C   UNL     1       5.111   3.930  16.676  0.00  0.00    +0.000 A 
ATOM     15  C   UNL     1       4.499   3.121  17.623  0.00  0.00    +0.000 A 
ENDROOT
BRANCH   1  16
ATOM     16  O   UNL     1       4.043   2.610  19.936  0.00  0.00    +0.000 OA
BRANCH  16  17
ATOM     17  C   UNL     1       2.758   2.153  19.593  0.00  0.00    +0.000 C 
ATOM     18  O   UNL     1       2.453   1.576  18.561  0.00  0.00    +0.000 OA
BRANCH  17  19
ATOM     19  C   UNL     1       1.808   2.522  20.747  0.00  0.00    +0.000 C 
BRANCH  19  20
ATOM     20  N   UNL     1       2.577   2.950  21.940  0.00  0.00    +0.000 NA
ATOM     21  H   UNL     1       3.372   3.518  21.643  0.00  0.00    +0.000 HD
ATOM     22  H   UNL     1       2.964   2.130  22.407  0.00  0.00    +0.000 HD
ENDBRANCH  19  20
BRANCH  19  23
ATOM     23  C   UNL     1       0.808   3.582  20.258  0.00  0.00    +0.000 C 
BRANCH  23  24
ATOM     24  C   UNL     1       1.451   4.829  19.694  0.00  0.00    +0.000 A 
ATOM     25  C   UNL     1       1.662   4.945  18.312  0.00  0.00    +0.000 A 
ATOM     26  C   UNL     1       2.251   6.093  17.782  0.00  0.00    +0.000 A 
ATOM     27  C   UNL     1       2.635   7.135  18.623  0.00  0.00    +0.000 A 
ATOM     28  C   UNL     1       2.424   7.035  19.995  0.00  0.00    +0.000 A 
ATOM     29  C   UNL     1       1.830   5.890  20.529  0.00  0.00    +0.000 A 
ENDBRANCH  23  24
ENDBRANCH  19  23
ENDBRANCH  17  19
ENDBRANCH  16  17
ENDBRANCH   1  16
TORSDOF 6
ENDMDL
MODEL 2
REMARK VINA RESULT:      -8.6      1.040      1.628
REMARK  Name = 
REMARK  6 active torsions:
REMARK  status: ('A' for Active; 'I' for Inactive)
REMARK    1  A    between atoms: N_1  and  C_2
REMARK    2  A    between atoms: C_2  and  C_3
REMARK    3  A    between atoms: C_2  and  C_10
REMARK    4  A    between atoms: C_3  and  C_4
REMARK    5  A    between atoms: C_10  and  O_12
REMARK    6  A    between atoms: O_12  and  C_13
REMARK                            x       y       z     vdW  Elec       q    Type
REMARK                         _______ _______ _______ _____ _____    ______ ____
ROOT
ATOM      1  C   UNL     1       4.241   3.104  18.833  0.00  0.00    +0.000 A 
ATOM      2  C   UNL     1       5.025   4.104  19.409  0.00  0.00    +0.000 A 
ATOM      3  C   UNL     1       5.794   4.924  18.579  0.00  0.00    +0.000 A 
ATOM      4  C   UNL     1       5.743   4.735  17.193  0.00  0.00    +0.000 A 
ATOM      5  C   UNL     1       6.701   5.400  16.297  0.00  0.00    +0.000 A 
ATOM      6  O   UNL     1       7.470   6.262  16.697  0.00  0.00    +0.000 OA
ATOM      7  C   UNL     1       6.710   4.933  14.901  0.00  0.00    +0.000 A 
ATOM      8  C   UNL     1       7.779   5.212  14.050  0.00  0.00    +0.000 A 
ATOM      9  C   UNL     1       7.715   4.806  12.716  0.00  0.00    +0.000 A 
ATOM     10  C   UNL     1       6.568   4.174  12.230  0.00  0.00    +0.000 A 
ATOM     11  C   UNL     1       5.520   3.863  13.096  0.00  0.00    +0.000 A 
ATOM     12  C   UNL     1       5.622   4.191  14.447  0.00  0.00    +0.000 A 
ATOM     13  O   UNL     1       4.642   3.708  15.275  0.00  0.00    +0.000 OA
ATOM     14  C   UNL     1       4.852   3.825  16.627  0.00  0.00    +0.000 A 
ATOM     15  C   UNL     1       4.107   2.992  17.449  0.00  0.00    +0.000 A 
ENDROOT
BRANCH   1  16
ATOM     16  O   UNL     1       3.480   2.281  19.668  0.00  0.00    +0.000 OA
BRANCH  16  17
ATOM     17  C   UNL     1       2.812   2.938  20.716  0.00  0.00    +0.000 C 
ATOM     18  O   UNL     1       2.980   2.744  21.909  0.00  0.00    +0.000 OA
BRANCH  17  19
ATOM     19  C   UNL     1       1.824   3.937  20.085  0.00  0.00    +0.000 C 
BRANCH  19  20
ATOM     20  N   UNL     1       0.457   3.367  20.046  0.00  0.00    +0.000 NA
ATOM     21  H   UNL     1      -0.099   3.770  20.803  0.00  0.00    +0.000 HD
ATOM     22  H   UNL     1       0.503   2.363  20.222  0.00  0.00    +0.000 HD
ENDBRANCH  19  20
BRANCH  19  23
ATOM     23  C   UNL     1       1.902   5.272  20.844  0.00  0.00    +0.000 C 
BRANCH  23  24
ATOM     24  C   UNL     1       1.955   6.492  19.952  0.00  0.00    +0.000 A 
ATOM     25  C   UNL     1       1.532   7.737  20.441  0.00  0.00    +0.000 A 
ATOM     26  C   UNL     1       1.581   8.869  19.626  0.00  0.00    +0.000 A 
ATOM     27  C   UNL     1       2.053   8.771  18.320  0.00  0.00    +0.000 A 
ATOM     28  C   UNL     1       2.483   7.542  17.826  0.00  0.00    +0.000 A 
ATOM     29  C   UNL     1       2.440   6.408  18.639  0.00  0.00    +0.000 A 
ENDBRANCH  23  24
ENDBRANCH  19  23
ENDBRANCH  17  19
ENDBRANCH  16  17
ENDBRANCH   1  16
TORSDOF 6
ENDMDL
MODEL 3
REMARK VINA RESULT:      -8.6      2.121      3.444
REMARK  Name = 
REMARK  6 active torsions:
REMARK  status: ('A' for Active; 'I' for Inactive)
REMARK    1  A    between atoms: N_1  and  C_2
REMARK    2  A    between atoms: C_2  and  C_3
REMARK    3  A    between atoms: C_2  and  C_10
REMARK    4  A    between atoms: C_3  and  C_4
REMARK    5  A    between atoms: C_10  and  O_12
REMARK    6  A    between atoms: O_12  and  C_13
REMARK                            x       y       z     vdW  Elec       q    Type
REMARK                         _______ _______ _______ _____ _____    ______ ____
ROOT
ATOM      1  C   UNL     1       3.704   2.730  18.975  0.00  0.00    +0.000 A 
ATOM      2  C   UNL     1       3.336   2.827  17.632  0.00  0.00    +0.000 A 
ATOM      3  C   UNL     1       4.039   3.699  16.798  0.00  0.00    +0.000 A 
ATOM      4  C   UNL     1       5.107   4.437  17.322  0.00  0.00    +0.000 A 
ATOM      5  C   UNL     1       5.722   5.534  16.562  0.00  0.00    +0.000 A 
ATOM      6  O   UNL     1       5.445   5.744  15.389  0.00  0.00    +0.000 OA
ATOM      7  C   UNL     1       6.656   6.393  17.308  0.00  0.00    +0.000 A 
ATOM      8  C   UNL     1       7.028   7.648  16.828  0.00  0.00    +0.000 A 
ATOM      9  C   UNL     1       7.968   8.399  17.536  0.00  0.00    +0.000 A 
ATOM     10  C   UNL     1       8.566   7.873  18.684  0.00  0.00    +0.000 A 
ATOM     11  C   UNL     1       8.159   6.634  19.180  0.00  0.00    +0.000 A 
ATOM     12  C   UNL     1       7.158   5.923  18.520  0.00  0.00    +0.000 A 
ATOM     13  O   UNL     1       6.682   4.801  19.147  0.00  0.00    +0.000 OA
ATOM     14  C   UNL     1       5.548   4.227  18.628  0.00  0.00    +0.000 A 
ATOM     15  C   UNL     1       4.836   3.382  19.466  0.00  0.00    +0.000 A 
ENDROOT
BRANCH   1  16
ATOM     16  O   UNL     1       2.992   1.864  19.807  0.00  0.00    +0.000 OA
BRANCH  16  17
ATOM     17  C   UNL     1       2.225   2.484  20.809  0.00  0.00    +0.000 C 
ATOM     18  O   UNL     1       2.115   2.110  21.965  0.00  0.00    +0.000 OA
BRANCH  17  19
ATOM     19  C   UNL     1       1.543   3.713  20.179  0.00  0.00    +0.000 C 
BRANCH  19  20
ATOM     20  N   UNL     1       0.087   3.483  20.027  0.00  0.00    +0.000 NA
ATOM     21  H   UNL     1      -0.110   3.182  19.071  0.00  0.00    +0.000 HD
ATOM     22  H   UNL     1      -0.412   4.362  20.163  0.00  0.00    +0.000 HD
ENDBRANCH  19  20
BRANCH  19  23
ATOM     23  C   UNL     1       1.875   4.960  21.017  0.00  0.00    +0.000 C 
BRANCH  23  24
ATOM     24  C   UNL     1       1.900   6.249  20.227  0.00  0.00    +0.000 A 
ATOM     25  C   UNL     1       1.388   7.427  20.793  0.00  0.00    +0.000 A 
ATOM     26  C   UNL     1       1.412   8.623  20.074  0.00  0.00    +0.000 A 
ATOM     27  C   UNL     1       1.944   8.656  18.788  0.00  0.00    +0.000 A 
ATOM     28  C   UNL     1       2.461   7.495  18.219  0.00  0.00    +0.000 A 
ATOM     29  C   UNL     1       2.445   6.298  18.937  0.00  0.00    +0.000 A 
ENDBRANCH  23  24
ENDBRANCH  19  23
ENDBRANCH  17  19
ENDBRANCH  16  17
ENDBRANCH   1  16
TORSDOF 6
ENDMDL
MODEL 4
REMARK VINA RESULT:      -8.6      3.439      7.560
REMARK  Name = 
REMARK  6 active torsions:
REMARK  status: ('A' for Active; 'I' for Inactive)
REMARK    1  A    between atoms: N_1  and  C_2
REMARK    2  A    between atoms: C_2  and  C_3
REMARK    3  A    between atoms: C_2  and  C_10
REMARK    4  A    between atoms: C_3  and  C_4
REMARK    5  A    between atoms: C_10  and  O_12
REMARK    6  A    between atoms: O_12  and  C_13
REMARK                            x       y       z     vdW  Elec       q    Type
REMARK                         _______ _______ _______ _____ _____    ______ ____
ROOT
ATOM      1  C   UNL     1       2.256   5.757  19.656  0.00  0.00    +0.000 A 
ATOM      2  C   UNL     1       2.583   6.469  18.501  0.00  0.00    +0.000 A 
ATOM      3  C   UNL     1       2.267   7.828  18.430  0.00  0.00    +0.000 A 
ATOM      4  C   UNL     1       1.651   8.445  19.524  0.00  0.00    +0.000 A 
ATOM      5  C   UNL     1       1.085   9.798  19.416  0.00  0.00    +0.000 A 
ATOM      6  O   UNL     1       1.268  10.500  18.432  0.00  0.00    +0.000 OA
ATOM      7  C   UNL     1       0.248  10.239  20.544  0.00  0.00    +0.000 A 
ATOM      8  C   UNL     1      -0.620  11.324  20.422  0.00  0.00    +0.000 A 
ATOM      9  C   UNL     1      -1.345  11.748  21.537  0.00  0.00    +0.000 A 
ATOM     10  C   UNL     1      -1.161  11.122  22.772  0.00  0.00    +0.000 A 
ATOM     11  C   UNL     1      -0.322  10.012  22.877  0.00  0.00    +0.000 A 
ATOM     12  C   UNL     1       0.335   9.537  21.744  0.00  0.00    +0.000 A 
ATOM     13  O   UNL     1       1.005   8.348  21.873  0.00  0.00    +0.000 OA
ATOM     14  C   UNL     1       1.456   7.755  20.719  0.00  0.00    +0.000 A 
ATOM     15  C   UNL     1       1.743   6.400  20.784  0.00  0.00    +0.000 A 
ENDROOT
BRANCH   1  16
ATOM     16  O   UNL     1       2.565   4.397  19.719  0.00  0.00    +0.000 OA
BRANCH  16  17
ATOM     17  C   UNL     1       2.354   3.674  18.531  0.00  0.00    +0.000 C 
ATOM     18  O   UNL     1       1.319   3.640  17.885  0.00  0.00    +0.000 OA
BRANCH  17  19
ATOM     19  C   UNL     1       3.661   2.929  18.202  0.00  0.00    +0.000 C 
BRANCH  19  20
ATOM     20  N   UNL     1       3.395   1.492  17.955  0.00  0.00    +0.000 NA
ATOM     21  H   UNL     1       3.095   1.366  16.986  0.00  0.00    +0.000 HD
ATOM     22  H   UNL     1       2.619   1.185  18.541  0.00  0.00    +0.000 HD
ENDBRANCH  19  20
BRANCH  19  23
ATOM     23  C   UNL     1       4.357   3.627  17.022  0.00  0.00    +0.000 C 
BRANCH  23  24
ATOM     24  C   UNL     1       5.455   4.584  17.427  0.00  0.00    +0.000 A 
ATOM     25  C   UNL     1       5.887   4.630  18.762  0.00  0.00    +0.000 A 
ATOM     26  C   UNL     1       6.903   5.506  19.144  0.00  0.00    +0.000 A 
ATOM     27  C   UNL     1       7.497   6.343  18.203  0.00  0.00    +0.000 A 
ATOM     28  C   UNL     1       7.081   6.302  16.875  0.00  0.00    +0.000 A 
ATOM     29  C   UNL     1       6.069   5.423  16.486  0.00  0.00    +0.000 A 
ENDBRANCH  23  24
ENDBRANCH  19  23
ENDBRANCH  17  19
ENDBRANCH  16  17
ENDBRANCH   1  16
TORSDOF 6
ENDMDL
MODEL 5
REMARK VINA RESULT:      -8.4      3.360      7.482
REMARK  Name = 
REMARK  6 active torsions:
REMARK  status: ('A' for Active; 'I' for Inactive)
REMARK    1  A    between atoms: N_1  and  C_2
REMARK    2  A    between atoms: C_2  and  C_3
REMARK    3  A    between atoms: C_2  and  C_10
REMARK    4  A    between atoms: C_3  and  C_4
REMARK    5  A    between atoms: C_10  and  O_12
REMARK    6  A    between atoms: O_12  and  C_13
REMARK                            x       y       z     vdW  Elec       q    Type
REMARK                         _______ _______ _______ _____ _____    ______ ____
ROOT
ATOM      1  C   UNL     1       2.373   5.951  18.697  0.00  0.00    +0.000 A 
ATOM      2  C   UNL     1       2.595   6.903  17.702  0.00  0.00    +0.000 A 
ATOM      3  C   UNL     1       2.271   8.238  17.957  0.00  0.00    +0.000 A 
ATOM      4  C   UNL     1       1.751   8.589  19.208  0.00  0.00    +0.000 A 
ATOM      5  C   UNL     1       1.174   9.920  19.447  0.00  0.00    +0.000 A 
ATOM      6  O   UNL     1       1.268  10.823  18.628  0.00  0.00    +0.000 OA
ATOM      7  C   UNL     1       0.437  10.087  20.711  0.00  0.00    +0.000 A 
ATOM      8  C   UNL     1      -0.441  11.152  20.903  0.00  0.00    +0.000 A 
ATOM      9  C   UNL     1      -1.066  11.308  22.142  0.00  0.00    +0.000 A 
ATOM     10  C   UNL     1      -0.773  10.432  23.190  0.00  0.00    +0.000 A 
ATOM     11  C   UNL     1       0.075   9.345  22.978  0.00  0.00    +0.000 A 
ATOM     12  C   UNL     1       0.632   9.142  21.717  0.00  0.00    +0.000 A 
ATOM     13  O   UNL     1       1.314   7.969  21.525  0.00  0.00    +0.000 OA
ATOM     14  C   UNL     1       1.664   7.652  20.236  0.00  0.00    +0.000 A 
ATOM     15  C   UNL     1       1.960   6.321  19.978  0.00  0.00    +0.000 A 
ENDROOT
BRANCH   1  16
ATOM     16  O   UNL     1       2.691   4.616  18.435  0.00  0.00    +0.000 OA
BRANCH  16  17
ATOM     17  C   UNL     1       3.112   3.866  19.548  0.00  0.00    +0.000 C 
ATOM     18  O   UNL     1       2.389   3.400  20.415  0.00  0.00    +0.000 OA
BRANCH  17  19
ATOM     19  C   UNL     1       4.646   3.751  19.479  0.00  0.00    +0.000 C 
BRANCH  19  20
ATOM     20  N   UNL     1       5.085   2.386  19.853  0.00  0.00    +0.000 NA
ATOM     21  H   UNL     1       6.064   2.414  20.144  0.00  0.00    +0.000 HD
ATOM     22  H   UNL     1       5.043   1.780  19.034  0.00  0.00    +0.000 HD
ENDBRANCH  19  20
BRANCH  19  23
ATOM     23  C   UNL     1       5.121   4.177  18.079  0.00  0.00    +0.000 C 
BRANCH  23  24
ATOM     24  C   UNL     1       6.121   5.313  18.083  0.00  0.00    +0.000 A 
ATOM     25  C   UNL     1       5.998   6.356  17.152  0.00  0.00    +0.000 A 
ATOM     26  C   UNL     1       6.913   7.410  17.150  0.00  0.00    +0.000 A 
ATOM     27  C   UNL     1       7.955   7.434  18.073  0.00  0.00    +0.000 A 
ATOM     28  C   UNL     1       8.082   6.407  19.006  0.00  0.00    +0.000 A 
ATOM     29  C   UNL     1       7.166   5.354  19.015  0.00  0.00    +0.000 A 
ENDBRANCH  23  24
ENDBRANCH  19  23
ENDBRANCH  17  19
ENDBRANCH  16  17
ENDBRANCH   1  16
TORSDOF 6
ENDMDL
MODEL 6
REMARK VINA RESULT:      -8.3      3.521      7.678
REMARK  Name = 
REMARK  6 active torsions:
REMARK  status: ('A' for Active; 'I' for Inactive)
REMARK    1  A    between atoms: N_1  and  C_2
REMARK    2  A    between atoms: C_2  and  C_3
REMARK    3  A    between atoms: C_2  and  C_10
REMARK    4  A    between atoms: C_3  and  C_4
REMARK    5  A    between atoms: C_10  and  O_12
REMARK    6  A    between atoms: O_12  and  C_13
REMARK                            x       y       z     vdW  Elec       q    Type
REMARK                         _______ _______ _______ _____ _____    ______ ____
ROOT
ATOM      1  C   UNL     1       2.575   6.471  18.433  0.00  0.00    +0.000 A 
ATOM      2  C   UNL     1       2.662   7.491  17.484  0.00  0.00    +0.000 A 
ATOM      3  C   UNL     1       2.209   8.769  17.821  0.00  0.00    +0.000 A 
ATOM      4  C   UNL     1       1.700   8.999  19.103  0.00  0.00    +0.000 A 
ATOM      5  C   UNL     1       0.996  10.247  19.431  0.00  0.00    +0.000 A 
ATOM      6  O   UNL     1       0.967  11.196  18.660  0.00  0.00    +0.000 OA
ATOM      7  C   UNL     1       0.291  10.271  20.723  0.00  0.00    +0.000 A 
ATOM      8  C   UNL     1      -0.686  11.227  20.999  0.00  0.00    +0.000 A 
ATOM      9  C   UNL     1      -1.281  11.252  22.262  0.00  0.00    +0.000 A 
ATOM     10  C   UNL     1      -0.862  10.360  23.252  0.00  0.00    +0.000 A 
ATOM     11  C   UNL     1       0.087   9.381  22.957  0.00  0.00    +0.000 A 
ATOM     12  C   UNL     1       0.617   9.302  21.670  0.00  0.00    +0.000 A 
ATOM     13  O   UNL     1       1.411   8.219  21.395  0.00  0.00    +0.000 OA
ATOM     14  C   UNL     1       1.746   8.006  20.081  0.00  0.00    +0.000 A 
ATOM     15  C   UNL     1       2.170   6.729  19.743  0.00  0.00    +0.000 A 
ENDROOT
BRANCH   1  16
ATOM     16  O   UNL     1       3.020   5.192  18.089  0.00  0.00    +0.000 OA
BRANCH  16  17
ATOM     17  C   UNL     1       3.200   4.306  19.166  0.00  0.00    +0.000 C 
ATOM     18  O   UNL     1       2.320   3.864  19.888  0.00  0.00    +0.000 OA
BRANCH  17  19
ATOM     19  C   UNL     1       4.707   4.006  19.275  0.00  0.00    +0.000 C 
BRANCH  19  20
ATOM     20  N   UNL     1       4.931   2.607  19.711  0.00  0.00    +0.000 NA
ATOM     21  H   UNL     1       4.162   2.022  19.378  0.00  0.00    +0.000 HD
ATOM     22  H   UNL     1       4.910   2.561  20.729  0.00  0.00    +0.000 HD
ENDBRANCH  19  20
BRANCH  19  23
ATOM     23  C   UNL     1       5.386   4.339  17.936  0.00  0.00    +0.000 C 
BRANCH  23  24
ATOM     24  C   UNL     1       6.323   5.525  17.994  0.00  0.00    +0.000 A 
ATOM     25  C   UNL     1       7.337   5.570  18.963  0.00  0.00    +0.000 A 
ATOM     26  C   UNL     1       8.209   6.658  19.021  0.00  0.00    +0.000 A 
ATOM     27  C   UNL     1       8.079   7.708  18.116  0.00  0.00    +0.000 A 
ATOM     28  C   UNL     1       7.082   7.670  17.145  0.00  0.00    +0.000 A 
ATOM     29  C   UNL     1       6.210   6.582  17.080  0.00  0.00    +0.000 A 
ENDBRANCH  23  24
ENDBRANCH  19  23
ENDBRANCH  17  19
ENDBRANCH  16  17
ENDBRANCH   1  16
TORSDOF 6
ENDMDL
MODEL 7
REMARK VINA RESULT:      -8.3      3.153      7.386
REMARK  Name = 
REMARK  6 active torsions:
REMARK  status: ('A' for Active; 'I' for Inactive)
REMARK    1  A    between atoms: N_1  and  C_2
REMARK    2  A    between atoms: C_2  and  C_3
REMARK    3  A    between atoms: C_2  and  C_10
REMARK    4  A    between atoms: C_3  and  C_4
REMARK    5  A    between atoms: C_10  and  O_12
REMARK    6  A    between atoms: O_12  and  C_13
REMARK                            x       y       z     vdW  Elec       q    Type
REMARK                         _______ _______ _______ _____ _____    ______ ____
ROOT
ATOM      1  C   UNL     1       2.117   5.435  19.232  0.00  0.00    +0.000 A 
ATOM      2  C   UNL     1       2.507   6.247  18.166  0.00  0.00    +0.000 A 
ATOM      3  C   UNL     1       2.320   7.628  18.262  0.00  0.00    +0.000 A 
ATOM      4  C   UNL     1       1.767   8.164  19.430  0.00  0.00    +0.000 A 
ATOM      5  C   UNL     1       1.330   9.566  19.493  0.00  0.00    +0.000 A 
ATOM      6  O   UNL     1       1.576  10.361  18.597  0.00  0.00    +0.000 OA
ATOM      7  C   UNL     1       0.540   9.944  20.676  0.00  0.00    +0.000 A 
ATOM      8  C   UNL     1      -0.222  11.111  20.697  0.00  0.00    +0.000 A 
ATOM      9  C   UNL     1      -0.901  11.464  21.864  0.00  0.00    +0.000 A 
ATOM     10  C   UNL     1      -0.774  10.679  23.013  0.00  0.00    +0.000 A 
ATOM     11  C   UNL     1      -0.043   9.492  22.973  0.00  0.00    +0.000 A 
ATOM     12  C   UNL     1       0.564   9.097  21.782  0.00  0.00    +0.000 A 
ATOM     13  O   UNL     1       1.120   7.844  21.759  0.00  0.00    +0.000 OA
ATOM     14  C   UNL     1       1.511   7.356  20.537  0.00  0.00    +0.000 A 
ATOM     15  C   UNL     1       1.670   5.982  20.435  0.00  0.00    +0.000 A 
ENDROOT
BRANCH   1  16
ATOM     16  O   UNL     1       2.298   4.054  19.127  0.00  0.00    +0.000 OA
BRANCH  16  17
ATOM     17  C   UNL     1       3.048   3.464  20.160  0.00  0.00    +0.000 C 
ATOM     18  O   UNL     1       2.662   3.255  21.300  0.00  0.00    +0.000 OA
BRANCH  17  19
ATOM     19  C   UNL     1       4.444   3.141  19.596  0.00  0.00    +0.000 C 
BRANCH  19  20
ATOM     20  N   UNL     1       4.990   1.913  20.221  0.00  0.00    +0.000 NA
ATOM     21  H   UNL     1       4.417   1.662  21.028  0.00  0.00    +0.000 HD
ATOM     22  H   UNL     1       5.927   2.101  20.577  0.00  0.00    +0.000 HD
ENDBRANCH  19  20
BRANCH  19  23
ATOM     23  C   UNL     1       4.361   3.055  18.063  0.00  0.00    +0.000 C 
BRANCH  23  24
ATOM     24  C   UNL     1       5.245   4.044  17.336  0.00  0.00    +0.000 A 
ATOM     25  C   UNL     1       6.332   4.632  18.001  0.00  0.00    +0.000 A 
ATOM     26  C   UNL     1       7.155   5.543  17.338  0.00  0.00    +0.000 A 
ATOM     27  C   UNL     1       6.904   5.875  16.010  0.00  0.00    +0.000 A 
ATOM     28  C   UNL     1       5.833   5.293  15.337  0.00  0.00    +0.000 A 
ATOM     29  C   UNL     1       5.009   4.377  15.995  0.00  0.00    +0.000 A 
ENDBRANCH  23  24
ENDBRANCH  19  23
ENDBRANCH  17  19
ENDBRANCH  16  17
ENDBRANCH   1  16
TORSDOF 6
ENDMDL
MODEL 8
REMARK VINA RESULT:      -8.2      3.229      7.327
REMARK  Name = 
REMARK  6 active torsions:
REMARK  status: ('A' for Active; 'I' for Inactive)
REMARK    1  A    between atoms: N_1  and  C_2
REMARK    2  A    between atoms: C_2  and  C_3
REMARK    3  A    between atoms: C_2  and  C_10
REMARK    4  A    between atoms: C_3  and  C_4
REMARK    5  A    between atoms: C_10  and  O_12
REMARK    6  A    between atoms: O_12  and  C_13
REMARK                            x       y       z     vdW  Elec       q    Type
REMARK                         _______ _______ _______ _____ _____    ______ ____
ROOT
ATOM      1  C   UNL     1       2.103   5.353  19.330  0.00  0.00    +0.000 A 
ATOM      2  C   UNL     1       2.464   6.020  18.158  0.00  0.00    +0.000 A 
ATOM      3  C   UNL     1       2.301   7.406  18.090  0.00  0.00    +0.000 A 
ATOM      4  C   UNL     1       1.800   8.092  19.202  0.00  0.00    +0.000 A 
ATOM      5  C   UNL     1       1.387   9.500  19.107  0.00  0.00    +0.000 A 
ATOM      6  O   UNL     1       1.610  10.174  18.111  0.00  0.00    +0.000 OA
ATOM      7  C   UNL     1       0.648  10.035  20.262  0.00  0.00    +0.000 A 
ATOM      8  C   UNL     1      -0.096  11.211  20.166  0.00  0.00    +0.000 A 
ATOM      9  C   UNL     1      -0.725  11.717  21.304  0.00  0.00    +0.000 A 
ATOM     10  C   UNL     1      -0.566  11.077  22.536  0.00  0.00    +0.000 A 
ATOM     11  C   UNL     1       0.146   9.880  22.617  0.00  0.00    +0.000 A 
ATOM     12  C   UNL     1       0.701   9.330  21.463  0.00  0.00    +0.000 A 
ATOM     13  O   UNL     1       1.237   8.074  21.574  0.00  0.00    +0.000 OA
ATOM     14  C   UNL     1       1.574   7.431  20.408  0.00  0.00    +0.000 A 
ATOM     15  C   UNL     1       1.710   6.052  20.472  0.00  0.00    +0.000 A 
ENDROOT
BRANCH   1  16
ATOM     16  O   UNL     1       2.259   3.967  19.390  0.00  0.00    +0.000 OA
BRANCH  16  17
ATOM     17  C   UNL     1       3.124   3.414  18.428  0.00  0.00    +0.000 C 
ATOM     18  O   UNL     1       2.788   2.790  17.434  0.00  0.00    +0.000 OA
BRANCH  17  19
ATOM     19  C   UNL     1       4.567   3.731  18.863  0.00  0.00    +0.000 C 
BRANCH  19  20
ATOM     20  N   UNL     1       5.135   2.609  19.647  0.00  0.00    +0.000 NA
ATOM     21  H   UNL     1       4.958   2.767  20.640  0.00  0.00    +0.000 HD
ATOM     22  H   UNL     1       6.148   2.594  19.532  0.00  0.00    +0.000 HD
ENDBRANCH  19  20
BRANCH  19  23
ATOM     23  C   UNL     1       5.402   4.086  17.621  0.00  0.00    +0.000 C 
BRANCH  23  24
ATOM     24  C   UNL     1       6.251   5.327  17.778  0.00  0.00    +0.000 A 
ATOM     25  C   UNL     1       7.306   5.342  18.703  0.00  0.00    +0.000 A 
ATOM     26  C   UNL     1       8.098   6.481  18.852  0.00  0.00    +0.000 A 
ATOM     27  C   UNL     1       7.847   7.613  18.082  0.00  0.00    +0.000 A 
ATOM     28  C   UNL     1       6.807   7.608  17.155  0.00  0.00    +0.000 A 
ATOM     29  C   UNL     1       6.016   6.469  17.000  0.00  0.00    +0.000 A 
ENDBRANCH  23  24
ENDBRANCH  19  23
ENDBRANCH  17  19
ENDBRANCH  16  17
ENDBRANCH   1  16
TORSDOF 6
ENDMDL
MODEL 9
REMARK VINA RESULT:      -8.1      3.278      7.435
REMARK  Name = 
REMARK  6 active torsions:
REMARK  status: ('A' for Active; 'I' for Inactive)
REMARK    1  A    between atoms: N_1  and  C_2
REMARK    2  A    between atoms: C_2  and  C_3
REMARK    3  A    between atoms: C_2  and  C_10
REMARK    4  A    between atoms: C_3  and  C_4
REMARK    5  A    between atoms: C_10  and  O_12
REMARK    6  A    between atoms: O_12  and  C_13
REMARK                            x       y       z     vdW  Elec       q    Type
REMARK                         _______ _______ _______ _____ _____    ______ ____
ROOT
ATOM      1  C   UNL     1       2.273   5.516  19.666  0.00  0.00    +0.000 A 
ATOM      2  C   UNL     1       2.633   6.166  18.485  0.00  0.00    +0.000 A 
ATOM      3  C   UNL     1       2.362   7.530  18.353  0.00  0.00    +0.000 A 
ATOM      4  C   UNL     1       1.757   8.213  19.414  0.00  0.00    +0.000 A 
ATOM      5  C   UNL     1       1.236   9.578  19.243  0.00  0.00    +0.000 A 
ATOM      6  O   UNL     1       1.450  10.230  18.232  0.00  0.00    +0.000 OA
ATOM      7  C   UNL     1       0.404  10.093  20.343  0.00  0.00    +0.000 A 
ATOM      8  C   UNL     1      -0.427  11.199  20.166  0.00  0.00    +0.000 A 
ATOM      9  C   UNL     1      -1.147  11.693  21.255  0.00  0.00    +0.000 A 
ATOM     10  C   UNL     1      -0.995  11.115  22.517  0.00  0.00    +0.000 A 
ATOM     11  C   UNL     1      -0.193   9.985  22.678  0.00  0.00    +0.000 A 
ATOM     12  C   UNL     1       0.458   9.440  21.572  0.00  0.00    +0.000 A 
ATOM     13  O   UNL     1       1.088   8.237  21.758  0.00  0.00    +0.000 OA
ATOM     14  C   UNL     1       1.529   7.582  20.635  0.00  0.00    +0.000 A 
ATOM     15  C   UNL     1       1.772   6.221  20.760  0.00  0.00    +0.000 A 
ENDROOT
BRANCH   1  16
ATOM     16  O   UNL     1       2.538   4.150  19.790  0.00  0.00    +0.000 OA
BRANCH  16  17
ATOM     17  C   UNL     1       2.216   3.368  18.665  0.00  0.00    +0.000 C 
ATOM     18  O   UNL     1       1.095   3.169  18.226  0.00  0.00    +0.000 OA
BRANCH  17  19
ATOM     19  C   UNL     1       3.532   2.805  18.098  0.00  0.00    +0.000 C 
BRANCH  19  20
ATOM     20  N   UNL     1       3.564   1.328  18.220  0.00  0.00    +0.000 NA
ATOM     21  H   UNL     1       4.187   1.065  18.985  0.00  0.00    +0.000 HD
ATOM     22  H   UNL     1       3.961   0.926  17.370  0.00  0.00    +0.000 HD
ENDBRANCH  19  20
BRANCH  19  23
ATOM     23  C   UNL     1       3.711   3.297  16.652  0.00  0.00    +0.000 C 
BRANCH  23  24
ATOM     24  C   UNL     1       5.033   3.982  16.389  0.00  0.00    +0.000 A 
ATOM     25  C   UNL     1       5.470   4.177  15.069  0.00  0.00    +0.000 A 
ATOM     26  C   UNL     1       6.687   4.811  14.816  0.00  0.00    +0.000 A 
ATOM     27  C   UNL     1       7.477   5.257  15.872  0.00  0.00    +0.000 A 
ATOM     28  C   UNL     1       7.050   5.075  17.186  0.00  0.00    +0.000 A 
ATOM     29  C   UNL     1       5.832   4.445  17.443  0.00  0.00    +0.000 A 
ENDBRANCH  23  24
ENDBRANCH  19  23
ENDBRANCH  17  19
ENDBRANCH  16  17
ENDBRANCH   1  16
TORSDOF 6
ENDMDL
