MODEL 1
REMARK VINA RESULT:      -7.4      0.000      0.000
REMARK  Name = 
REMARK  14 active torsions:
REMARK  status: ('A' for Active; 'I' for Inactive)
REMARK    1  A    between atoms: C_1  and  C_2
REMARK    2  A    between atoms: C_2  and  C_3
REMARK    3  A    between atoms: C_3  and  C_4
REMARK    4  A    between atoms: C_4  and  N_5
REMARK    5  A    between atoms: C_6  and  N_7
REMARK    6  A    between atoms: C_8  and  N_9
REMARK    7  A    between atoms: N_9  and  C_10
REMARK    8  A    between atoms: C_10  and  C_11
REMARK    9  A    between atoms: C_11  and  C_12
REMARK   10  A    between atoms: C_11  and  C_13
REMARK   11  A    between atoms: C_14  and  C_16
REMARK   12  A    between atoms: C_16  and  S_17
REMARK   13  A    between atoms: S_17  and  C_18
REMARK   14  A    between atoms: C_18  and  C_19
REMARK                            x       y       z     vdW  Elec       q    Type
REMARK                         _______ _______ _______ _____ _____    ______ ____
ROOT
ATOM      1  N   UNL     1       3.569   4.923  19.216  0.00  0.00    +0.000 N 
ATOM      2  C   UNL     1       2.859   6.137  19.368  0.00  0.00    +0.000 C 
ATOM      3  O   UNL     1       2.012   6.241  20.264  0.00  0.00    +0.000 OA
ENDROOT
BRANCH   1   6
ATOM      4  N   UNL     1       5.705   4.043  16.327  0.00  0.00    +0.000 N 
ATOM      5  C   UNL     1       4.554   4.258  17.092  0.00  0.00    +0.000 A 
ATOM      6  C   UNL     1       4.659   4.773  18.346  0.00  0.00    +0.000 A 
ATOM      7  C   UNL     1       6.012   5.234  18.793  0.00  0.00    +0.000 A 
ATOM      8  O   UNL     1       6.228   5.597  19.947  0.00  0.00    +0.000 OA
ATOM      9  N   UNL     1       6.986   5.264  17.847  0.00  0.00    +0.000 N 
ATOM     10  C   UNL     1       6.933   4.598  16.661  0.00  0.00    +0.000 A 
ATOM     11  O   UNL     1       7.953   4.510  15.979  0.00  0.00    +0.000 OA
ATOM     12  H   UNL     1       7.899   5.594  18.119  0.00  0.00    +0.000 HD
BRANCH   5  13
ATOM     13  N   UNL     1       3.293   4.036  16.549  0.00  0.00    +0.000 N 
ATOM     14  H   UNL     1       3.259   3.226  15.943  0.00  0.00    +0.000 HD
ATOM     15  H   UNL     1       2.561   3.995  17.258  0.00  0.00    +0.000 HD
ENDBRANCH   5  13
BRANCH   4  16
ATOM     16  C   UNL     1       5.658   3.268  15.076  0.00  0.00    +0.000 C 
BRANCH  16  17
ATOM     17  C   UNL     1       5.498   4.132  13.809  0.00  0.00    +0.000 C 
BRANCH  17  19
ATOM     18  C   UNL     1       4.546   3.329  11.619  0.00  0.00    +0.000 C 
ATOM     19  C   UNL     1       5.784   3.383  12.505  0.00  0.00    +0.000 C 
ENDBRANCH  17  19
ENDBRANCH  16  17
ENDBRANCH   4  16
ENDBRANCH   1   6
BRANCH   1  20
ATOM     20  C   UNL     1       3.197   3.898  20.227  0.00  0.00    +0.000 C 
BRANCH  20  21
ATOM     21  C   UNL     1       1.847   3.147  20.201  0.00  0.00    +0.000 C 
ATOM     22  C   UNL     1       1.845   1.976  19.218  0.00  0.00    +0.000 C 
ATOM     23  C   UNL     1       1.504   2.602  21.600  0.00  0.00    +0.000 C 
ENDBRANCH  20  21
ENDBRANCH   1  20
BRANCH   2  24
ATOM     24  C   UNL     1       3.102   7.299  18.398  0.00  0.00    +0.000 C 
BRANCH  24  25
ATOM     25  S   UNL     1       1.546   8.094  17.832  0.00  0.00    +0.000 S 
BRANCH  25  26
ATOM     26  C   UNL     1       1.824   9.822  18.359  0.00  0.00    +0.000 C 
BRANCH  26  27
ATOM     27  C   UNL     1       0.930  10.194  19.523  0.00  0.00    +0.000 A 
ATOM     28  C   UNL     1       1.012   9.479  20.729  0.00  0.00    +0.000 A 
ATOM     29  C   UNL     1       0.210   9.826  21.818  0.00  0.00    +0.000 A 
ATOM     30  C   UNL     1      -0.690  10.890  21.719  0.00  0.00    +0.000 A 
ATOM     31 CL   UNL     1      -1.642  11.271  23.110  0.00  0.00    +0.000 Cl
ATOM     32  C   UNL     1      -0.789  11.604  20.520  0.00  0.00    +0.000 A 
ATOM     33 CL   UNL     1      -1.875  12.935  20.327  0.00  0.00    +0.000 Cl
ATOM     34  C   UNL     1       0.015  11.255  19.427  0.00  0.00    +0.000 A 
ENDBRANCH  26  27
ENDBRANCH  25  26
ENDBRANCH  24  25
ENDBRANCH   2  24
TORSDOF 11
ENDMDL
MODEL 2
REMARK VINA RESULT:      -7.4      2.231      4.447
REMARK  Name = 
REMARK  14 active torsions:
REMARK  status: ('A' for Active; 'I' for Inactive)
REMARK    1  A    between atoms: C_1  and  C_2
REMARK    2  A    between atoms: C_2  and  C_3
REMARK    3  A    between atoms: C_3  and  C_4
REMARK    4  A    between atoms: C_4  and  N_5
REMARK    5  A    between atoms: C_6  and  N_7
REMARK    6  A    between atoms: C_8  and  N_9
REMARK    7  A    between atoms: N_9  and  C_10
REMARK    8  A    between atoms: C_10  and  C_11
REMARK    9  A    between atoms: C_11  and  C_12
REMARK   10  A    between atoms: C_11  and  C_13
REMARK   11  A    between atoms: C_14  and  C_16
REMARK   12  A    between atoms: C_16  and  S_17
REMARK   13  A    between atoms: S_17  and  C_18
REMARK   14  A    between atoms: C_18  and  C_19
REMARK                            x       y       z     vdW  Elec       q    Type
REMARK                         _______ _______ _______ _____ _____    ______ ____
ROOT
ATOM      1  N   UNL     1       4.323   6.046  17.481  0.00  0.00    +0.000 N 
ATOM      2  C   UNL     1       3.483   7.129  17.828  0.00  0.00    +0.000 C 
ATOM      3  O   UNL     1       3.416   8.114  17.081  0.00  0.00    +0.000 OA
ENDROOT
BRANCH   1   6
ATOM      4  N   UNL     1       3.473   2.665  18.721  0.00  0.00    +0.000 N 
ATOM      5  C   UNL     1       3.469   3.808  17.915  0.00  0.00    +0.000 A 
ATOM      6  C   UNL     1       4.331   4.826  18.175  0.00  0.00    +0.000 A 
ATOM      7  C   UNL     1       5.365   4.602  19.235  0.00  0.00    +0.000 A 
ATOM      8  O   UNL     1       6.105   5.503  19.624  0.00  0.00    +0.000 OA
ATOM      9  N   UNL     1       5.468   3.340  19.726  0.00  0.00    +0.000 N 
ATOM     10  C   UNL     1       4.510   2.381  19.600  0.00  0.00    +0.000 A 
ATOM     11  O   UNL     1       4.603   1.352  20.267  0.00  0.00    +0.000 OA
ATOM     12  H   UNL     1       6.172   3.160  20.424  0.00  0.00    +0.000 HD
BRANCH   5  13
ATOM     13  N   UNL     1       2.651   3.876  16.792  0.00  0.00    +0.000 N 
ATOM     14  H   UNL     1       2.337   4.816  16.585  0.00  0.00    +0.000 HD
ATOM     15  H   UNL     1       3.073   3.441  15.971  0.00  0.00    +0.000 HD
ENDBRANCH   5  13
BRANCH   4  16
ATOM     16  C   UNL     1       2.402   1.660  18.629  0.00  0.00    +0.000 C 
BRANCH  16  17
ATOM     17  C   UNL     1       1.061   2.116  19.240  0.00  0.00    +0.000 C 
BRANCH  17  19
ATOM     18  C   UNL     1       0.981   4.258  20.563  0.00  0.00    +0.000 C 
ATOM     19  C   UNL     1       1.193   2.750  20.626  0.00  0.00    +0.000 C 
ENDBRANCH  17  19
ENDBRANCH  16  17
ENDBRANCH   4  16
ENDBRANCH   1   6
BRANCH   1  20
ATOM     20  C   UNL     1       5.023   6.240  16.184  0.00  0.00    +0.000 C 
BRANCH  20  21
ATOM     21  C   UNL     1       6.562   6.209  16.051  0.00  0.00    +0.000 C 
ATOM     22  C   UNL     1       7.266   6.981  17.166  0.00  0.00    +0.000 C 
ATOM     23  C   UNL     1       7.077   4.756  16.072  0.00  0.00    +0.000 C 
ENDBRANCH  20  21
ENDBRANCH   1  20
BRANCH   2  24
ATOM     24  C   UNL     1       2.698   7.106  19.145  0.00  0.00    +0.000 C 
BRANCH  24  25
ATOM     25  S   UNL     1       1.611   8.571  19.356  0.00  0.00    +0.000 S 
BRANCH  25  26
ATOM     26  C   UNL     1       1.075   8.365  21.090  0.00  0.00    +0.000 C 
BRANCH  26  27
ATOM     27  C   UNL     1       0.384   9.609  21.606  0.00  0.00    +0.000 A 
ATOM     28  C   UNL     1      -0.485   9.525  22.705  0.00  0.00    +0.000 A 
ATOM     29  C   UNL     1      -1.112  10.668  23.206  0.00  0.00    +0.000 A 
ATOM     30  C   UNL     1      -0.883  11.913  22.614  0.00  0.00    +0.000 A 
ATOM     31 CL   UNL     1      -1.683  13.286  23.293  0.00  0.00    +0.000 Cl
ATOM     32  C   UNL     1      -0.027  12.009  21.512  0.00  0.00    +0.000 A 
ATOM     33 CL   UNL     1       0.308  13.515  20.732  0.00  0.00    +0.000 Cl
ATOM     34  C   UNL     1       0.600  10.861  21.009  0.00  0.00    +0.000 A 
ENDBRANCH  26  27
ENDBRANCH  25  26
ENDBRANCH  24  25
ENDBRANCH   2  24
TORSDOF 11
ENDMDL
MODEL 3
REMARK VINA RESULT:      -7.3      1.123      1.748
REMARK  Name = 
REMARK  14 active torsions:
REMARK  status: ('A' for Active; 'I' for Inactive)
REMARK    1  A    between atoms: C_1  and  C_2
REMARK    2  A    between atoms: C_2  and  C_3
REMARK    3  A    between atoms: C_3  and  C_4
REMARK    4  A    between atoms: C_4  and  N_5
REMARK    5  A    between atoms: C_6  and  N_7
REMARK    6  A    between atoms: C_8  and  N_9
REMARK    7  A    between atoms: N_9  and  C_10
REMARK    8  A    between atoms: C_10  and  C_11
REMARK    9  A    between atoms: C_11  and  C_12
REMARK   10  A    between atoms: C_11  and  C_13
REMARK   11  A    between atoms: C_14  and  C_16
REMARK   12  A    between atoms: C_16  and  S_17
REMARK   13  A    between atoms: S_17  and  C_18
REMARK   14  A    between atoms: C_18  and  C_19
REMARK                            x       y       z     vdW  Elec       q    Type
REMARK                         _______ _______ _______ _____ _____    ______ ____
ROOT
ATOM      1  N   UNL     1       3.636   4.555  19.346  0.00  0.00    +0.000 N 
ATOM      2  C   UNL     1       2.807   5.683  19.545  0.00  0.00    +0.000 C 
ATOM      3  O   UNL     1       2.003   5.692  20.486  0.00  0.00    +0.000 OA
ENDROOT
BRANCH   1   6
ATOM      4  N   UNL     1       5.674   3.978  16.313  0.00  0.00    +0.000 N 
ATOM      5  C   UNL     1       4.553   4.072  17.143  0.00  0.00    +0.000 A 
ATOM      6  C   UNL     1       4.688   4.526  18.418  0.00  0.00    +0.000 A 
ATOM      7  C   UNL     1       6.028   5.056  18.824  0.00  0.00    +0.000 A 
ATOM      8  O   UNL     1       6.279   5.373  19.985  0.00  0.00    +0.000 OA
ATOM      9  N   UNL     1       6.948   5.203  17.836  0.00  0.00    +0.000 N 
ATOM     10  C   UNL     1       6.878   4.598  16.618  0.00  0.00    +0.000 A 
ATOM     11  O   UNL     1       7.865   4.616  15.885  0.00  0.00    +0.000 OA
ATOM     12  H   UNL     1       7.850   5.580  18.082  0.00  0.00    +0.000 HD
BRANCH   5  13
ATOM     13  N   UNL     1       3.283   3.791  16.650  0.00  0.00    +0.000 N 
ATOM     14  H   UNL     1       3.159   2.817  16.404  0.00  0.00    +0.000 HD
ATOM     15  H   UNL     1       2.540   4.110  17.271  0.00  0.00    +0.000 HD
ENDBRANCH   5  13
BRANCH   4  16
ATOM     16  C   UNL     1       5.615   3.267  15.025  0.00  0.00    +0.000 C 
BRANCH  16  17
ATOM     17  C   UNL     1       5.621   4.198  13.795  0.00  0.00    +0.000 C 
BRANCH  17  19
ATOM     18  C   UNL     1       4.615   3.207  11.710  0.00  0.00    +0.000 C 
ATOM     19  C   UNL     1       5.904   3.481  12.474  0.00  0.00    +0.000 C 
ENDBRANCH  17  19
ENDBRANCH  16  17
ENDBRANCH   4  16
ENDBRANCH   1   6
BRANCH   1  20
ATOM     20  C   UNL     1       3.434   3.494  20.368  0.00  0.00    +0.000 C 
BRANCH  20  21
ATOM     21  C   UNL     1       2.285   2.464  20.290  0.00  0.00    +0.000 C 
ATOM     22  C   UNL     1       1.320   2.569  21.470  0.00  0.00    +0.000 C 
ATOM     23  C   UNL     1       1.479   2.650  18.990  0.00  0.00    +0.000 C 
ENDBRANCH  20  21
ENDBRANCH   1  20
BRANCH   2  24
ATOM     24  C   UNL     1       2.868   6.866  18.571  0.00  0.00    +0.000 C 
BRANCH  24  25
ATOM     25  S   UNL     1       2.106   8.392  19.251  0.00  0.00    +0.000 S 
BRANCH  25  26
ATOM     26  C   UNL     1       1.239   9.038  17.778  0.00  0.00    +0.000 C 
BRANCH  26  27
ATOM     27  C   UNL     1       0.018   9.845  18.166  0.00  0.00    +0.000 A 
ATOM     28  C   UNL     1      -1.125   9.825  17.351  0.00  0.00    +0.000 A 
ATOM     29  C   UNL     1      -2.266  10.546  17.708  0.00  0.00    +0.000 A 
ATOM     30  C   UNL     1      -2.282  11.303  18.882  0.00  0.00    +0.000 A 
ATOM     31 CL   UNL     1      -3.732  12.161  19.267  0.00  0.00    +0.000 Cl
ATOM     32  C   UNL     1      -1.146  11.340  19.698  0.00  0.00    +0.000 A 
ATOM     33 CL   UNL     1      -1.096  12.249  21.167  0.00  0.00    +0.000 Cl
ATOM     34  C   UNL     1      -0.001  10.616  19.338  0.00  0.00    +0.000 A 
ENDBRANCH  26  27
ENDBRANCH  25  26
ENDBRANCH  24  25
ENDBRANCH   2  24
TORSDOF 11
ENDMDL
MODEL 4
REMARK VINA RESULT:      -7.3      1.403      1.648
REMARK  Name = 
REMARK  14 active torsions:
REMARK  status: ('A' for Active; 'I' for Inactive)
REMARK    1  A    between atoms: C_1  and  C_2
REMARK    2  A    between atoms: C_2  and  C_3
REMARK    3  A    between atoms: C_3  and  C_4
REMARK    4  A    between atoms: C_4  and  N_5
REMARK    5  A    between atoms: C_6  and  N_7
REMARK    6  A    between atoms: C_8  and  N_9
REMARK    7  A    between atoms: N_9  and  C_10
REMARK    8  A    between atoms: C_10  and  C_11
REMARK    9  A    between atoms: C_11  and  C_12
REMARK   10  A    between atoms: C_11  and  C_13
REMARK   11  A    between atoms: C_14  and  C_16
REMARK   12  A    between atoms: C_16  and  S_17
REMARK   13  A    between atoms: S_17  and  C_18
REMARK   14  A    between atoms: C_18  and  C_19
REMARK                            x       y       z     vdW  Elec       q    Type
REMARK                         _______ _______ _______ _____ _____    ______ ____
ROOT
ATOM      1  N   UNL     1       3.845   4.315  19.440  0.00  0.00    +0.000 N 
ATOM      2  C   UNL     1       2.927   5.144  20.126  0.00  0.00    +0.000 C 
ATOM      3  O   UNL     1       2.246   4.671  21.044  0.00  0.00    +0.000 OA
ENDROOT
BRANCH   1   6
ATOM      4  N   UNL     1       5.560   5.249  16.298  0.00  0.00    +0.000 N 
ATOM      5  C   UNL     1       4.543   4.847  17.169  0.00  0.00    +0.000 A 
ATOM      6  C   UNL     1       4.774   4.803  18.508  0.00  0.00    +0.000 A 
ATOM      7  C   UNL     1       6.081   5.342  19.003  0.00  0.00    +0.000 A 
ATOM      8  O   UNL     1       6.429   5.233  20.176  0.00  0.00    +0.000 OA
ATOM      9  N   UNL     1       6.852   5.992  18.092  0.00  0.00    +0.000 N 
ATOM     10  C   UNL     1       6.710   5.888  16.743  0.00  0.00    +0.000 A 
ATOM     11  O   UNL     1       7.593   6.334  16.013  0.00  0.00    +0.000 OA
ATOM     12  H   UNL     1       7.726   6.384  18.408  0.00  0.00    +0.000 HD
BRANCH   5  13
ATOM     13  N   UNL     1       3.266   4.579  16.688  0.00  0.00    +0.000 N 
ATOM     14  H   UNL     1       3.072   3.589  16.607  0.00  0.00    +0.000 HD
ATOM     15  H   UNL     1       2.537   5.054  17.221  0.00  0.00    +0.000 HD
ENDBRANCH   5  13
BRANCH   4  16
ATOM     16  C   UNL     1       5.432   5.076  14.841  0.00  0.00    +0.000 C 
BRANCH  16  17
ATOM     17  C   UNL     1       6.051   3.767  14.310  0.00  0.00    +0.000 C 
BRANCH  17  19
ATOM     18  C   UNL     1       5.595   2.956  11.969  0.00  0.00    +0.000 C 
ATOM     19  C   UNL     1       6.482   3.833  12.843  0.00  0.00    +0.000 C 
ENDBRANCH  17  19
ENDBRANCH  16  17
ENDBRANCH   4  16
ENDBRANCH   1   6
BRANCH   1  20
ATOM     20  C   UNL     1       3.886   2.925  19.967  0.00  0.00    +0.000 C 
BRANCH  20  21
ATOM     21  C   UNL     1       3.113   1.759  19.311  0.00  0.00    +0.000 C 
ATOM     22  C   UNL     1       1.696   2.152  18.896  0.00  0.00    +0.000 C 
ATOM     23  C   UNL     1       3.858   1.251  18.062  0.00  0.00    +0.000 C 
ENDBRANCH  20  21
ENDBRANCH   1  20
BRANCH   2  24
ATOM     24  C   UNL     1       2.740   6.605  19.701  0.00  0.00    +0.000 C 
BRANCH  24  25
ATOM     25  S   UNL     1       1.670   7.553  20.853  0.00  0.00    +0.000 S 
BRANCH  25  26
ATOM     26  C   UNL     1       1.258   9.011  19.831  0.00  0.00    +0.000 C 
BRANCH  26  27
ATOM     27  C   UNL     1       0.617  10.103  20.661  0.00  0.00    +0.000 A 
ATOM     28  C   UNL     1      -0.203   9.769  21.750  0.00  0.00    +0.000 A 
ATOM     29  C   UNL     1      -0.782  10.766  22.537  0.00  0.00    +0.000 A 
ATOM     30  C   UNL     1      -0.556  12.113  22.247  0.00  0.00    +0.000 A 
ATOM     31 CL   UNL     1      -1.295  13.293  23.270  0.00  0.00    +0.000 Cl
ATOM     32  C   UNL     1       0.251  12.461  21.157  0.00  0.00    +0.000 A 
ATOM     33 CL   UNL     1       0.580  14.106  20.741  0.00  0.00    +0.000 Cl
ATOM     34  C   UNL     1       0.831  11.459  20.367  0.00  0.00    +0.000 A 
ENDBRANCH  26  27
ENDBRANCH  25  26
ENDBRANCH  24  25
ENDBRANCH   2  24
TORSDOF 11
ENDMDL
MODEL 5
REMARK VINA RESULT:      -7.3      1.760      4.712
REMARK  Name = 
REMARK  14 active torsions:
REMARK  status: ('A' for Active; 'I' for Inactive)
REMARK    1  A    between atoms: C_1  and  C_2
REMARK    2  A    between atoms: C_2  and  C_3
REMARK    3  A    between atoms: C_3  and  C_4
REMARK    4  A    between atoms: C_4  and  N_5
REMARK    5  A    between atoms: C_6  and  N_7
REMARK    6  A    between atoms: C_8  and  N_9
REMARK    7  A    between atoms: N_9  and  C_10
REMARK    8  A    between atoms: C_10  and  C_11
REMARK    9  A    between atoms: C_11  and  C_12
REMARK   10  A    between atoms: C_11  and  C_13
REMARK   11  A    between atoms: C_14  and  C_16
REMARK   12  A    between atoms: C_16  and  S_17
REMARK   13  A    between atoms: S_17  and  C_18
REMARK   14  A    between atoms: C_18  and  C_19
REMARK                            x       y       z     vdW  Elec       q    Type
REMARK                         _______ _______ _______ _____ _____    ______ ____
ROOT
ATOM      1  N   UNL     1       4.640   5.371  16.669  0.00  0.00    +0.000 N 
ATOM      2  C   UNL     1       4.246   6.724  16.781  0.00  0.00    +0.000 C 
ATOM      3  O   UNL     1       4.252   7.447  15.777  0.00  0.00    +0.000 OA
ENDROOT
BRANCH   1   6
ATOM      4  N   UNL     1       3.304   2.824  18.996  0.00  0.00    +0.000 N 
ATOM      5  C   UNL     1       3.409   3.649  17.872  0.00  0.00    +0.000 A 
ATOM      6  C   UNL     1       4.503   4.440  17.710  0.00  0.00    +0.000 A 
ATOM      7  C   UNL     1       5.630   4.270  18.683  0.00  0.00    +0.000 A 
ATOM      8  O   UNL     1       6.602   5.020  18.691  0.00  0.00    +0.000 OA
ATOM      9  N   UNL     1       5.539   3.218  19.537  0.00  0.00    +0.000 N 
ATOM     10  C   UNL     1       4.390   2.544  19.816  0.00  0.00    +0.000 A 
ATOM     11  O   UNL     1       4.371   1.761  20.764  0.00  0.00    +0.000 OA
ATOM     12  H   UNL     1       6.297   3.070  20.185  0.00  0.00    +0.000 HD
BRANCH   5  13
ATOM     13  N   UNL     1       2.446   3.603  16.870  0.00  0.00    +0.000 N 
ATOM     14  H   UNL     1       2.306   4.495  16.412  0.00  0.00    +0.000 HD
ATOM     15  H   UNL     1       2.622   2.865  16.189  0.00  0.00    +0.000 HD
ENDBRANCH   5  13
BRANCH   4  16
ATOM     16  C   UNL     1       2.041   2.146  19.333  0.00  0.00    +0.000 C 
BRANCH  16  17
ATOM     17  C   UNL     1       1.309   2.753  20.547  0.00  0.00    +0.000 C 
BRANCH  17  19
ATOM     18  C   UNL     1       1.952   5.119  21.127  0.00  0.00    +0.000 C 
ATOM     19  C   UNL     1       0.958   4.234  20.385  0.00  0.00    +0.000 C 
ENDBRANCH  17  19
ENDBRANCH  16  17
ENDBRANCH   4  16
ENDBRANCH   1   6
BRANCH   1  20
ATOM     20  C   UNL     1       4.997   4.978  15.280  0.00  0.00    +0.000 C 
BRANCH  20  21
ATOM     21  C   UNL     1       6.252   4.144  14.942  0.00  0.00    +0.000 C 
ATOM     22  C   UNL     1       6.322   3.757  13.465  0.00  0.00    +0.000 C 
ATOM     23  C   UNL     1       7.533   4.924  15.296  0.00  0.00    +0.000 C 
ENDBRANCH  20  21
ENDBRANCH   1  20
BRANCH   2  24
ATOM     24  C   UNL     1       3.863   7.305  18.147  0.00  0.00    +0.000 C 
BRANCH  24  25
ATOM     25  S   UNL     1       2.050   7.510  18.354  0.00  0.00    +0.000 S 
BRANCH  25  26
ATOM     26  C   UNL     1       1.867   9.309  18.091  0.00  0.00    +0.000 C 
BRANCH  26  27
ATOM     27  C   UNL     1       0.983   9.935  19.148  0.00  0.00    +0.000 A 
ATOM     28  C   UNL     1       0.157  11.022  18.820  0.00  0.00    +0.000 A 
ATOM     29  C   UNL     1      -0.681  11.594  19.780  0.00  0.00    +0.000 A 
ATOM     30  C   UNL     1      -0.704  11.093  21.083  0.00  0.00    +0.000 A 
ATOM     31 CL   UNL     1      -1.773  11.843  22.215  0.00  0.00    +0.000 Cl
ATOM     32  C   UNL     1       0.121  10.017  21.426  0.00  0.00    +0.000 A 
ATOM     33 CL   UNL     1       0.141   9.340  23.017  0.00  0.00    +0.000 Cl
ATOM     34  C   UNL     1       0.963   9.444  20.463  0.00  0.00    +0.000 A 
ENDBRANCH  26  27
ENDBRANCH  25  26
ENDBRANCH  24  25
ENDBRANCH   2  24
TORSDOF 11
ENDMDL
MODEL 6
REMARK VINA RESULT:      -7.3      0.680      1.435
REMARK  Name = 
REMARK  14 active torsions:
REMARK  status: ('A' for Active; 'I' for Inactive)
REMARK    1  A    between atoms: C_1  and  C_2
REMARK    2  A    between atoms: C_2  and  C_3
REMARK    3  A    between atoms: C_3  and  C_4
REMARK    4  A    between atoms: C_4  and  N_5
REMARK    5  A    between atoms: C_6  and  N_7
REMARK    6  A    between atoms: C_8  and  N_9
REMARK    7  A    between atoms: N_9  and  C_10
REMARK    8  A    between atoms: C_10  and  C_11
REMARK    9  A    between atoms: C_11  and  C_12
REMARK   10  A    between atoms: C_11  and  C_13
REMARK   11  A    between atoms: C_14  and  C_16
REMARK   12  A    between atoms: C_16  and  S_17
REMARK   13  A    between atoms: S_17  and  C_18
REMARK   14  A    between atoms: C_18  and  C_19
REMARK                            x       y       z     vdW  Elec       q    Type
REMARK                         _______ _______ _______ _____ _____    ______ ____
ROOT
ATOM      1  N   UNL     1       3.611   4.755  19.248  0.00  0.00    +0.000 N 
ATOM      2  C   UNL     1       2.911   5.962  19.473  0.00  0.00    +0.000 C 
ATOM      3  O   UNL     1       2.065   6.019  20.374  0.00  0.00    +0.000 OA
ENDROOT
BRANCH   1   6
ATOM      4  N   UNL     1       5.735   4.044  16.303  0.00  0.00    +0.000 N 
ATOM      5  C   UNL     1       4.588   4.223  17.082  0.00  0.00    +0.000 A 
ATOM      6  C   UNL     1       4.699   4.648  18.369  0.00  0.00    +0.000 A 
ATOM      7  C   UNL     1       6.059   5.058  18.846  0.00  0.00    +0.000 A 
ATOM      8  O   UNL     1       6.280   5.337  20.021  0.00  0.00    +0.000 OA
ATOM      9  N   UNL     1       7.034   5.138  17.903  0.00  0.00    +0.000 N 
ATOM     10  C   UNL     1       6.972   4.556  16.674  0.00  0.00    +0.000 A 
ATOM     11  O   UNL     1       7.990   4.500  15.987  0.00  0.00    +0.000 OA
ATOM     12  H   UNL     1       7.952   5.434  18.197  0.00  0.00    +0.000 HD
BRANCH   5  13
ATOM     13  N   UNL     1       3.324   4.057  16.526  0.00  0.00    +0.000 N 
ATOM     14  H   UNL     1       3.133   3.102  16.251  0.00  0.00    +0.000 HD
ATOM     15  H   UNL     1       2.581   4.424  17.121  0.00  0.00    +0.000 HD
ENDBRANCH   5  13
BRANCH   4  16
ATOM     16  C   UNL     1       5.677   3.357  15.002  0.00  0.00    +0.000 C 
BRANCH  16  17
ATOM     17  C   UNL     1       5.804   4.301  13.790  0.00  0.00    +0.000 C 
BRANCH  17  19
ATOM     18  C   UNL     1       4.860   3.136  11.766  0.00  0.00    +0.000 C 
ATOM     19  C   UNL     1       6.130   3.587  12.476  0.00  0.00    +0.000 C 
ENDBRANCH  17  19
ENDBRANCH  16  17
ENDBRANCH   4  16
ENDBRANCH   1   6
BRANCH   1  20
ATOM     20  C   UNL     1       3.233   3.674  20.197  0.00  0.00    +0.000 C 
BRANCH  20  21
ATOM     21  C   UNL     1       2.363   2.466  19.786  0.00  0.00    +0.000 C 
ATOM     22  C   UNL     1       1.081   2.882  19.065  0.00  0.00    +0.000 C 
ATOM     23  C   UNL     1       3.151   1.520  18.859  0.00  0.00    +0.000 C 
ENDBRANCH  20  21
ENDBRANCH   1  20
BRANCH   2  24
ATOM     24  C   UNL     1       3.161   7.178  18.572  0.00  0.00    +0.000 C 
BRANCH  24  25
ATOM     25  S   UNL     1       1.612   7.901  17.901  0.00  0.00    +0.000 S 
BRANCH  25  26
ATOM     26  C   UNL     1       1.897   9.681  18.200  0.00  0.00    +0.000 C 
BRANCH  26  27
ATOM     27  C   UNL     1       0.959  10.220  19.259  0.00  0.00    +0.000 A 
ATOM     28  C   UNL     1       0.103  11.292  18.960  0.00  0.00    +0.000 A 
ATOM     29  C   UNL     1      -0.783  11.784  19.921  0.00  0.00    +0.000 A 
ATOM     30  C   UNL     1      -0.825  11.217  21.197  0.00  0.00    +0.000 A 
ATOM     31 CL   UNL     1      -1.953  11.870  22.331  0.00  0.00    +0.000 Cl
ATOM     32  C   UNL     1       0.031  10.156  21.511  0.00  0.00    +0.000 A 
ATOM     33 CL   UNL     1       0.031   9.401  23.067  0.00  0.00    +0.000 Cl
ATOM     34  C   UNL     1       0.920   9.663  20.547  0.00  0.00    +0.000 A 
ENDBRANCH  26  27
ENDBRANCH  25  26
ENDBRANCH  24  25
ENDBRANCH   2  24
TORSDOF 11
ENDMDL
MODEL 7
REMARK VINA RESULT:      -7.2      1.474      1.966
REMARK  Name = 
REMARK  14 active torsions:
REMARK  status: ('A' for Active; 'I' for Inactive)
REMARK    1  A    between atoms: C_1  and  C_2
REMARK    2  A    between atoms: C_2  and  C_3
REMARK    3  A    between atoms: C_3  and  C_4
REMARK    4  A    between atoms: C_4  and  N_5
REMARK    5  A    between atoms: C_6  and  N_7
REMARK    6  A    between atoms: C_8  and  N_9
REMARK    7  A    between atoms: N_9  and  C_10
REMARK    8  A    between atoms: C_10  and  C_11
REMARK    9  A    between atoms: C_11  and  C_12
REMARK   10  A    between atoms: C_11  and  C_13
REMARK   11  A    between atoms: C_14  and  C_16
REMARK   12  A    between atoms: C_16  and  S_17
REMARK   13  A    between atoms: S_17  and  C_18
REMARK   14  A    between atoms: C_18  and  C_19
REMARK                            x       y       z     vdW  Elec       q    Type
REMARK                         _______ _______ _______ _____ _____    ______ ____
ROOT
ATOM      1  N   UNL     1       3.599   4.779  19.230  0.00  0.00    +0.000 N 
ATOM      2  C   UNL     1       2.926   6.002  19.457  0.00  0.00    +0.000 C 
ATOM      3  O   UNL     1       2.061   6.068  20.339  0.00  0.00    +0.000 OA
ENDROOT
BRANCH   1   6
ATOM      4  N   UNL     1       5.778   4.035  16.335  0.00  0.00    +0.000 N 
ATOM      5  C   UNL     1       4.616   4.231  17.087  0.00  0.00    +0.000 A 
ATOM      6  C   UNL     1       4.705   4.657  18.375  0.00  0.00    +0.000 A 
ATOM      7  C   UNL     1       6.059   5.048  18.882  0.00  0.00    +0.000 A 
ATOM      8  O   UNL     1       6.258   5.327  20.062  0.00  0.00    +0.000 OA
ATOM      9  N   UNL     1       7.056   5.114  17.961  0.00  0.00    +0.000 N 
ATOM     10  C   UNL     1       7.013   4.531  16.732  0.00  0.00    +0.000 A 
ATOM     11  O   UNL     1       8.046   4.460  16.068  0.00  0.00    +0.000 OA
ATOM     12  H   UNL     1       7.971   5.398  18.275  0.00  0.00    +0.000 HD
BRANCH   5  13
ATOM     13  N   UNL     1       3.363   4.081  16.503  0.00  0.00    +0.000 N 
ATOM     14  H   UNL     1       2.602   4.306  17.132  0.00  0.00    +0.000 HD
ATOM     15  H   UNL     1       3.275   4.590  15.624  0.00  0.00    +0.000 HD
ENDBRANCH   5  13
BRANCH   4  16
ATOM     16  C   UNL     1       5.740   3.346  15.034  0.00  0.00    +0.000 C 
BRANCH  16  17
ATOM     17  C   UNL     1       5.750   4.299  13.821  0.00  0.00    +0.000 C 
BRANCH  17  19
ATOM     18  C   UNL     1       5.256   2.885  11.795  0.00  0.00    +0.000 C 
ATOM     19  C   UNL     1       6.320   3.676  12.545  0.00  0.00    +0.000 C 
ENDBRANCH  17  19
ENDBRANCH  16  17
ENDBRANCH   4  16
ENDBRANCH   1   6
BRANCH   1  20
ATOM     20  C   UNL     1       3.169   3.695  20.152  0.00  0.00    +0.000 C 
BRANCH  20  21
ATOM     21  C   UNL     1       2.295   2.506  19.696  0.00  0.00    +0.000 C 
ATOM     22  C   UNL     1       1.069   2.949  18.899  0.00  0.00    +0.000 C 
ATOM     23  C   UNL     1       3.113   1.535  18.823  0.00  0.00    +0.000 C 
ENDBRANCH  20  21
ENDBRANCH   1  20
BRANCH   2  24
ATOM     24  C   UNL     1       3.231   7.224  18.582  0.00  0.00    +0.000 C 
BRANCH  24  25
ATOM     25  S   UNL     1       1.721   7.979  17.858  0.00  0.00    +0.000 S 
BRANCH  25  26
ATOM     26  C   UNL     1       1.513   9.444  18.929  0.00  0.00    +0.000 C 
BRANCH  26  27
ATOM     27  C   UNL     1       0.126  10.037  18.790  0.00  0.00    +0.000 A 
ATOM     28  C   UNL     1      -0.350  10.942  19.751  0.00  0.00    +0.000 A 
ATOM     29  C   UNL     1      -1.618  11.514  19.624  0.00  0.00    +0.000 A 
ATOM     30  C   UNL     1      -2.431  11.187  18.536  0.00  0.00    +0.000 A 
ATOM     31 CL   UNL     1      -3.983  11.941  18.437  0.00  0.00    +0.000 Cl
ATOM     32  C   UNL     1      -1.973  10.278  17.577  0.00  0.00    +0.000 A 
ATOM     33 CL   UNL     1      -2.922   9.831  16.202  0.00  0.00    +0.000 Cl
ATOM     34  C   UNL     1      -0.701   9.704  17.706  0.00  0.00    +0.000 A 
ENDBRANCH  26  27
ENDBRANCH  25  26
ENDBRANCH  24  25
ENDBRANCH   2  24
TORSDOF 11
ENDMDL
MODEL 8
REMARK VINA RESULT:      -7.2      1.271      1.828
REMARK  Name = 
REMARK  14 active torsions:
REMARK  status: ('A' for Active; 'I' for Inactive)
REMARK    1  A    between atoms: C_1  and  C_2
REMARK    2  A    between atoms: C_2  and  C_3
REMARK    3  A    between atoms: C_3  and  C_4
REMARK    4  A    between atoms: C_4  and  N_5
REMARK    5  A    between atoms: C_6  and  N_7
REMARK    6  A    between atoms: C_8  and  N_9
REMARK    7  A    between atoms: N_9  and  C_10
REMARK    8  A    between atoms: C_10  and  C_11
REMARK    9  A    between atoms: C_11  and  C_12
REMARK   10  A    between atoms: C_11  and  C_13
REMARK   11  A    between atoms: C_14  and  C_16
REMARK   12  A    between atoms: C_16  and  S_17
REMARK   13  A    between atoms: S_17  and  C_18
REMARK   14  A    between atoms: C_18  and  C_19
REMARK                            x       y       z     vdW  Elec       q    Type
REMARK                         _______ _______ _______ _____ _____    ______ ____
ROOT
ATOM      1  N   UNL     1       3.958   4.406  19.346  0.00  0.00    +0.000 N 
ATOM      2  C   UNL     1       3.123   5.287  20.071  0.00  0.00    +0.000 C 
ATOM      3  O   UNL     1       2.429   4.847  20.997  0.00  0.00    +0.000 OA
ENDROOT
BRANCH   1   6
ATOM      4  N   UNL     1       5.692   5.214  16.179  0.00  0.00    +0.000 N 
ATOM      5  C   UNL     1       4.665   4.867  17.062  0.00  0.00    +0.000 A 
ATOM      6  C   UNL     1       4.900   4.841  18.401  0.00  0.00    +0.000 A 
ATOM      7  C   UNL     1       6.227   5.343  18.880  0.00  0.00    +0.000 A 
ATOM      8  O   UNL     1       6.576   5.245  20.054  0.00  0.00    +0.000 OA
ATOM      9  N   UNL     1       7.017   5.947  17.954  0.00  0.00    +0.000 N 
ATOM     10  C   UNL     1       6.866   5.821  16.607  0.00  0.00    +0.000 A 
ATOM     11  O   UNL     1       7.761   6.221  15.865  0.00  0.00    +0.000 OA
ATOM     12  H   UNL     1       7.905   6.314  18.258  0.00  0.00    +0.000 HD
BRANCH   5  13
ATOM     13  N   UNL     1       3.377   4.635  16.591  0.00  0.00    +0.000 N 
ATOM     14  H   UNL     1       3.342   4.479  15.592  0.00  0.00    +0.000 HD
ATOM     15  H   UNL     1       2.902   3.887  17.097  0.00  0.00    +0.000 HD
ENDBRANCH   5  13
BRANCH   4  16
ATOM     16  C   UNL     1       5.552   5.017  14.727  0.00  0.00    +0.000 C 
BRANCH  16  17
ATOM     17  C   UNL     1       6.119   3.675  14.220  0.00  0.00    +0.000 C 
BRANCH  17  19
ATOM     18  C   UNL     1       5.056   3.263  11.974  0.00  0.00    +0.000 C 
ATOM     19  C   UNL     1       6.341   3.625  12.707  0.00  0.00    +0.000 C 
ENDBRANCH  17  19
ENDBRANCH  16  17
ENDBRANCH   4  16
ENDBRANCH   1   6
BRANCH   1  20
ATOM     20  C   UNL     1       3.903   3.006  19.843  0.00  0.00    +0.000 C 
BRANCH  20  21
ATOM     21  C   UNL     1       3.059   1.907  19.160  0.00  0.00    +0.000 C 
ATOM     22  C   UNL     1       1.695   2.417  18.696  0.00  0.00    +0.000 C 
ATOM     23  C   UNL     1       3.801   1.336  17.936  0.00  0.00    +0.000 C 
ENDBRANCH  20  21
ENDBRANCH   1  20
BRANCH   2  24
ATOM     24  C   UNL     1       3.040   6.767  19.681  0.00  0.00    +0.000 C 
BRANCH  24  25
ATOM     25  S   UNL     1       1.792   7.092  18.373  0.00  0.00    +0.000 S 
BRANCH  25  26
ATOM     26  C   UNL     1       2.080   8.867  18.046  0.00  0.00    +0.000 C 
BRANCH  26  27
ATOM     27  C   UNL     1       0.902   9.708  18.487  0.00  0.00    +0.000 A 
ATOM     28  C   UNL     1      -0.266   9.744  17.709  0.00  0.00    +0.000 A 
ATOM     29  C   UNL     1      -1.369  10.498  18.116  0.00  0.00    +0.000 A 
ATOM     30  C   UNL     1      -1.322  11.231  19.304  0.00  0.00    +0.000 A 
ATOM     31 CL   UNL     1      -2.727  12.132  19.750  0.00  0.00    +0.000 Cl
ATOM     32  C   UNL     1      -0.160  11.213  20.083  0.00  0.00    +0.000 A 
ATOM     33 CL   UNL     1      -0.031  12.091  21.567  0.00  0.00    +0.000 Cl
ATOM     34  C   UNL     1       0.947  10.457  19.673  0.00  0.00    +0.000 A 
ENDBRANCH  26  27
ENDBRANCH  25  26
ENDBRANCH  24  25
ENDBRANCH   2  24
TORSDOF 11
ENDMDL
MODEL 9
REMARK VINA RESULT:      -7.1      1.831      4.463
REMARK  Name = 
REMARK  14 active torsions:
REMARK  status: ('A' for Active; 'I' for Inactive)
REMARK    1  A    between atoms: C_1  and  C_2
REMARK    2  A    between atoms: C_2  and  C_3
REMARK    3  A    between atoms: C_3  and  C_4
REMARK    4  A    between atoms: C_4  and  N_5
REMARK    5  A    between atoms: C_6  and  N_7
REMARK    6  A    between atoms: C_8  and  N_9
REMARK    7  A    between atoms: N_9  and  C_10
REMARK    8  A    between atoms: C_10  and  C_11
REMARK    9  A    between atoms: C_11  and  C_12
REMARK   10  A    between atoms: C_11  and  C_13
REMARK   11  A    between atoms: C_14  and  C_16
REMARK   12  A    between atoms: C_16  and  S_17
REMARK   13  A    between atoms: S_17  and  C_18
REMARK   14  A    between atoms: C_18  and  C_19
REMARK                            x       y       z     vdW  Elec       q    Type
REMARK                         _______ _______ _______ _____ _____    ______ ____
ROOT
ATOM      1  N   UNL     1       4.268   6.048  17.379  0.00  0.00    +0.000 N 
ATOM      2  C   UNL     1       3.418   7.136  17.685  0.00  0.00    +0.000 C 
ATOM      3  O   UNL     1       3.306   8.069  16.879  0.00  0.00    +0.000 OA
ENDROOT
BRANCH   1   6
ATOM      4  N   UNL     1       3.454   2.811  18.974  0.00  0.00    +0.000 N 
ATOM      5  C   UNL     1       3.380   3.899  18.099  0.00  0.00    +0.000 A 
ATOM      6  C   UNL     1       4.324   4.876  18.148  0.00  0.00    +0.000 A 
ATOM      7  C   UNL     1       5.501   4.656  19.048  0.00  0.00    +0.000 A 
ATOM      8  O   UNL     1       6.339   5.531  19.251  0.00  0.00    +0.000 OA
ATOM      9  N   UNL     1       5.615   3.422  19.605  0.00  0.00    +0.000 N 
ATOM     10  C   UNL     1       4.602   2.518  19.699  0.00  0.00    +0.000 A 
ATOM     11  O   UNL     1       4.748   1.530  20.415  0.00  0.00    +0.000 OA
ATOM     12  H   UNL     1       6.412   3.244  20.197  0.00  0.00    +0.000 HD
BRANCH   5  13
ATOM     13  N   UNL     1       2.398   3.948  17.115  0.00  0.00    +0.000 N 
ATOM     14  H   UNL     1       2.356   4.840  16.639  0.00  0.00    +0.000 HD
ATOM     15  H   UNL     1       2.472   3.179  16.447  0.00  0.00    +0.000 HD
ENDBRANCH   5  13
BRANCH   4  16
ATOM     16  C   UNL     1       2.332   1.870  19.122  0.00  0.00    +0.000 C 
BRANCH  16  17
ATOM     17  C   UNL     1       1.367   2.222  20.273  0.00  0.00    +0.000 C 
BRANCH  17  19
ATOM     18  C   UNL     1       2.022   4.363  21.427  0.00  0.00    +0.000 C 
ATOM     19  C   UNL     1       1.086   3.720  20.412  0.00  0.00    +0.000 C 
ENDBRANCH  17  19
ENDBRANCH  16  17
ENDBRANCH   4  16
ENDBRANCH   1   6
BRANCH   1  20
ATOM     20  C   UNL     1       4.920   6.172  16.048  0.00  0.00    +0.000 C 
BRANCH  20  21
ATOM     21  C   UNL     1       5.751   5.034  15.415  0.00  0.00    +0.000 C 
ATOM     22  C   UNL     1       5.623   4.990  13.893  0.00  0.00    +0.000 C 
ATOM     23  C   UNL     1       7.242   5.190  15.769  0.00  0.00    +0.000 C 
ENDBRANCH  20  21
ENDBRANCH   1  20
BRANCH   2  24
ATOM     24  C   UNL     1       2.679   7.184  19.027  0.00  0.00    +0.000 C 
BRANCH  24  25
ATOM     25  S   UNL     1       1.663   8.701  19.231  0.00  0.00    +0.000 S 
BRANCH  25  26
ATOM     26  C   UNL     1       1.041   8.481  20.935  0.00  0.00    +0.000 C 
BRANCH  26  27
ATOM     27  C   UNL     1       0.138   9.625  21.344  0.00  0.00    +0.000 A 
ATOM     28  C   UNL     1      -0.272   9.752  22.681  0.00  0.00    +0.000 A 
ATOM     29  C   UNL     1      -1.087  10.815  23.077  0.00  0.00    +0.000 A 
ATOM     30  C   UNL     1      -1.509  11.765  22.144  0.00  0.00    +0.000 A 
ATOM     31 CL   UNL     1      -2.506  13.059  22.707  0.00  0.00    +0.000 Cl
ATOM     32  C   UNL     1      -1.116  11.644  20.806  0.00  0.00    +0.000 A 
ATOM     33 CL   UNL     1      -1.594  12.784  19.598  0.00  0.00    +0.000 Cl
ATOM     34  C   UNL     1      -0.299  10.576  20.409  0.00  0.00    +0.000 A 
ENDBRANCH  26  27
ENDBRANCH  25  26
ENDBRANCH  24  25
ENDBRANCH   2  24
TORSDOF 11
ENDMDL
