MODEL 1
REMARK VINA RESULT:      -9.1      0.000      0.000
REMARK  Name = 
REMARK  9 active torsions:
REMARK  status: ('A' for Active; 'I' for Inactive)
REMARK    1  A    between atoms: C_4  and  C_5
REMARK    2  A    between atoms: C_5  and  C_6
REMARK    3  A    between atoms: C_6  and  N_7
REMARK    4  A    between atoms: N_7  and  C_8
REMARK    5  A    between atoms: C_8  and  C_9
REMARK    6  A    between atoms: C_12  and  C_13
REMARK    7  A    between atoms: C_17  and  C_18
REMARK    8  A    between atoms: C_18  and  N_19
REMARK    9  A    between atoms: N_19  and  C_20
REMARK                            x       y       z     vdW  Elec       q    Type
REMARK                         _______ _______ _______ _____ _____    ______ ____
ROOT
ATOM      1  C   UNL     1       0.634   9.539  20.890  0.00  0.00    +0.000 A 
ATOM      2  C   UNL     1       0.346   9.112  22.198  0.00  0.00    +0.000 A 
ATOM      3  C   UNL     1      -0.446   9.873  23.059  0.00  0.00    +0.000 A 
ATOM      4  C   UNL     1      -0.970  11.087  22.629  0.00  0.00    +0.000 A 
ATOM      5  C   UNL     1      -0.699  11.555  21.336  0.00  0.00    +0.000 A 
ATOM      6  C   UNL     1       0.108  10.778  20.484  0.00  0.00    +0.000 A 
ENDROOT
BRANCH   1  10
ATOM      7  C   UNL     1       2.999   7.096  18.204  0.00  0.00    +0.000 A 
ATOM      8  C   UNL     1       2.439   8.303  17.772  0.00  0.00    +0.000 A 
ATOM      9  C   UNL     1       1.687   9.090  18.648  0.00  0.00    +0.000 A 
ATOM     10  C   UNL     1       1.433   8.688  19.973  0.00  0.00    +0.000 A 
ATOM     11  C   UNL     1       1.980   7.461  20.383  0.00  0.00    +0.000 A 
ATOM     12  C   UNL     1       2.760   6.681  19.518  0.00  0.00    +0.000 A 
BRANCH   7  13
ATOM     13  C   UNL     1       3.836   6.261  17.267  0.00  0.00    +0.000 C 
BRANCH  13  14
ATOM     14  N   UNL     1       4.289   5.032  17.920  0.00  0.00    +0.000 NA
ATOM     15  H   UNL     1       5.293   5.097  18.090  0.00  0.00    +0.000 HD
BRANCH  14  16
ATOM     16  C   UNL     1       4.003   3.868  17.082  0.00  0.00    +0.000 C 
BRANCH  16  17
ATOM     17  C   UNL     1       2.561   3.393  17.286  0.00  0.00    +0.000 C 
BRANCH  17  21
ATOM     18  C   UNL     1       1.862   2.908  21.508  0.00  0.00    +0.000 A 
ATOM     19  C   UNL     1       0.841   3.378  20.686  0.00  0.00    +0.000 A 
ATOM     20  C   UNL     1       1.056   3.508  19.314  0.00  0.00    +0.000 A 
ATOM     21  C   UNL     1       2.293   3.166  18.752  0.00  0.00    +0.000 A 
ATOM     22  C   UNL     1       3.313   2.689  19.586  0.00  0.00    +0.000 A 
ATOM     23  C   UNL     1       3.095   2.555  20.957  0.00  0.00    +0.000 A 
ENDBRANCH  17  21
ENDBRANCH  16  17
ENDBRANCH  14  16
ENDBRANCH  13  14
ENDBRANCH   7  13
ENDBRANCH   1  10
BRANCH   5  24
ATOM     24  C   UNL     1      -1.260  12.887  20.888  0.00  0.00    +0.000 C 
BRANCH  24  25
ATOM     25  N   UNL     1      -2.454  12.670  20.098  0.00  0.00    +0.000 N 
ATOM     26  H   UNL     1      -2.349  12.778  19.095  0.00  0.00    +0.000 HD
BRANCH  25  27
ATOM     27  C   UNL     1      -3.742  12.767  20.591  0.00  0.00    +0.000 A 
ATOM     28  C   UNL     1      -4.797  12.440  19.733  0.00  0.00    +0.000 A 
ATOM     29  C   UNL     1      -6.100  12.279  20.210  0.00  0.00    +0.000 A 
ATOM     30  C   UNL     1      -6.404  12.448  21.547  0.00  0.00    +0.000 A 
ATOM     31  N   UNL     1      -7.633  12.135  21.990  0.00  0.00    +0.000 NA
ATOM     32  C   UNL     1      -7.906  12.341  23.295  0.00  0.00    +0.000 A 
ATOM     33  C   UNL     1      -7.042  12.973  24.166  0.00  0.00    +0.000 A 
ATOM     34  C   UNL     1      -5.762  13.268  23.710  0.00  0.00    +0.000 A 
ATOM     35  C   UNL     1      -5.392  12.933  22.398  0.00  0.00    +0.000 A 
ATOM     36  C   UNL     1      -4.063  13.039  21.924  0.00  0.00    +0.000 A 
ENDBRANCH  25  27
ENDBRANCH  24  25
ENDBRANCH   5  24
TORSDOF 9
ENDMDL
MODEL 2
REMARK VINA RESULT:      -9.0      3.056      5.472
REMARK  Name = 
REMARK  9 active torsions:
REMARK  status: ('A' for Active; 'I' for Inactive)
REMARK    1  A    between atoms: C_4  and  C_5
REMARK    2  A    between atoms: C_5  and  C_6
REMARK    3  A    between atoms: C_6  and  N_7
REMARK    4  A    between atoms: N_7  and  C_8
REMARK    5  A    between atoms: C_8  and  C_9
REMARK    6  A    between atoms: C_12  and  C_13
REMARK    7  A    between atoms: C_17  and  C_18
REMARK    8  A    between atoms: C_18  and  N_19
REMARK    9  A    between atoms: N_19  and  C_20
REMARK                            x       y       z     vdW  Elec       q    Type
REMARK                         _______ _______ _______ _____ _____    ______ ____
ROOT
ATOM      1  C   UNL     1       0.883   9.196  20.667  0.00  0.00    +0.000 A 
ATOM      2  C   UNL     1       0.579   8.785  21.977  0.00  0.00    +0.000 A 
ATOM      3  C   UNL     1      -0.228   9.554  22.817  0.00  0.00    +0.000 A 
ATOM      4  C   UNL     1      -0.752  10.759  22.364  0.00  0.00    +0.000 A 
ATOM      5  C   UNL     1      -0.466  11.211  21.069  0.00  0.00    +0.000 A 
ATOM      6  C   UNL     1       0.356  10.427  20.237  0.00  0.00    +0.000 A 
ENDROOT
BRANCH   1  10
ATOM      7  C   UNL     1       3.298   6.727  18.051  0.00  0.00    +0.000 A 
ATOM      8  C   UNL     1       2.863   7.994  17.644  0.00  0.00    +0.000 A 
ATOM      9  C   UNL     1       2.094   8.787  18.498  0.00  0.00    +0.000 A 
ATOM     10  C   UNL     1       1.698   8.337  19.772  0.00  0.00    +0.000 A 
ATOM     11  C   UNL     1       2.122   7.054  20.154  0.00  0.00    +0.000 A 
ATOM     12  C   UNL     1       2.918   6.264  19.314  0.00  0.00    +0.000 A 
BRANCH   7  13
ATOM     13  C   UNL     1       4.155   5.883  17.140  0.00  0.00    +0.000 C 
BRANCH  13  14
ATOM     14  N   UNL     1       4.531   4.626  17.788  0.00  0.00    +0.000 NA
ATOM     15  H   UNL     1       5.547   4.578  17.854  0.00  0.00    +0.000 HD
BRANCH  14  16
ATOM     16  C   UNL     1       4.030   3.483  17.026  0.00  0.00    +0.000 C 
BRANCH  16  17
ATOM     17  C   UNL     1       3.821   2.270  17.940  0.00  0.00    +0.000 C 
BRANCH  17  21
ATOM     18  C   UNL     1       1.151   3.134  21.207  0.00  0.00    +0.000 A 
ATOM     19  C   UNL     1       2.503   2.911  21.456  0.00  0.00    +0.000 A 
ATOM     20  C   UNL     1       3.375   2.661  20.397  0.00  0.00    +0.000 A 
ATOM     21  C   UNL     1       2.902   2.633  19.078  0.00  0.00    +0.000 A 
ATOM     22  C   UNL     1       1.541   2.863  18.836  0.00  0.00    +0.000 A 
ATOM     23  C   UNL     1       0.672   3.119  19.896  0.00  0.00    +0.000 A 
ENDBRANCH  17  21
ENDBRANCH  16  17
ENDBRANCH  14  16
ENDBRANCH  13  14
ENDBRANCH   7  13
ENDBRANCH   1  10
BRANCH   5  24
ATOM     24  C   UNL     1      -1.027  12.534  20.595  0.00  0.00    +0.000 C 
BRANCH  24  25
ATOM     25  N   UNL     1      -0.602  12.783  19.233  0.00  0.00    +0.000 N 
ATOM     26  H   UNL     1      -0.726  12.015  18.582  0.00  0.00    +0.000 HD
BRANCH  25  27
ATOM     27  C   UNL     1       0.314  13.752  18.867  0.00  0.00    +0.000 A 
ATOM     28  C   UNL     1      -0.107  15.085  18.874  0.00  0.00    +0.000 A 
ATOM     29  C   UNL     1       0.805  16.137  18.754  0.00  0.00    +0.000 A 
ATOM     30  C   UNL     1       2.159  15.903  18.611  0.00  0.00    +0.000 A 
ATOM     31  N   UNL     1       3.016  16.937  18.654  0.00  0.00    +0.000 NA
ATOM     32  C   UNL     1       4.328  16.678  18.480  0.00  0.00    +0.000 A 
ATOM     33  C   UNL     1       4.823  15.437  18.132  0.00  0.00    +0.000 A 
ATOM     34  C   UNL     1       3.936  14.366  18.119  0.00  0.00    +0.000 A 
ATOM     35  C   UNL     1       2.586  14.572  18.441  0.00  0.00    +0.000 A 
ATOM     36  C   UNL     1       1.669  13.510  18.620  0.00  0.00    +0.000 A 
ENDBRANCH  25  27
ENDBRANCH  24  25
ENDBRANCH   5  24
TORSDOF 9
ENDMDL
MODEL 3
REMARK VINA RESULT:      -9.0      2.181     10.958
REMARK  Name = 
REMARK  9 active torsions:
REMARK  status: ('A' for Active; 'I' for Inactive)
REMARK    1  A    between atoms: C_4  and  C_5
REMARK    2  A    between atoms: C_5  and  C_6
REMARK    3  A    between atoms: C_6  and  N_7
REMARK    4  A    between atoms: N_7  and  C_8
REMARK    5  A    between atoms: C_8  and  C_9
REMARK    6  A    between atoms: C_12  and  C_13
REMARK    7  A    between atoms: C_17  and  C_18
REMARK    8  A    between atoms: C_18  and  N_19
REMARK    9  A    between atoms: N_19  and  C_20
REMARK                            x       y       z     vdW  Elec       q    Type
REMARK                         _______ _______ _______ _____ _____    ______ ____
ROOT
ATOM      1  C   UNL     1       2.018   5.522  20.014  0.00  0.00    +0.000 A 
ATOM      2  C   UNL     1       2.118   4.801  21.217  0.00  0.00    +0.000 A 
ATOM      3  C   UNL     1       2.460   3.448  21.233  0.00  0.00    +0.000 A 
ATOM      4  C   UNL     1       2.711   2.781  20.039  0.00  0.00    +0.000 A 
ATOM      5  C   UNL     1       2.612   3.459  18.817  0.00  0.00    +0.000 A 
ATOM      6  C   UNL     1       2.258   4.821  18.818  0.00  0.00    +0.000 A 
ENDROOT
BRANCH   1  10
ATOM      7  C   UNL     1       1.077   9.752  19.996  0.00  0.00    +0.000 A 
ATOM      8  C   UNL     1       1.700   9.149  18.897  0.00  0.00    +0.000 A 
ATOM      9  C   UNL     1       1.990   7.783  18.907  0.00  0.00    +0.000 A 
ATOM     10  C   UNL     1       1.705   6.973  20.023  0.00  0.00    +0.000 A 
ATOM     11  C   UNL     1       1.104   7.599  21.127  0.00  0.00    +0.000 A 
ATOM     12  C   UNL     1       0.784   8.963  21.113  0.00  0.00    +0.000 A 
BRANCH   7  13
ATOM     13  C   UNL     1       0.738  11.221  19.973  0.00  0.00    +0.000 C 
BRANCH  13  14
ATOM     14  N   UNL     1       1.059  11.855  21.252  0.00  0.00    +0.000 NA
ATOM     15  H   UNL     1       1.275  11.131  21.937  0.00  0.00    +0.000 HD
BRANCH  14  16
ATOM     16  C   UNL     1      -0.065  12.663  21.724  0.00  0.00    +0.000 C 
BRANCH  16  17
ATOM     17  C   UNL     1      -0.969  11.846  22.653  0.00  0.00    +0.000 C 
BRANCH  17  21
ATOM     18  C   UNL     1      -5.021  13.239  22.215  0.00  0.00    +0.000 A 
ATOM     19  C   UNL     1      -4.196  13.144  21.097  0.00  0.00    +0.000 A 
ATOM     20  C   UNL     1      -2.893  12.665  21.232  0.00  0.00    +0.000 A 
ATOM     21  C   UNL     1      -2.405  12.275  22.486  0.00  0.00    +0.000 A 
ATOM     22  C   UNL     1      -3.243  12.369  23.604  0.00  0.00    +0.000 A 
ATOM     23  C   UNL     1      -4.548  12.843  23.467  0.00  0.00    +0.000 A 
ENDBRANCH  17  21
ENDBRANCH  16  17
ENDBRANCH  14  16
ENDBRANCH  13  14
ENDBRANCH   7  13
ENDBRANCH   1  10
BRANCH   5  24
ATOM     24  C   UNL     1       2.868   2.716  17.524  0.00  0.00    +0.000 C 
BRANCH  24  25
ATOM     25  N   UNL     1       4.295   2.628  17.290  0.00  0.00    +0.000 N 
ATOM     26  H   UNL     1       4.741   1.766  17.586  0.00  0.00    +0.000 HD
BRANCH  25  27
ATOM     27  C   UNL     1       5.126   3.720  17.122  0.00  0.00    +0.000 A 
ATOM     28  C   UNL     1       4.949   4.506  15.980  0.00  0.00    +0.000 A 
ATOM     29  C   UNL     1       5.573   5.750  15.849  0.00  0.00    +0.000 A 
ATOM     30  C   UNL     1       6.400   6.249  16.837  0.00  0.00    +0.000 A 
ATOM     31  N   UNL     1       6.855   7.509  16.743  0.00  0.00    +0.000 NA
ATOM     32  C   UNL     1       7.685   7.955  17.708  0.00  0.00    +0.000 A 
ATOM     33  C   UNL     1       8.193   7.153  18.709  0.00  0.00    +0.000 A 
ATOM     34  C   UNL     1       7.695   5.859  18.819  0.00  0.00    +0.000 A 
ATOM     35  C   UNL     1       6.718   5.407  17.919  0.00  0.00    +0.000 A 
ATOM     36  C   UNL     1       6.041   4.174  18.076  0.00  0.00    +0.000 A 
ENDBRANCH  25  27
ENDBRANCH  24  25
ENDBRANCH   5  24
TORSDOF 9
ENDMDL
MODEL 4
REMARK VINA RESULT:      -8.9      2.920      5.450
REMARK  Name = 
REMARK  9 active torsions:
REMARK  status: ('A' for Active; 'I' for Inactive)
REMARK    1  A    between atoms: C_4  and  C_5
REMARK    2  A    between atoms: C_5  and  C_6
REMARK    3  A    between atoms: C_6  and  N_7
REMARK    4  A    between atoms: N_7  and  C_8
REMARK    5  A    between atoms: C_8  and  C_9
REMARK    6  A    between atoms: C_12  and  C_13
REMARK    7  A    between atoms: C_17  and  C_18
REMARK    8  A    between atoms: C_18  and  N_19
REMARK    9  A    between atoms: N_19  and  C_20
REMARK                            x       y       z     vdW  Elec       q    Type
REMARK                         _______ _______ _______ _____ _____    ______ ____
ROOT
ATOM      1  C   UNL     1       0.250   9.974  20.953  0.00  0.00    +0.000 A 
ATOM      2  C   UNL     1      -0.104   9.572  22.253  0.00  0.00    +0.000 A 
ATOM      3  C   UNL     1      -0.920  10.360  23.066  0.00  0.00    +0.000 A 
ATOM      4  C   UNL     1      -1.402  11.576  22.596  0.00  0.00    +0.000 A 
ATOM      5  C   UNL     1      -1.064  12.020  21.310  0.00  0.00    +0.000 A 
ATOM      6  C   UNL     1      -0.234  11.216  20.506  0.00  0.00    +0.000 A 
ENDROOT
BRANCH   1  10
ATOM      7  C   UNL     1       2.621   7.369  18.430  0.00  0.00    +0.000 A 
ATOM      8  C   UNL     1       2.377   7.045  19.769  0.00  0.00    +0.000 A 
ATOM      9  C   UNL     1       1.603   7.885  20.572  0.00  0.00    +0.000 A 
ATOM     10  C   UNL     1       1.073   9.095  20.085  0.00  0.00    +0.000 A 
ATOM     11  C   UNL     1       1.350   9.418  18.746  0.00  0.00    +0.000 A 
ATOM     12  C   UNL     1       2.102   8.566  17.927  0.00  0.00    +0.000 A 
BRANCH   7  13
ATOM     13  C   UNL     1       3.433   6.446  17.555  0.00  0.00    +0.000 C 
BRANCH  13  14
ATOM     14  N   UNL     1       4.566   5.885  18.292  0.00  0.00    +0.000 NA
ATOM     15  H   UNL     1       5.408   6.408  18.054  0.00  0.00    +0.000 HD
BRANCH  14  16
ATOM     16  C   UNL     1       4.750   4.473  17.956  0.00  0.00    +0.000 C 
BRANCH  16  17
ATOM     17  C   UNL     1       3.401   3.798  17.689  0.00  0.00    +0.000 C 
BRANCH  17  21
ATOM     18  C   UNL     1       1.383   2.770  21.352  0.00  0.00    +0.000 A 
ATOM     19  C   UNL     1       2.766   2.635  21.261  0.00  0.00    +0.000 A 
ATOM     20  C   UNL     1       3.426   2.995  20.086  0.00  0.00    +0.000 A 
ATOM     21  C   UNL     1       2.706   3.496  18.992  0.00  0.00    +0.000 A 
ATOM     22  C   UNL     1       1.316   3.633  19.094  0.00  0.00    +0.000 A 
ATOM     23  C   UNL     1       0.659   3.278  20.273  0.00  0.00    +0.000 A 
ENDBRANCH  17  21
ENDBRANCH  16  17
ENDBRANCH  14  16
ENDBRANCH  13  14
ENDBRANCH   7  13
ENDBRANCH   1  10
BRANCH   5  24
ATOM     24  C   UNL     1      -1.579  13.355  20.818  0.00  0.00    +0.000 C 
BRANCH  24  25
ATOM     25  N   UNL     1      -1.209  13.537  19.429  0.00  0.00    +0.000 N 
ATOM     26  H   UNL     1      -1.497  12.802  18.793  0.00  0.00    +0.000 HD
BRANCH  25  27
ATOM     27  C   UNL     1      -0.174  14.346  18.999  0.00  0.00    +0.000 A 
ATOM     28  C   UNL     1      -0.402  15.724  18.943  0.00  0.00    +0.000 A 
ATOM     29  C   UNL     1       0.646  16.629  18.754  0.00  0.00    +0.000 A 
ATOM     30  C   UNL     1       1.951  16.198  18.601  0.00  0.00    +0.000 A 
ATOM     31  N   UNL     1       2.946  17.100  18.577  0.00  0.00    +0.000 NA
ATOM     32  C   UNL     1       4.203  16.649  18.395  0.00  0.00    +0.000 A 
ATOM     33  C   UNL     1       4.509  15.335  18.105  0.00  0.00    +0.000 A 
ATOM     34  C   UNL     1       3.480  14.402  18.162  0.00  0.00    +0.000 A 
ATOM     35  C   UNL     1       2.181  14.813  18.494  0.00  0.00    +0.000 A 
ATOM     36  C   UNL     1       1.127  13.902  18.743  0.00  0.00    +0.000 A 
ENDBRANCH  25  27
ENDBRANCH  24  25
ENDBRANCH   5  24
TORSDOF 9
ENDMDL
MODEL 5
REMARK VINA RESULT:      -8.9      2.529     10.821
REMARK  Name = 
REMARK  9 active torsions:
REMARK  status: ('A' for Active; 'I' for Inactive)
REMARK    1  A    between atoms: C_4  and  C_5
REMARK    2  A    between atoms: C_5  and  C_6
REMARK    3  A    between atoms: C_6  and  N_7
REMARK    4  A    between atoms: N_7  and  C_8
REMARK    5  A    between atoms: C_8  and  C_9
REMARK    6  A    between atoms: C_12  and  C_13
REMARK    7  A    between atoms: C_17  and  C_18
REMARK    8  A    between atoms: C_18  and  N_19
REMARK    9  A    between atoms: N_19  and  C_20
REMARK                            x       y       z     vdW  Elec       q    Type
REMARK                         _______ _______ _______ _____ _____    ______ ____
ROOT
ATOM      1  C   UNL     1       2.095   5.525  19.927  0.00  0.00    +0.000 A 
ATOM      2  C   UNL     1       2.128   4.866  21.169  0.00  0.00    +0.000 A 
ATOM      3  C   UNL     1       2.445   3.511  21.271  0.00  0.00    +0.000 A 
ATOM      4  C   UNL     1       2.737   2.778  20.126  0.00  0.00    +0.000 A 
ATOM      5  C   UNL     1       2.705   3.393  18.867  0.00  0.00    +0.000 A 
ATOM      6  C   UNL     1       2.376   4.759  18.782  0.00  0.00    +0.000 A 
ENDROOT
BRANCH   1  10
ATOM      7  C   UNL     1       1.231   9.762  19.649  0.00  0.00    +0.000 A 
ATOM      8  C   UNL     1       1.835   9.080  18.587  0.00  0.00    +0.000 A 
ATOM      9  C   UNL     1       2.100   7.713  18.681  0.00  0.00    +0.000 A 
ATOM     10  C   UNL     1       1.809   6.979  19.847  0.00  0.00    +0.000 A 
ATOM     11  C   UNL     1       1.226   7.684  20.913  0.00  0.00    +0.000 A 
ATOM     12  C   UNL     1       0.932   9.050  20.815  0.00  0.00    +0.000 A 
BRANCH   7  13
ATOM     13  C   UNL     1       0.918  11.233  19.536  0.00  0.00    +0.000 C 
BRANCH  13  14
ATOM     14  N   UNL     1       0.309  11.542  18.241  0.00  0.00    +0.000 NA
ATOM     15  H   UNL     1       0.458  12.529  18.032  0.00  0.00    +0.000 HD
BRANCH  14  16
ATOM     16  C   UNL     1      -1.124  11.252  18.263  0.00  0.00    +0.000 C 
BRANCH  16  17
ATOM     17  C   UNL     1      -1.869  12.257  19.147  0.00  0.00    +0.000 C 
BRANCH  17  21
ATOM     18  C   UNL     1      -6.132  11.742  18.811  0.00  0.00    +0.000 A 
ATOM     19  C   UNL     1      -5.291  11.219  17.833  0.00  0.00    +0.000 A 
ATOM     20  C   UNL     1      -3.909  11.358  17.954  0.00  0.00    +0.000 A 
ATOM     21  C   UNL     1      -3.356  12.021  19.058  0.00  0.00    +0.000 A 
ATOM     22  C   UNL     1      -4.209  12.540  20.041  0.00  0.00    +0.000 A 
ATOM     23  C   UNL     1      -5.591  12.394  19.920  0.00  0.00    +0.000 A 
ENDBRANCH  17  21
ENDBRANCH  16  17
ENDBRANCH  14  16
ENDBRANCH  13  14
ENDBRANCH   7  13
ENDBRANCH   1  10
BRANCH   5  24
ATOM     24  C   UNL     1       3.005   2.579  17.627  0.00  0.00    +0.000 C 
BRANCH  24  25
ATOM     25  N   UNL     1       4.435   2.564  17.391  0.00  0.00    +0.000 N 
ATOM     26  H   UNL     1       4.929   1.740  17.713  0.00  0.00    +0.000 HD
BRANCH  25  27
ATOM     27  C   UNL     1       5.202   3.696  17.185  0.00  0.00    +0.000 A 
ATOM     28  C   UNL     1       4.924   4.479  16.061  0.00  0.00    +0.000 A 
ATOM     29  C   UNL     1       5.479   5.751  15.905  0.00  0.00    +0.000 A 
ATOM     30  C   UNL     1       6.337   6.284  16.849  0.00  0.00    +0.000 A 
ATOM     31  N   UNL     1       6.726   7.565  16.740  0.00  0.00    +0.000 NA
ATOM     32  C   UNL     1       7.587   8.045  17.660  0.00  0.00    +0.000 A 
ATOM     33  C   UNL     1       8.188   7.262  18.624  0.00  0.00    +0.000 A 
ATOM     34  C   UNL     1       7.759   5.946  18.752  0.00  0.00    +0.000 A 
ATOM     35  C   UNL     1       6.755   5.452  17.905  0.00  0.00    +0.000 A 
ATOM     36  C   UNL     1       6.147   4.188  18.090  0.00  0.00    +0.000 A 
ENDBRANCH  25  27
ENDBRANCH  24  25
ENDBRANCH   5  24
TORSDOF 9
ENDMDL
MODEL 6
REMARK VINA RESULT:      -8.9      1.733      2.472
REMARK  Name = 
REMARK  9 active torsions:
REMARK  status: ('A' for Active; 'I' for Inactive)
REMARK    1  A    between atoms: C_4  and  C_5
REMARK    2  A    between atoms: C_5  and  C_6
REMARK    3  A    between atoms: C_6  and  N_7
REMARK    4  A    between atoms: N_7  and  C_8
REMARK    5  A    between atoms: C_8  and  C_9
REMARK    6  A    between atoms: C_12  and  C_13
REMARK    7  A    between atoms: C_17  and  C_18
REMARK    8  A    between atoms: C_18  and  N_19
REMARK    9  A    between atoms: N_19  and  C_20
REMARK                            x       y       z     vdW  Elec       q    Type
REMARK                         _______ _______ _______ _____ _____    ______ ____
ROOT
ATOM      1  C   UNL     1       1.446   8.506  19.952  0.00  0.00    +0.000 A 
ATOM      2  C   UNL     1       0.760   8.073  21.100  0.00  0.00    +0.000 A 
ATOM      3  C   UNL     1      -0.184   8.880  21.738  0.00  0.00    +0.000 A 
ATOM      4  C   UNL     1      -0.463  10.147  21.240  0.00  0.00    +0.000 A 
ATOM      5  C   UNL     1       0.206  10.623  20.104  0.00  0.00    +0.000 A 
ATOM      6  C   UNL     1       1.159   9.799  19.478  0.00  0.00    +0.000 A 
ENDROOT
BRANCH   1  10
ATOM      7  C   UNL     1       4.218   5.851  17.942  0.00  0.00    +0.000 A 
ATOM      8  C   UNL     1       3.950   5.710  19.308  0.00  0.00    +0.000 A 
ATOM      9  C   UNL     1       3.047   6.563  19.945  0.00  0.00    +0.000 A 
ATOM     10  C   UNL     1       2.405   7.611  19.258  0.00  0.00    +0.000 A 
ATOM     11  C   UNL     1       2.705   7.755  17.893  0.00  0.00    +0.000 A 
ATOM     12  C   UNL     1       3.588   6.885  17.241  0.00  0.00    +0.000 A 
BRANCH   7  13
ATOM     13  C   UNL     1       5.171   4.910  17.247  0.00  0.00    +0.000 C 
BRANCH  13  14
ATOM     14  N   UNL     1       4.444   3.900  16.477  0.00  0.00    +0.000 NA
ATOM     15  H   UNL     1       3.560   4.298  16.159  0.00  0.00    +0.000 HD
BRANCH  14  16
ATOM     16  C   UNL     1       4.188   2.714  17.293  0.00  0.00    +0.000 C 
BRANCH  16  17
ATOM     17  C   UNL     1       2.682   2.472  17.443  0.00  0.00    +0.000 C 
BRANCH  17  21
ATOM     18  C   UNL     1       1.575   3.198  21.541  0.00  0.00    +0.000 A 
ATOM     19  C   UNL     1       0.681   3.503  20.517  0.00  0.00    +0.000 A 
ATOM     20  C   UNL     1       1.026   3.241  19.191  0.00  0.00    +0.000 A 
ATOM     21  C   UNL     1       2.267   2.670  18.879  0.00  0.00    +0.000 A 
ATOM     22  C   UNL     1       3.157   2.363  19.916  0.00  0.00    +0.000 A 
ATOM     23  C   UNL     1       2.808   2.620  21.241  0.00  0.00    +0.000 A 
ENDBRANCH  17  21
ENDBRANCH  16  17
ENDBRANCH  14  16
ENDBRANCH  13  14
ENDBRANCH   7  13
ENDBRANCH   1  10
BRANCH   5  24
ATOM     24  C   UNL     1      -0.094  12.012  19.584  0.00  0.00    +0.000 C 
BRANCH  24  25
ATOM     25  N   UNL     1      -0.868  11.917  18.363  0.00  0.00    +0.000 N 
ATOM     26  H   UNL     1      -0.407  12.240  17.519  0.00  0.00    +0.000 HD
BRANCH  25  27
ATOM     27  C   UNL     1      -2.248  11.850  18.318  0.00  0.00    +0.000 A 
ATOM     28  C   UNL     1      -2.834  11.143  17.264  0.00  0.00    +0.000 A 
ATOM     29  C   UNL     1      -4.194  10.823  17.270  0.00  0.00    +0.000 A 
ATOM     30  C   UNL     1      -5.019  11.202  18.311  0.00  0.00    +0.000 A 
ATOM     31  N   UNL     1      -6.282  10.744  18.355  0.00  0.00    +0.000 NA
ATOM     32  C   UNL     1      -7.069  11.159  19.368  0.00  0.00    +0.000 A 
ATOM     33  C   UNL     1      -6.695  12.122  20.282  0.00  0.00    +0.000 A 
ATOM     34  C   UNL     1      -5.379  12.569  20.251  0.00  0.00    +0.000 A 
ATOM     35  C   UNL     1      -4.486  12.050  19.301  0.00  0.00    +0.000 A 
ATOM     36  C   UNL     1      -3.098  12.323  19.322  0.00  0.00    +0.000 A 
ENDBRANCH  25  27
ENDBRANCH  24  25
ENDBRANCH   5  24
TORSDOF 9
ENDMDL
MODEL 7
REMARK VINA RESULT:      -8.8      1.205      2.216
REMARK  Name = 
REMARK  9 active torsions:
REMARK  status: ('A' for Active; 'I' for Inactive)
REMARK    1  A    between atoms: C_4  and  C_5
REMARK    2  A    between atoms: C_5  and  C_6
REMARK    3  A    between atoms: C_6  and  N_7
REMARK    4  A    between atoms: N_7  and  C_8
REMARK    5  A    between atoms: C_8  and  C_9
REMARK    6  A    between atoms: C_12  and  C_13
REMARK    7  A    between atoms: C_17  and  C_18
REMARK    8  A    between atoms: C_18  and  N_19
REMARK    9  A    between atoms: N_19  and  C_20
REMARK                            x       y       z     vdW  Elec       q    Type
REMARK                         _______ _______ _______ _____ _____    ______ ____
ROOT
ATOM      1  C   UNL     1       0.767   9.625  19.559  0.00  0.00    +0.000 A 
ATOM      2  C   UNL     1       0.335  10.549  18.591  0.00  0.00    +0.000 A 
ATOM      3  C   UNL     1      -0.495  11.621  18.920  0.00  0.00    +0.000 A 
ATOM      4  C   UNL     1      -0.917  11.794  20.234  0.00  0.00    +0.000 A 
ATOM      5  C   UNL     1      -0.519  10.890  21.228  0.00  0.00    +0.000 A 
ATOM      6  C   UNL     1       0.312   9.811  20.877  0.00  0.00    +0.000 A 
ENDROOT
BRANCH   1  10
ATOM      7  C   UNL     1       3.512   6.445  18.498  0.00  0.00    +0.000 A 
ATOM      8  C   UNL     1       3.315   7.538  17.647  0.00  0.00    +0.000 A 
ATOM      9  C   UNL     1       2.437   8.564  18.002  0.00  0.00    +0.000 A 
ATOM     10  C   UNL     1       1.694   8.524  19.197  0.00  0.00    +0.000 A 
ATOM     11  C   UNL     1       1.883   7.407  20.028  0.00  0.00    +0.000 A 
ATOM     12  C   UNL     1       2.785   6.388  19.691  0.00  0.00    +0.000 A 
BRANCH   7  13
ATOM     13  C   UNL     1       4.483   5.352  18.128  0.00  0.00    +0.000 C 
BRANCH  13  14
ATOM     14  N   UNL     1       3.939   4.501  17.070  0.00  0.00    +0.000 NA
ATOM     15  H   UNL     1       2.923   4.584  17.066  0.00  0.00    +0.000 HD
BRANCH  14  16
ATOM     16  C   UNL     1       4.320   3.105  17.283  0.00  0.00    +0.000 C 
BRANCH  16  17
ATOM     17  C   UNL     1       3.091   2.249  17.606  0.00  0.00    +0.000 C 
BRANCH  17  21
ATOM     18  C   UNL     1       1.442   3.164  21.477  0.00  0.00    +0.000 A 
ATOM     19  C   UNL     1       2.753   2.706  21.373  0.00  0.00    +0.000 A 
ATOM     20  C   UNL     1       3.299   2.437  20.118  0.00  0.00    +0.000 A 
ATOM     21  C   UNL     1       2.538   2.627  18.957  0.00  0.00    +0.000 A 
ATOM     22  C   UNL     1       1.222   3.093  19.071  0.00  0.00    +0.000 A 
ATOM     23  C   UNL     1       0.680   3.367  20.326  0.00  0.00    +0.000 A 
ENDBRANCH  17  21
ENDBRANCH  16  17
ENDBRANCH  14  16
ENDBRANCH  13  14
ENDBRANCH   7  13
ENDBRANCH   1  10
BRANCH   5  24
ATOM     24  C   UNL     1      -1.002  11.080  22.650  0.00  0.00    +0.000 C 
BRANCH  24  25
ATOM     25  N   UNL     1      -1.753  12.315  22.747  0.00  0.00    +0.000 N 
ATOM     26  H   UNL     1      -1.222  13.136  23.016  0.00  0.00    +0.000 HD
BRANCH  25  27
ATOM     27  C   UNL     1      -3.121  12.382  22.935  0.00  0.00    +0.000 A 
ATOM     28  C   UNL     1      -3.606  12.286  24.242  0.00  0.00    +0.000 A 
ATOM     29  C   UNL     1      -4.938  12.581  24.548  0.00  0.00    +0.000 A 
ATOM     30  C   UNL     1      -5.832  12.969  23.569  0.00  0.00    +0.000 A 
ATOM     31  N   UNL     1      -7.057  13.392  23.924  0.00  0.00    +0.000 NA
ATOM     32  C   UNL     1      -7.917  13.734  22.942  0.00  0.00    +0.000 A 
ATOM     33  C   UNL     1      -7.655  13.551  21.600  0.00  0.00    +0.000 A 
ATOM     34  C   UNL     1      -6.376  13.142  21.238  0.00  0.00    +0.000 A 
ATOM     35  C   UNL     1      -5.407  12.918  22.228  0.00  0.00    +0.000 A 
ATOM     36  C   UNL     1      -4.046  12.675  21.928  0.00  0.00    +0.000 A 
ENDBRANCH  25  27
ENDBRANCH  24  25
ENDBRANCH   5  24
TORSDOF 9
ENDMDL
MODEL 8
REMARK VINA RESULT:      -8.8      2.798      4.602
REMARK  Name = 
REMARK  9 active torsions:
REMARK  status: ('A' for Active; 'I' for Inactive)
REMARK    1  A    between atoms: C_4  and  C_5
REMARK    2  A    between atoms: C_5  and  C_6
REMARK    3  A    between atoms: C_6  and  N_7
REMARK    4  A    between atoms: N_7  and  C_8
REMARK    5  A    between atoms: C_8  and  C_9
REMARK    6  A    between atoms: C_12  and  C_13
REMARK    7  A    between atoms: C_17  and  C_18
REMARK    8  A    between atoms: C_18  and  N_19
REMARK    9  A    between atoms: N_19  and  C_20
REMARK                            x       y       z     vdW  Elec       q    Type
REMARK                         _______ _______ _______ _____ _____    ______ ____
ROOT
ATOM      1  C   UNL     1       1.422   8.127  20.165  0.00  0.00    +0.000 A 
ATOM      2  C   UNL     1       0.724   8.002  21.380  0.00  0.00    +0.000 A 
ATOM      3  C   UNL     1      -0.097   9.023  21.861  0.00  0.00    +0.000 A 
ATOM      4  C   UNL     1      -0.240  10.200  21.134  0.00  0.00    +0.000 A 
ATOM      5  C   UNL     1       0.446  10.370  19.924  0.00  0.00    +0.000 A 
ATOM      6  C   UNL     1       1.277   9.334  19.458  0.00  0.00    +0.000 A 
ENDROOT
BRANCH   1  10
ATOM      7  C   UNL     1       3.869   4.895  18.636  0.00  0.00    +0.000 A 
ATOM      8  C   UNL     1       3.524   5.981  17.824  0.00  0.00    +0.000 A 
ATOM      9  C   UNL     1       2.744   7.024  18.329  0.00  0.00    +0.000 A 
ATOM     10  C   UNL     1       2.248   7.008  19.646  0.00  0.00    +0.000 A 
ATOM     11  C   UNL     1       2.582   5.898  20.439  0.00  0.00    +0.000 A 
ATOM     12  C   UNL     1       3.388   4.863  19.949  0.00  0.00    +0.000 A 
BRANCH   7  13
ATOM     13  C   UNL     1       4.737   3.784  18.100  0.00  0.00    +0.000 C 
BRANCH  13  14
ATOM     14  N   UNL     1       6.151   4.161  18.128  0.00  0.00    +0.000 NA
ATOM     15  H   UNL     1       6.263   4.987  18.715  0.00  0.00    +0.000 HD
BRANCH  14  16
ATOM     16  C   UNL     1       6.636   4.445  16.778  0.00  0.00    +0.000 C 
BRANCH  16  17
ATOM     17  C   UNL     1       5.711   3.823  15.726  0.00  0.00    +0.000 C 
BRANCH  17  21
ATOM     18  C   UNL     1       7.340   4.500  11.798  0.00  0.00    +0.000 A 
ATOM     19  C   UNL     1       6.266   3.630  11.962  0.00  0.00    +0.000 A 
ATOM     20  C   UNL     1       5.717   3.431  13.229  0.00  0.00    +0.000 A 
ATOM     21  C   UNL     1       6.238   4.105  14.342  0.00  0.00    +0.000 A 
ATOM     22  C   UNL     1       7.315   4.983  14.167  0.00  0.00    +0.000 A 
ATOM     23  C   UNL     1       7.859   5.184  12.898  0.00  0.00    +0.000 A 
ENDBRANCH  17  21
ENDBRANCH  16  17
ENDBRANCH  14  16
ENDBRANCH  13  14
ENDBRANCH   7  13
ENDBRANCH   1  10
BRANCH   5  24
ATOM     24  C   UNL     1       0.297  11.664  19.154  0.00  0.00    +0.000 C 
BRANCH  24  25
ATOM     25  N   UNL     1      -0.550  11.446  17.998  0.00  0.00    +0.000 N 
ATOM     26  H   UNL     1      -0.102  11.548  17.095  0.00  0.00    +0.000 HD
BRANCH  25  27
ATOM     27  C   UNL     1      -1.928  11.551  18.012  0.00  0.00    +0.000 A 
ATOM     28  C   UNL     1      -2.639  10.952  16.968  0.00  0.00    +0.000 A 
ATOM     29  C   UNL     1      -4.028  10.801  17.026  0.00  0.00    +0.000 A 
ATOM     30  C   UNL     1      -4.756  11.249  18.112  0.00  0.00    +0.000 A 
ATOM     31  N   UNL     1      -6.063  10.948  18.199  0.00  0.00    +0.000 NA
ATOM     32  C   UNL     1      -6.752  11.427  19.255  0.00  0.00    +0.000 A 
ATOM     33  C   UNL     1      -6.224  12.310  20.175  0.00  0.00    +0.000 A 
ATOM     34  C   UNL     1      -4.865  12.593  20.097  0.00  0.00    +0.000 A 
ATOM     35  C   UNL     1      -4.083  11.996  19.097  0.00  0.00    +0.000 A 
ATOM     36  C   UNL     1      -2.672  12.096  19.063  0.00  0.00    +0.000 A 
ENDBRANCH  25  27
ENDBRANCH  24  25
ENDBRANCH   5  24
TORSDOF 9
ENDMDL
MODEL 9
REMARK VINA RESULT:      -8.8      2.735     10.828
REMARK  Name = 
REMARK  9 active torsions:
REMARK  status: ('A' for Active; 'I' for Inactive)
REMARK    1  A    between atoms: C_4  and  C_5
REMARK    2  A    between atoms: C_5  and  C_6
REMARK    3  A    between atoms: C_6  and  N_7
REMARK    4  A    between atoms: N_7  and  C_8
REMARK    5  A    between atoms: C_8  and  C_9
REMARK    6  A    between atoms: C_12  and  C_13
REMARK    7  A    between atoms: C_17  and  C_18
REMARK    8  A    between atoms: C_18  and  N_19
REMARK    9  A    between atoms: N_19  and  C_20
REMARK                            x       y       z     vdW  Elec       q    Type
REMARK                         _______ _______ _______ _____ _____    ______ ____
ROOT
ATOM      1  C   UNL     1       1.984   6.052  19.584  0.00  0.00    +0.000 A 
ATOM      2  C   UNL     1       1.859   5.528  20.883  0.00  0.00    +0.000 A 
ATOM      3  C   UNL     1       2.046   4.170  21.146  0.00  0.00    +0.000 A 
ATOM      4  C   UNL     1       2.362   3.300  20.109  0.00  0.00    +0.000 A 
ATOM      5  C   UNL     1       2.485   3.778  18.798  0.00  0.00    +0.000 A 
ATOM      6  C   UNL     1       2.286   5.149  18.549  0.00  0.00    +0.000 A 
ENDROOT
BRANCH   1  10
ATOM      7  C   UNL     1       1.580  10.311  18.898  0.00  0.00    +0.000 A 
ATOM      8  C   UNL     1       1.271   9.751  20.143  0.00  0.00    +0.000 A 
ATOM      9  C   UNL     1       1.415   8.379  20.358  0.00  0.00    +0.000 A 
ATOM     10  C   UNL     1       1.834   7.508  19.335  0.00  0.00    +0.000 A 
ATOM     11  C   UNL     1       2.115   8.083  18.085  0.00  0.00    +0.000 A 
ATOM     12  C   UNL     1       2.001   9.463  17.870  0.00  0.00    +0.000 A 
BRANCH   7  13
ATOM     13  C   UNL     1       1.454  11.798  18.675  0.00  0.00    +0.000 C 
BRANCH  13  14
ATOM     14  N   UNL     1       0.204  12.310  19.239  0.00  0.00    +0.000 NA
ATOM     15  H   UNL     1       0.189  12.117  20.240  0.00  0.00    +0.000 HD
BRANCH  14  16
ATOM     16  C   UNL     1      -0.948  11.680  18.596  0.00  0.00    +0.000 C 
BRANCH  16  17
ATOM     17  C   UNL     1      -2.150  11.647  19.546  0.00  0.00    +0.000 C 
BRANCH  17  21
ATOM     18  C   UNL     1      -5.773  12.103  17.264  0.00  0.00    +0.000 A 
ATOM     19  C   UNL     1      -4.632  11.587  16.656  0.00  0.00    +0.000 A 
ATOM     20  C   UNL     1      -3.465  11.410  17.400  0.00  0.00    +0.000 A 
ATOM     21  C   UNL     1      -3.433  11.747  18.760  0.00  0.00    +0.000 A 
ATOM     22  C   UNL     1      -4.587  12.260  19.365  0.00  0.00    +0.000 A 
ATOM     23  C   UNL     1      -5.754  12.431  18.620  0.00  0.00    +0.000 A 
ENDBRANCH  17  21
ENDBRANCH  16  17
ENDBRANCH  14  16
ENDBRANCH  13  14
ENDBRANCH   7  13
ENDBRANCH   1  10
BRANCH   5  24
ATOM     24  C   UNL     1       2.811   2.816  17.677  0.00  0.00    +0.000 C 
BRANCH  24  25
ATOM     25  N   UNL     1       4.248   2.686  17.550  0.00  0.00    +0.000 N 
ATOM     26  H   UNL     1       4.656   1.854  17.962  0.00  0.00    +0.000 HD
BRANCH  25  27
ATOM     27  C   UNL     1       5.110   3.744  17.329  0.00  0.00    +0.000 A 
ATOM     28  C   UNL     1       4.963   4.470  16.144  0.00  0.00    +0.000 A 
ATOM     29  C   UNL     1       5.621   5.687  15.949  0.00  0.00    +0.000 A 
ATOM     30  C   UNL     1       6.455   6.217  16.915  0.00  0.00    +0.000 A 
ATOM     31  N   UNL     1       6.946   7.458  16.755  0.00  0.00    +0.000 NA
ATOM     32  C   UNL     1       7.781   7.933  17.701  0.00  0.00    +0.000 A 
ATOM     33  C   UNL     1       8.260   7.175  18.750  0.00  0.00    +0.000 A 
ATOM     34  C   UNL     1       7.725   5.903  18.927  0.00  0.00    +0.000 A 
ATOM     35  C   UNL     1       6.743   5.428  18.045  0.00  0.00    +0.000 A 
ATOM     36  C   UNL     1       6.030   4.226  18.265  0.00  0.00    +0.000 A 
ENDBRANCH  25  27
ENDBRANCH  24  25
ENDBRANCH   5  24
TORSDOF 9
ENDMDL
