MODEL 1
REMARK VINA RESULT:      -8.1      0.000      0.000
REMARK  Name = 
REMARK  7 active torsions:
REMARK  status: ('A' for Active; 'I' for Inactive)
REMARK    1  A    between atoms: C_1  and  O_2
REMARK    2  A    between atoms: O_2  and  N_3
REMARK    3  A    between atoms: C_4  and  C_6
REMARK    4  A    between atoms: C_9  and  C_10
REMARK    5  A    between atoms: C_23  and  C_24
REMARK    6  A    between atoms: C_24  and  N_25
REMARK    7  A    between atoms: C_29  and  O_30
REMARK                            x       y       z     vdW  Elec       q    Type
REMARK                         _______ _______ _______ _____ _____    ______ ____
ROOT
ATOM      1  C   UNL     1       2.492   7.217  19.231  0.00  0.00    +0.000 C 
ATOM      2  O   UNL     1       2.605   6.757  20.381  0.00  0.00    +0.000 OA
ATOM      3  N   UNL     1       1.702   8.366  19.018  0.00  0.00    +0.000 N 
ATOM      4  C   UNL     1       1.024   8.875  20.221  0.00  0.00    +0.000 C 
ATOM      5  C   UNL     1      -0.094   9.862  19.921  0.00  0.00    +0.000 C 
ATOM      6  C   UNL     1       0.403  11.112  19.153  0.00  0.00    +0.000 C 
ATOM      7  C   UNL     1       1.637  10.757  18.283  0.00  0.00    +0.000 C 
ATOM      8  C   UNL     1       1.715   9.266  17.861  0.00  0.00    +0.000 C 
ATOM      9  C   UNL     1      -0.799  11.641  18.319  0.00  0.00    +0.000 C 
ATOM     10  O   UNL     1      -1.642  12.420  19.203  0.00  0.00    +0.000 OA
ATOM     11  C   UNL     1      -0.709  13.017  20.015  0.00  0.00    +0.000 A 
ATOM     12  C   UNL     1      -0.950  14.193  20.697  0.00  0.00    +0.000 A 
ATOM     13  C   UNL     1       0.117  14.796  21.350  0.00  0.00    +0.000 A 
ATOM     14  C   UNL     1       1.407  14.218  21.326  0.00  0.00    +0.000 A 
ATOM     15  C   UNL     1       1.600  12.972  20.668  0.00  0.00    +0.000 A 
ATOM     16  C   UNL     1       0.526  12.365  20.011  0.00  0.00    +0.000 A 
ENDROOT
BRANCH   1  20
ATOM     17  C   UNL     1       5.129   5.215  16.428  0.00  0.00    +0.000 A 
ATOM     18  C   UNL     1       4.980   6.603  16.465  0.00  0.00    +0.000 A 
ATOM     19  C   UNL     1       4.054   7.202  17.328  0.00  0.00    +0.000 A 
ATOM     20  C   UNL     1       3.229   6.443  18.178  0.00  0.00    +0.000 A 
ATOM     21  C   UNL     1       3.381   5.053  18.171  0.00  0.00    +0.000 A 
ATOM     22  C   UNL     1       4.331   4.450  17.302  0.00  0.00    +0.000 A 
BRANCH  17  24
ATOM     23  N   UNL     1       5.682   4.443  14.171  0.00  0.00    +0.000 N 
ATOM     24  C   UNL     1       6.139   4.671  15.448  0.00  0.00    +0.000 C 
ATOM     25  O   UNL     1       7.299   4.494  15.804  0.00  0.00    +0.000 OA
ATOM     26  H   UNL     1       4.689   4.290  14.019  0.00  0.00    +0.000 HD
BRANCH  23  28
ATOM     27  C   UNL     1       5.779   3.207  12.239  0.00  0.00    +0.000 C 
ATOM     28  O   UNL     1       6.561   3.765  13.294  0.00  0.00    +0.000 OA
ENDBRANCH  23  28
ENDBRANCH  17  24
BRANCH  22  29
ATOM     29  O   UNL     1       4.510   3.088  17.359  0.00  0.00    +0.000 OA
ATOM     30  H   UNL     1       5.464   2.888  17.342  0.00  0.00    +0.000 HD
ENDBRANCH  22  29
ENDBRANCH   1  20
BRANCH  14  31
ATOM     31  C   UNL     1       2.511  15.046  21.964  0.00  0.00    +0.000 C 
BRANCH  31  32
ATOM     32  N   UNL     1       3.679  14.301  22.413  0.00  0.00    +0.000 NA
ATOM     33  H   UNL     1       3.372  13.592  23.078  0.00  0.00    +0.000 HD
ATOM     34  H   UNL     1       4.279  14.932  22.943  0.00  0.00    +0.000 HD
ENDBRANCH  31  32
ENDBRANCH  14  31
TORSDOF 6
ENDMDL
MODEL 2
REMARK VINA RESULT:      -7.9      3.082     10.159
REMARK  Name = 
REMARK  7 active torsions:
REMARK  status: ('A' for Active; 'I' for Inactive)
REMARK    1  A    between atoms: C_1  and  O_2
REMARK    2  A    between atoms: O_2  and  N_3
REMARK    3  A    between atoms: C_4  and  C_6
REMARK    4  A    between atoms: C_9  and  C_10
REMARK    5  A    between atoms: C_23  and  C_24
REMARK    6  A    between atoms: C_24  and  N_25
REMARK    7  A    between atoms: C_29  and  O_30
REMARK                            x       y       z     vdW  Elec       q    Type
REMARK                         _______ _______ _______ _____ _____    ______ ____
ROOT
ATOM      1  C   UNL     1       1.193  10.501  19.296  0.00  0.00    +0.000 C 
ATOM      2  O   UNL     1       1.699  11.352  18.545  0.00  0.00    +0.000 OA
ATOM      3  N   UNL     1       1.443   9.132  19.063  0.00  0.00    +0.000 N 
ATOM      4  C   UNL     1       2.259   8.854  17.870  0.00  0.00    +0.000 C 
ATOM      5  C   UNL     1       2.212   7.400  17.424  0.00  0.00    +0.000 C 
ATOM      6  C   UNL     1       2.710   6.423  18.519  0.00  0.00    +0.000 C 
ATOM      7  C   UNL     1       2.444   7.009  19.929  0.00  0.00    +0.000 C 
ATOM      8  C   UNL     1       1.263   8.013  19.993  0.00  0.00    +0.000 C 
ATOM      9  C   UNL     1       1.991   5.065  18.276  0.00  0.00    +0.000 C 
ATOM     10  O   UNL     1       2.700   4.371  17.220  0.00  0.00    +0.000 OA
ATOM     11  C   UNL     1       4.000   4.729  17.482  0.00  0.00    +0.000 A 
ATOM     12  C   UNL     1       5.082   3.976  17.072  0.00  0.00    +0.000 A 
ATOM     13  C   UNL     1       6.340   4.338  17.538  0.00  0.00    +0.000 A 
ATOM     14  C   UNL     1       6.507   5.449  18.396  0.00  0.00    +0.000 A 
ATOM     15  C   UNL     1       5.375   6.238  18.743  0.00  0.00    +0.000 A 
ATOM     16  C   UNL     1       4.110   5.873  18.274  0.00  0.00    +0.000 A 
ENDROOT
BRANCH   1  20
ATOM     17  C   UNL     1      -1.770  11.960  22.111  0.00  0.00    +0.000 A 
ATOM     18  C   UNL     1      -1.616  12.497  20.830  0.00  0.00    +0.000 A 
ATOM     19  C   UNL     1      -0.590  12.054  19.985  0.00  0.00    +0.000 A 
ATOM     20  C   UNL     1       0.332  11.069  20.387  0.00  0.00    +0.000 A 
ATOM     21  C   UNL     1       0.178  10.504  21.656  0.00  0.00    +0.000 A 
ATOM     22  C   UNL     1      -0.872  10.948  22.506  0.00  0.00    +0.000 A 
BRANCH  17  24
ATOM     23  N   UNL     1      -3.260  13.819  22.674  0.00  0.00    +0.000 N 
ATOM     24  C   UNL     1      -2.892  12.522  22.946  0.00  0.00    +0.000 C 
ATOM     25  O   UNL     1      -3.441  11.814  23.785  0.00  0.00    +0.000 OA
ATOM     26  H   UNL     1      -2.590  14.442  22.232  0.00  0.00    +0.000 HD
BRANCH  23  28
ATOM     27  C   UNL     1      -3.446  15.290  24.426  0.00  0.00    +0.000 C 
ATOM     28  O   UNL     1      -4.179  14.419  23.566  0.00  0.00    +0.000 OA
ENDBRANCH  23  28
ENDBRANCH  17  24
BRANCH  22  29
ATOM     29  O   UNL     1      -1.044  10.333  23.723  0.00  0.00    +0.000 OA
ATOM     30  H   UNL     1      -0.219  10.401  24.238  0.00  0.00    +0.000 HD
ENDBRANCH  22  29
ENDBRANCH   1  20
BRANCH  14  31
ATOM     31  C   UNL     1       7.911   5.655  18.940  0.00  0.00    +0.000 C 
BRANCH  31  32
ATOM     32  N   UNL     1       8.071   5.444  20.372  0.00  0.00    +0.000 NA
ATOM     33  H   UNL     1       8.100   4.440  20.547  0.00  0.00    +0.000 HD
ATOM     34  H   UNL     1       7.230   5.778  20.842  0.00  0.00    +0.000 HD
ENDBRANCH  31  32
ENDBRANCH  14  31
TORSDOF 6
ENDMDL
MODEL 3
REMARK VINA RESULT:      -7.8      2.857     10.303
REMARK  Name = 
REMARK  7 active torsions:
REMARK  status: ('A' for Active; 'I' for Inactive)
REMARK    1  A    between atoms: C_1  and  O_2
REMARK    2  A    between atoms: O_2  and  N_3
REMARK    3  A    between atoms: C_4  and  C_6
REMARK    4  A    between atoms: C_9  and  C_10
REMARK    5  A    between atoms: C_23  and  C_24
REMARK    6  A    between atoms: C_24  and  N_25
REMARK    7  A    between atoms: C_29  and  O_30
REMARK                            x       y       z     vdW  Elec       q    Type
REMARK                         _______ _______ _______ _____ _____    ______ ____
ROOT
ATOM      1  C   UNL     1       1.272  10.554  19.397  0.00  0.00    +0.000 C 
ATOM      2  O   UNL     1       1.617  11.323  18.484  0.00  0.00    +0.000 OA
ATOM      3  N   UNL     1       1.407   9.160  19.220  0.00  0.00    +0.000 N 
ATOM      4  C   UNL     1       1.904   8.758  17.894  0.00  0.00    +0.000 C 
ATOM      5  C   UNL     1       1.697   7.283  17.586  0.00  0.00    +0.000 C 
ATOM      6  C   UNL     1       2.404   6.355  18.605  0.00  0.00    +0.000 C 
ATOM      7  C   UNL     1       2.505   7.047  19.988  0.00  0.00    +0.000 C 
ATOM      8  C   UNL     1       1.412   8.117  20.249  0.00  0.00    +0.000 C 
ATOM      9  C   UNL     1       1.597   5.025  18.645  0.00  0.00    +0.000 C 
ATOM     10  O   UNL     1       2.007   4.225  17.509  0.00  0.00    +0.000 OA
ATOM     11  C   UNL     1       3.344   4.526  17.430  0.00  0.00    +0.000 A 
ATOM     12  C   UNL     1       4.268   3.689  16.837  0.00  0.00    +0.000 A 
ATOM     13  C   UNL     1       5.613   4.011  16.964  0.00  0.00    +0.000 A 
ATOM     14  C   UNL     1       6.022   5.165  17.670  0.00  0.00    +0.000 A 
ATOM     15  C   UNL     1       5.037   6.037  18.211  0.00  0.00    +0.000 A 
ATOM     16  C   UNL     1       3.684   5.713  18.082  0.00  0.00    +0.000 A 
ENDROOT
BRANCH   1  20
ATOM     17  C   UNL     1      -0.675  12.854  22.518  0.00  0.00    +0.000 A 
ATOM     18  C   UNL     1       0.170  13.433  21.569  0.00  0.00    +0.000 A 
ATOM     19  C   UNL     1       0.846  12.641  20.632  0.00  0.00    +0.000 A 
ATOM     20  C   UNL     1       0.718  11.240  20.612  0.00  0.00    +0.000 A 
ATOM     21  C   UNL     1      -0.142  10.645  21.540  0.00  0.00    +0.000 A 
ATOM     22  C   UNL     1      -0.835  11.454  22.481  0.00  0.00    +0.000 A 
BRANCH  17  24
ATOM     23  N   UNL     1      -2.663  13.551  23.767  0.00  0.00    +0.000 N 
ATOM     24  C   UNL     1      -1.337  13.794  23.494  0.00  0.00    +0.000 C 
ATOM     25  O   UNL     1      -0.681  14.688  24.019  0.00  0.00    +0.000 OA
ATOM     26  H   UNL     1      -3.223  13.041  23.090  0.00  0.00    +0.000 HD
BRANCH  23  28
ATOM     27  C   UNL     1      -4.235  15.220  23.660  0.00  0.00    +0.000 C 
ATOM     28  O   UNL     1      -3.343  14.527  24.532  0.00  0.00    +0.000 OA
ENDBRANCH  23  28
ENDBRANCH  17  24
BRANCH  22  29
ATOM     29  O   UNL     1      -1.725  10.856  23.341  0.00  0.00    +0.000 OA
ATOM     30  H   UNL     1      -2.571  10.709  22.879  0.00  0.00    +0.000 HD
ENDBRANCH  22  29
ENDBRANCH   1  20
BRANCH  14  31
ATOM     31  C   UNL     1       7.523   5.329  17.851  0.00  0.00    +0.000 C 
BRANCH  31  32
ATOM     32  N   UNL     1       8.307   4.105  17.757  0.00  0.00    +0.000 NA
ATOM     33  H   UNL     1       7.932   3.542  16.994  0.00  0.00    +0.000 HD
ATOM     34  H   UNL     1       8.151   3.557  18.602  0.00  0.00    +0.000 HD
ENDBRANCH  31  32
ENDBRANCH  14  31
TORSDOF 6
ENDMDL
MODEL 4
REMARK VINA RESULT:      -7.7      3.079      4.701
REMARK  Name = 
REMARK  7 active torsions:
REMARK  status: ('A' for Active; 'I' for Inactive)
REMARK    1  A    between atoms: C_1  and  O_2
REMARK    2  A    between atoms: O_2  and  N_3
REMARK    3  A    between atoms: C_4  and  C_6
REMARK    4  A    between atoms: C_9  and  C_10
REMARK    5  A    between atoms: C_23  and  C_24
REMARK    6  A    between atoms: C_24  and  N_25
REMARK    7  A    between atoms: C_29  and  O_30
REMARK                            x       y       z     vdW  Elec       q    Type
REMARK                         _______ _______ _______ _____ _____    ______ ____
ROOT
ATOM      1  C   UNL     1       2.821   7.554  18.253  0.00  0.00    +0.000 C 
ATOM      2  O   UNL     1       3.038   7.797  17.054  0.00  0.00    +0.000 OA
ATOM      3  N   UNL     1       2.137   8.503  19.042  0.00  0.00    +0.000 N 
ATOM      4  C   UNL     1       1.797   9.751  18.340  0.00  0.00    +0.000 C 
ATOM      5  C   UNL     1       1.405  10.888  19.271  0.00  0.00    +0.000 C 
ATOM      6  C   UNL     1       0.174  10.544  20.147  0.00  0.00    +0.000 C 
ATOM      7  C   UNL     1       0.102   9.017  20.405  0.00  0.00    +0.000 C 
ATOM      8  C   UNL     1       1.472   8.291  20.331  0.00  0.00    +0.000 C 
ATOM      9  C   UNL     1       0.300  11.379  21.454  0.00  0.00    +0.000 C 
ATOM     10  O   UNL     1      -0.174  12.718  21.172  0.00  0.00    +0.000 OA
ATOM     11  C   UNL     1      -1.202  12.466  20.297  0.00  0.00    +0.000 A 
ATOM     12  C   UNL     1      -2.254  13.339  20.104  0.00  0.00    +0.000 A 
ATOM     13  C   UNL     1      -3.322  12.908  19.328  0.00  0.00    +0.000 A 
ATOM     14  C   UNL     1      -3.327  11.620  18.746  0.00  0.00    +0.000 A 
ATOM     15  C   UNL     1      -2.195  10.775  18.914  0.00  0.00    +0.000 A 
ATOM     16  C   UNL     1      -1.120  11.209  19.694  0.00  0.00    +0.000 A 
ENDROOT
BRANCH   1  20
ATOM     17  C   UNL     1       4.042   3.492  19.166  0.00  0.00    +0.000 A 
ATOM     18  C   UNL     1       2.723   3.932  19.301  0.00  0.00    +0.000 A 
ATOM     19  C   UNL     1       2.389   5.275  19.078  0.00  0.00    +0.000 A 
ATOM     20  C   UNL     1       3.356   6.233  18.726  0.00  0.00    +0.000 A 
ATOM     21  C   UNL     1       4.677   5.805  18.562  0.00  0.00    +0.000 A 
ATOM     22  C   UNL     1       5.010   4.440  18.778  0.00  0.00    +0.000 A 
BRANCH  17  24
ATOM     23  N   UNL     1       5.180   1.758  20.468  0.00  0.00    +0.000 N 
ATOM     24  C   UNL     1       4.297   2.032  19.450  0.00  0.00    +0.000 C 
ATOM     25  O   UNL     1       3.700   1.173  18.809  0.00  0.00    +0.000 OA
ATOM     26  H   UNL     1       5.870   2.457  20.728  0.00  0.00    +0.000 HD
BRANCH  23  28
ATOM     27  C   UNL     1       5.994   0.230  21.975  0.00  0.00    +0.000 C 
ATOM     28  O   UNL     1       5.569   0.407  20.624  0.00  0.00    +0.000 OA
ENDBRANCH  23  28
ENDBRANCH  17  24
BRANCH  22  29
ATOM     29  O   UNL     1       6.301   4.028  18.548  0.00  0.00    +0.000 OA
ATOM     30  H   UNL     1       6.642   3.580  19.345  0.00  0.00    +0.000 HD
ENDBRANCH  22  29
ENDBRANCH   1  20
BRANCH  14  31
ATOM     31  C   UNL     1      -4.611  11.224  18.035  0.00  0.00    +0.000 C 
BRANCH  31  32
ATOM     32  N   UNL     1      -5.281  12.289  17.302  0.00  0.00    +0.000 NA
ATOM     33  H   UNL     1      -4.721  13.136  17.385  0.00  0.00    +0.000 HD
ATOM     34  H   UNL     1      -6.162  12.498  17.771  0.00  0.00    +0.000 HD
ENDBRANCH  31  32
ENDBRANCH  14  31
TORSDOF 6
ENDMDL
MODEL 5
REMARK VINA RESULT:      -7.7      3.916      6.040
REMARK  Name = 
REMARK  7 active torsions:
REMARK  status: ('A' for Active; 'I' for Inactive)
REMARK    1  A    between atoms: C_1  and  O_2
REMARK    2  A    between atoms: O_2  and  N_3
REMARK    3  A    between atoms: C_4  and  C_6
REMARK    4  A    between atoms: C_9  and  C_10
REMARK    5  A    between atoms: C_23  and  C_24
REMARK    6  A    between atoms: C_24  and  N_25
REMARK    7  A    between atoms: C_29  and  O_30
REMARK                            x       y       z     vdW  Elec       q    Type
REMARK                         _______ _______ _______ _____ _____    ______ ____
ROOT
ATOM      1  C   UNL     1      -0.011  10.546  19.427  0.00  0.00    +0.000 C 
ATOM      2  O   UNL     1      -0.521  10.696  18.304  0.00  0.00    +0.000 OA
ATOM      3  N   UNL     1      -0.364  11.425  20.474  0.00  0.00    +0.000 N 
ATOM      4  C   UNL     1      -1.290  12.500  20.083  0.00  0.00    +0.000 C 
ATOM      5  C   UNL     1      -1.370  13.634  21.094  0.00  0.00    +0.000 C 
ATOM      6  C   UNL     1      -1.839  13.156  22.491  0.00  0.00    +0.000 C 
ATOM      7  C   UNL     1      -1.423  11.681  22.726  0.00  0.00    +0.000 C 
ATOM      8  C   UNL     1      -0.180  11.230  21.915  0.00  0.00    +0.000 C 
ATOM      9  C   UNL     1      -1.228  14.136  23.535  0.00  0.00    +0.000 C 
ATOM     10  O   UNL     1      -2.062  15.320  23.571  0.00  0.00    +0.000 OA
ATOM     11  C   UNL     1      -3.312  14.780  23.386  0.00  0.00    +0.000 A 
ATOM     12  C   UNL     1      -4.469  15.407  23.804  0.00  0.00    +0.000 A 
ATOM     13  C   UNL     1      -5.659  14.696  23.722  0.00  0.00    +0.000 A 
ATOM     14  C   UNL     1      -5.686  13.376  23.217  0.00  0.00    +0.000 A 
ATOM     15  C   UNL     1      -4.483  12.789  22.736  0.00  0.00    +0.000 A 
ATOM     16  C   UNL     1      -3.285  13.505  22.818  0.00  0.00    +0.000 A 
ENDROOT
BRANCH   1  20
ATOM     17  C   UNL     1       2.336   6.906  19.691  0.00  0.00    +0.000 A 
ATOM     18  C   UNL     1       1.485   7.332  20.714  0.00  0.00    +0.000 A 
ATOM     19  C   UNL     1       0.812   8.558  20.623  0.00  0.00    +0.000 A 
ATOM     20  C   UNL     1       0.970   9.414  19.518  0.00  0.00    +0.000 A 
ATOM     21  C   UNL     1       1.799   8.992  18.474  0.00  0.00    +0.000 A 
ATOM     22  C   UNL     1       2.470   7.743  18.564  0.00  0.00    +0.000 A 
BRANCH  17  24
ATOM     23  N   UNL     1       2.222   4.525  20.249  0.00  0.00    +0.000 N 
ATOM     24  C   UNL     1       3.028   5.582  19.898  0.00  0.00    +0.000 C 
ATOM     25  O   UNL     1       4.238   5.493  19.715  0.00  0.00    +0.000 OA
ATOM     26  H   UNL     1       1.329   4.710  20.697  0.00  0.00    +0.000 HD
BRANCH  23  28
ATOM     27  C   UNL     1       2.073   2.688  21.617  0.00  0.00    +0.000 C 
ATOM     28  O   UNL     1       2.874   3.328  20.625  0.00  0.00    +0.000 OA
ENDBRANCH  23  28
ENDBRANCH  17  24
BRANCH  22  29
ATOM     29  O   UNL     1       3.228   7.319  17.499  0.00  0.00    +0.000 OA
ATOM     30  H   UNL     1       3.680   6.488  17.736  0.00  0.00    +0.000 HD
ENDBRANCH  22  29
ENDBRANCH   1  20
BRANCH  14  31
ATOM     31  C   UNL     1      -7.026  12.664  23.307  0.00  0.00    +0.000 C 
BRANCH  31  32
ATOM     32  N   UNL     1      -7.916  13.127  24.363  0.00  0.00    +0.000 NA
ATOM     33  H   UNL     1      -8.778  12.585  24.316  0.00  0.00    +0.000 HD
ATOM     34  H   UNL     1      -8.186  14.088  24.159  0.00  0.00    +0.000 HD
ENDBRANCH  31  32
ENDBRANCH  14  31
TORSDOF 6
ENDMDL
MODEL 6
REMARK VINA RESULT:      -7.6      3.926      6.182
REMARK  Name = 
REMARK  7 active torsions:
REMARK  status: ('A' for Active; 'I' for Inactive)
REMARK    1  A    between atoms: C_1  and  O_2
REMARK    2  A    between atoms: O_2  and  N_3
REMARK    3  A    between atoms: C_4  and  C_6
REMARK    4  A    between atoms: C_9  and  C_10
REMARK    5  A    between atoms: C_23  and  C_24
REMARK    6  A    between atoms: C_24  and  N_25
REMARK    7  A    between atoms: C_29  and  O_30
REMARK                            x       y       z     vdW  Elec       q    Type
REMARK                         _______ _______ _______ _____ _____    ______ ____
ROOT
ATOM      1  C   UNL     1      -0.387  10.820  19.658  0.00  0.00    +0.000 C 
ATOM      2  O   UNL     1      -0.865  10.985  18.523  0.00  0.00    +0.000 OA
ATOM      3  N   UNL     1      -0.789  11.667  20.711  0.00  0.00    +0.000 N 
ATOM      4  C   UNL     1      -1.723  12.734  20.315  0.00  0.00    +0.000 C 
ATOM      5  C   UNL     1      -1.856  13.843  21.348  0.00  0.00    +0.000 C 
ATOM      6  C   UNL     1      -2.359  13.325  22.719  0.00  0.00    +0.000 C 
ATOM      7  C   UNL     1      -1.923  11.853  22.934  0.00  0.00    +0.000 C 
ATOM      8  C   UNL     1      -0.647  11.443  22.153  0.00  0.00    +0.000 C 
ATOM      9  C   UNL     1      -1.800  14.292  23.803  0.00  0.00    +0.000 C 
ATOM     10  O   UNL     1      -2.657  15.459  23.839  0.00  0.00    +0.000 OA
ATOM     11  C   UNL     1      -3.890  14.901  23.603  0.00  0.00    +0.000 A 
ATOM     12  C   UNL     1      -5.071  15.497  23.998  0.00  0.00    +0.000 A 
ATOM     13  C   UNL     1      -6.244  14.766  23.863  0.00  0.00    +0.000 A 
ATOM     14  C   UNL     1      -6.231  13.458  23.328  0.00  0.00    +0.000 A 
ATOM     15  C   UNL     1      -5.002  12.904  22.872  0.00  0.00    +0.000 A 
ATOM     16  C   UNL     1      -3.822  13.640  23.008  0.00  0.00    +0.000 A 
ENDROOT
BRANCH   1  20
ATOM     17  C   UNL     1       2.018   7.218  19.926  0.00  0.00    +0.000 A 
ATOM     18  C   UNL     1       1.144   7.619  20.939  0.00  0.00    +0.000 A 
ATOM     19  C   UNL     1       0.450   8.834  20.848  0.00  0.00    +0.000 A 
ATOM     20  C   UNL     1       0.612   9.703  19.754  0.00  0.00    +0.000 A 
ATOM     21  C   UNL     1       1.465   9.306  18.720  0.00  0.00    +0.000 A 
ATOM     22  C   UNL     1       2.156   8.068  18.810  0.00  0.00    +0.000 A 
BRANCH  17  24
ATOM     23  N   UNL     1       4.003   5.818  19.620  0.00  0.00    +0.000 N 
ATOM     24  C   UNL     1       2.730   5.905  20.132  0.00  0.00    +0.000 C 
ATOM     25  O   UNL     1       2.179   5.005  20.759  0.00  0.00    +0.000 OA
ATOM     26  H   UNL     1       4.273   6.431  18.856  0.00  0.00    +0.000 HD
BRANCH  23  28
ATOM     27  C   UNL     1       5.330   4.379  18.421  0.00  0.00    +0.000 C 
ATOM     28  O   UNL     1       4.611   4.541  19.643  0.00  0.00    +0.000 OA
ENDBRANCH  23  28
ENDBRANCH  17  24
BRANCH  22  29
ATOM     29  O   UNL     1       2.939   7.667  17.753  0.00  0.00    +0.000 OA
ATOM     30  H   UNL     1       2.835   8.299  17.018  0.00  0.00    +0.000 HD
ENDBRANCH  22  29
ENDBRANCH   1  20
BRANCH  14  31
ATOM     31  C   UNL     1      -7.559  12.720  23.360  0.00  0.00    +0.000 C 
BRANCH  31  32
ATOM     32  N   UNL     1      -7.508  11.350  23.853  0.00  0.00    +0.000 NA
ATOM     33  H   UNL     1      -8.138  10.783  23.288  0.00  0.00    +0.000 HD
ATOM     34  H   UNL     1      -7.897  11.334  24.796  0.00  0.00    +0.000 HD
ENDBRANCH  31  32
ENDBRANCH  14  31
TORSDOF 6
ENDMDL
MODEL 7
REMARK VINA RESULT:      -7.6      3.148      4.753
REMARK  Name = 
REMARK  7 active torsions:
REMARK  status: ('A' for Active; 'I' for Inactive)
REMARK    1  A    between atoms: C_1  and  O_2
REMARK    2  A    between atoms: O_2  and  N_3
REMARK    3  A    between atoms: C_4  and  C_6
REMARK    4  A    between atoms: C_9  and  C_10
REMARK    5  A    between atoms: C_23  and  C_24
REMARK    6  A    between atoms: C_24  and  N_25
REMARK    7  A    between atoms: C_29  and  O_30
REMARK                            x       y       z     vdW  Elec       q    Type
REMARK                         _______ _______ _______ _____ _____    ______ ____
ROOT
ATOM      1  C   UNL     1       0.382   9.998  18.748  0.00  0.00    +0.000 C 
ATOM      2  O   UNL     1      -0.458   9.761  17.863  0.00  0.00    +0.000 OA
ATOM      3  N   UNL     1       0.234  11.144  19.557  0.00  0.00    +0.000 N 
ATOM      4  C   UNL     1      -0.915  11.996  19.207  0.00  0.00    +0.000 C 
ATOM      5  C   UNL     1      -0.854  13.386  19.822  0.00  0.00    +0.000 C 
ATOM      6  C   UNL     1      -0.807  13.352  21.370  0.00  0.00    +0.000 C 
ATOM      7  C   UNL     1      -0.128  12.048  21.863  0.00  0.00    +0.000 C 
ATOM      8  C   UNL     1       0.868  11.423  20.849  0.00  0.00    +0.000 C 
ATOM      9  C   UNL     1      -0.063  14.639  21.831  0.00  0.00    +0.000 C 
ATOM     10  O   UNL     1      -1.012  15.732  21.803  0.00  0.00    +0.000 OA
ATOM     11  C   UNL     1      -2.166  15.104  22.203  0.00  0.00    +0.000 A 
ATOM     12  C   UNL     1      -3.223  15.774  22.784  0.00  0.00    +0.000 A 
ATOM     13  C   UNL     1      -4.265  15.018  23.305  0.00  0.00    +0.000 A 
ATOM     14  C   UNL     1      -4.248  13.607  23.233  0.00  0.00    +0.000 A 
ATOM     15  C   UNL     1      -3.172  12.956  22.569  0.00  0.00    +0.000 A 
ATOM     16  C   UNL     1      -2.124  13.717  22.044  0.00  0.00    +0.000 A 
ENDROOT
BRANCH   1  20
ATOM     17  C   UNL     1       3.177   6.687  18.969  0.00  0.00    +0.000 A 
ATOM     18  C   UNL     1       2.277   6.985  19.994  0.00  0.00    +0.000 A 
ATOM     19  C   UNL     1       1.451   8.115  19.919  0.00  0.00    +0.000 A 
ATOM     20  C   UNL     1       1.500   9.000  18.826  0.00  0.00    +0.000 A 
ATOM     21  C   UNL     1       2.378   8.704  17.779  0.00  0.00    +0.000 A 
ATOM     22  C   UNL     1       3.205   7.550  17.855  0.00  0.00    +0.000 A 
BRANCH  17  24
ATOM     23  N   UNL     1       5.382   5.623  18.946  0.00  0.00    +0.000 N 
ATOM     24  C   UNL     1       4.033   5.460  19.160  0.00  0.00    +0.000 C 
ATOM     25  O   UNL     1       3.517   4.407  19.522  0.00  0.00    +0.000 OA
ATOM     26  H   UNL     1       5.701   6.382  18.350  0.00  0.00    +0.000 HD
BRANCH  23  28
ATOM     27  C   UNL     1       7.153   4.588  17.916  0.00  0.00    +0.000 C 
ATOM     28  O   UNL     1       6.170   4.448  18.941  0.00  0.00    +0.000 OA
ENDBRANCH  23  28
ENDBRANCH  17  24
BRANCH  22  29
ATOM     29  O   UNL     1       4.013   7.242  16.786  0.00  0.00    +0.000 OA
ATOM     30  H   UNL     1       4.824   6.808  17.110  0.00  0.00    +0.000 HD
ENDBRANCH  22  29
ENDBRANCH   1  20
BRANCH  14  31
ATOM     31  C   UNL     1      -5.380  12.897  23.958  0.00  0.00    +0.000 C 
BRANCH  31  32
ATOM     32  N   UNL     1      -4.976  11.995  25.028  0.00  0.00    +0.000 NA
ATOM     33  H   UNL     1      -5.678  11.261  25.111  0.00  0.00    +0.000 HD
ATOM     34  H   UNL     1      -5.010  12.506  25.910  0.00  0.00    +0.000 HD
ENDBRANCH  31  32
ENDBRANCH  14  31
TORSDOF 6
ENDMDL
MODEL 8
REMARK VINA RESULT:      -7.5      3.158      4.800
REMARK  Name = 
REMARK  7 active torsions:
REMARK  status: ('A' for Active; 'I' for Inactive)
REMARK    1  A    between atoms: C_1  and  O_2
REMARK    2  A    between atoms: O_2  and  N_3
REMARK    3  A    between atoms: C_4  and  C_6
REMARK    4  A    between atoms: C_9  and  C_10
REMARK    5  A    between atoms: C_23  and  C_24
REMARK    6  A    between atoms: C_24  and  N_25
REMARK    7  A    between atoms: C_29  and  O_30
REMARK                            x       y       z     vdW  Elec       q    Type
REMARK                         _______ _______ _______ _____ _____    ______ ____
ROOT
ATOM      1  C   UNL     1       0.508   9.921  18.773  0.00  0.00    +0.000 C 
ATOM      2  O   UNL     1      -0.305   9.739  17.851  0.00  0.00    +0.000 OA
ATOM      3  N   UNL     1       0.366  11.046  19.613  0.00  0.00    +0.000 N 
ATOM      4  C   UNL     1      -0.741  11.946  19.248  0.00  0.00    +0.000 C 
ATOM      5  C   UNL     1      -0.659  13.313  19.909  0.00  0.00    +0.000 C 
ATOM      6  C   UNL     1      -0.671  13.230  21.456  0.00  0.00    +0.000 C 
ATOM      7  C   UNL     1      -0.053  11.889  21.931  0.00  0.00    +0.000 C 
ATOM      8  C   UNL     1       0.959  11.264  20.935  0.00  0.00    +0.000 C 
ATOM      9  C   UNL     1       0.095  14.476  21.984  0.00  0.00    +0.000 C 
ATOM     10  O   UNL     1      -0.817  15.601  21.957  0.00  0.00    +0.000 OA
ATOM     11  C   UNL     1      -2.005  14.999  22.294  0.00  0.00    +0.000 A 
ATOM     12  C   UNL     1      -3.062  15.686  22.857  0.00  0.00    +0.000 A 
ATOM     13  C   UNL     1      -4.146  14.949  23.314  0.00  0.00    +0.000 A 
ATOM     14  C   UNL     1      -4.171  13.540  23.198  0.00  0.00    +0.000 A 
ATOM     15  C   UNL     1      -3.092  12.875  22.553  0.00  0.00    +0.000 A 
ATOM     16  C   UNL     1      -2.001  13.617  22.092  0.00  0.00    +0.000 A 
ENDROOT
BRANCH   1  20
ATOM     17  C   UNL     1       3.185   6.515  19.006  0.00  0.00    +0.000 A 
ATOM     18  C   UNL     1       2.276   6.831  20.018  0.00  0.00    +0.000 A 
ATOM     19  C   UNL     1       1.490   7.989  19.941  0.00  0.00    +0.000 A 
ATOM     20  C   UNL     1       1.590   8.885  18.860  0.00  0.00    +0.000 A 
ATOM     21  C   UNL     1       2.478   8.571  17.827  0.00  0.00    +0.000 A 
ATOM     22  C   UNL     1       3.264   7.389  17.904  0.00  0.00    +0.000 A 
BRANCH  17  24
ATOM     23  N   UNL     1       3.282   4.104  19.426  0.00  0.00    +0.000 N 
ATOM     24  C   UNL     1       3.996   5.257  19.199  0.00  0.00    +0.000 C 
ATOM     25  O   UNL     1       5.219   5.302  19.112  0.00  0.00    +0.000 OA
ATOM     26  H   UNL     1       2.343   4.170  19.808  0.00  0.00    +0.000 HD
BRANCH  23  28
ATOM     27  C   UNL     1       3.695   1.915  18.874  0.00  0.00    +0.000 C 
ATOM     28  O   UNL     1       4.027   2.958  19.790  0.00  0.00    +0.000 OA
ENDBRANCH  23  28
ENDBRANCH  17  24
BRANCH  22  29
ATOM     29  O   UNL     1       4.082   7.067  16.848  0.00  0.00    +0.000 OA
ATOM     30  H   UNL     1       4.030   7.769  16.174  0.00  0.00    +0.000 HD
ENDBRANCH  22  29
ENDBRANCH   1  20
BRANCH  14  31
ATOM     31  C   UNL     1      -5.351  12.846  23.858  0.00  0.00    +0.000 C 
BRANCH  31  32
ATOM     32  N   UNL     1      -5.033  12.032  25.023  0.00  0.00    +0.000 NA
ATOM     33  H   UNL     1      -4.375  12.548  25.605  0.00  0.00    +0.000 HD
ATOM     34  H   UNL     1      -4.529  11.204  24.709  0.00  0.00    +0.000 HD
ENDBRANCH  31  32
ENDBRANCH  14  31
TORSDOF 6
ENDMDL
MODEL 9
REMARK VINA RESULT:      -7.5      3.175     10.160
REMARK  Name = 
REMARK  7 active torsions:
REMARK  status: ('A' for Active; 'I' for Inactive)
REMARK    1  A    between atoms: C_1  and  O_2
REMARK    2  A    between atoms: O_2  and  N_3
REMARK    3  A    between atoms: C_4  and  C_6
REMARK    4  A    between atoms: C_9  and  C_10
REMARK    5  A    between atoms: C_23  and  C_24
REMARK    6  A    between atoms: C_24  and  N_25
REMARK    7  A    between atoms: C_29  and  O_30
REMARK                            x       y       z     vdW  Elec       q    Type
REMARK                         _______ _______ _______ _____ _____    ______ ____
ROOT
ATOM      1  C   UNL     1       1.142  10.203  19.112  0.00  0.00    +0.000 C 
ATOM      2  O   UNL     1       1.695  11.123  18.486  0.00  0.00    +0.000 OA
ATOM      3  N   UNL     1       1.506   8.865  18.849  0.00  0.00    +0.000 N 
ATOM      4  C   UNL     1       2.499   8.703  17.773  0.00  0.00    +0.000 C 
ATOM      5  C   UNL     1       2.605   7.277  17.252  0.00  0.00    +0.000 C 
ATOM      6  C   UNL     1       3.004   6.266  18.355  0.00  0.00    +0.000 C 
ATOM      7  C   UNL     1       2.505   6.752  19.741  0.00  0.00    +0.000 C 
ATOM      8  C   UNL     1       1.267   7.685  19.684  0.00  0.00    +0.000 C 
ATOM      9  C   UNL     1       2.412   4.887  17.943  0.00  0.00    +0.000 C 
ATOM     10  O   UNL     1       3.304   4.297  16.966  0.00  0.00    +0.000 OA
ATOM     11  C   UNL     1       4.530   4.708  17.431  0.00  0.00    +0.000 A 
ATOM     12  C   UNL     1       5.703   4.041  17.145  0.00  0.00    +0.000 A 
ATOM     13  C   UNL     1       6.858   4.442  17.805  0.00  0.00    +0.000 A 
ATOM     14  C   UNL     1       6.833   5.507  18.734  0.00  0.00    +0.000 A 
ATOM     15  C   UNL     1       5.617   6.212  18.953  0.00  0.00    +0.000 A 
ATOM     16  C   UNL     1       4.456   5.808  18.288  0.00  0.00    +0.000 A 
ENDROOT
BRANCH   1  20
ATOM     17  C   UNL     1      -1.456  11.936  22.124  0.00  0.00    +0.000 A 
ATOM     18  C   UNL     1      -0.271  11.269  22.443  0.00  0.00    +0.000 A 
ATOM     19  C   UNL     1       0.494  10.650  21.445  0.00  0.00    +0.000 A 
ATOM     20  C   UNL     1       0.102  10.658  20.094  0.00  0.00    +0.000 A 
ATOM     21  C   UNL     1      -1.070  11.341  19.754  0.00  0.00    +0.000 A 
ATOM     22  C   UNL     1      -1.836  11.979  20.767  0.00  0.00    +0.000 A 
BRANCH  17  24
ATOM     23  N   UNL     1      -3.362  11.897  23.661  0.00  0.00    +0.000 N 
ATOM     24  C   UNL     1      -2.214  12.549  23.275  0.00  0.00    +0.000 C 
ATOM     25  O   UNL     1      -1.774  13.552  23.829  0.00  0.00    +0.000 OA
ATOM     26  H   UNL     1      -3.842  11.301  22.993  0.00  0.00    +0.000 HD
BRANCH  23  28
ATOM     27  C   UNL     1      -5.372  12.967  23.948  0.00  0.00    +0.000 C 
ATOM     28  O   UNL     1      -4.177  12.557  24.611  0.00  0.00    +0.000 OA
ENDBRANCH  23  28
ENDBRANCH  17  24
BRANCH  22  29
ATOM     29  O   UNL     1      -2.948  12.700  20.403  0.00  0.00    +0.000 OA
ATOM     30  H   UNL     1      -3.367  13.071  21.201  0.00  0.00    +0.000 HD
ENDBRANCH  22  29
ENDBRANCH   1  20
BRANCH  14  31
ATOM     31  C   UNL     1       8.131   5.756  19.484  0.00  0.00    +0.000 C 
BRANCH  31  32
ATOM     32  N   UNL     1       8.158   5.299  20.867  0.00  0.00    +0.000 NA
ATOM     33  H   UNL     1       9.124   5.093  21.118  0.00  0.00    +0.000 HD
ATOM     34  H   UNL     1       7.666   4.407  20.921  0.00  0.00    +0.000 HD
ENDBRANCH  31  32
ENDBRANCH  14  31
TORSDOF 6
ENDMDL
