MODEL 1
REMARK VINA RESULT:      -7.9      0.000      0.000
REMARK  Name = 
REMARK  8 active torsions:
REMARK  status: ('A' for Active; 'I' for Inactive)
REMARK    1  A    between atoms: C_2  and  C_3
REMARK    2  A    between atoms: C_3  and  C_4
REMARK    3  A    between atoms: C_3  and  C_22
REMARK    4  A    between atoms: C_4  and  C_6
REMARK    5  A    between atoms: C_6  and  C_12
REMARK    6  A    between atoms: N_7  and  N_8
REMARK    7  A    between atoms: C_12  and  C_13
REMARK    8  A    between atoms: C_12  and  C_15
REMARK                            x       y       z     vdW  Elec       q    Type
REMARK                         _______ _______ _______ _____ _____    ______ ____
ROOT
ATOM      1  C   UNL     1       4.923   5.233  17.718  0.00  0.00    +0.000 C 
ATOM      2  N   UNL     1       5.808   4.447  18.273  0.00  0.00    +0.000 NA
ENDROOT
BRANCH   2   3
ATOM      3  N   UNL     1       5.502   3.719  19.384  0.00  0.00    +0.000 N 
ATOM      4  C   UNL     1       4.840   2.517  19.296  0.00  0.00    +0.000 C 
ATOM      5  N   UNL     1       4.352   2.231  18.058  0.00  0.00    +0.000 N 
ATOM      6  O   UNL     1       4.678   1.763  20.245  0.00  0.00    +0.000 OA
ATOM      7  H   UNL     1       5.928   3.945  20.287  0.00  0.00    +0.000 HD
ATOM      8  H   UNL     1       4.823   2.689  17.293  0.00  0.00    +0.000 HD
ATOM      9  H   UNL     1       4.014   1.287  17.917  0.00  0.00    +0.000 HD
ENDBRANCH   2   3
BRANCH   1  10
ATOM     10  C   UNL     1       3.466   5.352  18.193  0.00  0.00    +0.000 C 
ATOM     11  O   UNL     1       2.597   4.844  17.486  0.00  0.00    +0.000 OA
BRANCH  10  12
ATOM     12  C   UNL     1       3.173   6.091  19.492  0.00  0.00    +0.000 C 
BRANCH  12  13
ATOM     13  C   UNL     1       2.364   7.372  19.288  0.00  0.00    +0.000 A 
ATOM     14  C   UNL     1       2.396   8.035  18.047  0.00  0.00    +0.000 A 
ATOM     15  C   UNL     1       1.741   9.259  17.877  0.00  0.00    +0.000 A 
ATOM     16  C   UNL     1       1.048   9.832  18.939  0.00  0.00    +0.000 A 
ATOM     17 CL   UNL     1       0.269  11.352  18.733  0.00  0.00    +0.000 Cl
ATOM     18  C   UNL     1       0.993   9.185  20.170  0.00  0.00    +0.000 A 
ATOM     19  C   UNL     1       1.645   7.961  20.344  0.00  0.00    +0.000 A 
ENDBRANCH  12  13
BRANCH  12  21
ATOM     20  N   UNL     1       1.819   4.398  21.233  0.00  0.00    +0.000 NA
ATOM     21  C   UNL     1       2.433   5.165  20.444  0.00  0.00    +0.000 C 
ENDBRANCH  12  21
ENDBRANCH  10  12
ENDBRANCH   1  10
BRANCH   1  22
ATOM     22  C   UNL     1       5.367   6.098  16.550  0.00  0.00    +0.000 C 
BRANCH  22  23
ATOM     23  C   UNL     1       5.805   5.277  15.342  0.00  0.00    +0.000 A 
ATOM     24  C   UNL     1       4.908   4.390  14.722  0.00  0.00    +0.000 A 
ATOM     25  C   UNL     1       5.281   3.698  13.564  0.00  0.00    +0.000 A 
ATOM     26  C   UNL     1       6.550   3.879  13.019  0.00  0.00    +0.000 A 
ATOM     27 CL   UNL     1       6.985   3.065  11.570  0.00  0.00    +0.000 Cl
ATOM     28  C   UNL     1       7.460   4.733  13.632  0.00  0.00    +0.000 A 
ATOM     29  C   UNL     1       7.088   5.428  14.784  0.00  0.00    +0.000 A 
ENDBRANCH  22  23
BRANCH  22  30
ATOM     30  C   UNL     1       6.423   7.019  17.009  0.00  0.00    +0.000 C 
ATOM     31  N   UNL     1       7.220   7.776  17.371  0.00  0.00    +0.000 NA
ENDBRANCH  22  30
ENDBRANCH   1  22
TORSDOF 8
ENDMDL
MODEL 2
REMARK VINA RESULT:      -7.7      5.832      9.446
REMARK  Name = 
REMARK  8 active torsions:
REMARK  status: ('A' for Active; 'I' for Inactive)
REMARK    1  A    between atoms: C_2  and  C_3
REMARK    2  A    between atoms: C_3  and  C_4
REMARK    3  A    between atoms: C_3  and  C_22
REMARK    4  A    between atoms: C_4  and  C_6
REMARK    5  A    between atoms: C_6  and  C_12
REMARK    6  A    between atoms: N_7  and  N_8
REMARK    7  A    between atoms: C_12  and  C_13
REMARK    8  A    between atoms: C_12  and  C_15
REMARK                            x       y       z     vdW  Elec       q    Type
REMARK                         _______ _______ _______ _____ _____    ______ ____
ROOT
ATOM      1  C   UNL     1      -0.689  12.069  19.381  0.00  0.00    +0.000 C 
ATOM      2  N   UNL     1      -0.428  13.067  18.578  0.00  0.00    +0.000 NA
ENDROOT
BRANCH   2   3
ATOM      3  N   UNL     1       0.805  13.647  18.555  0.00  0.00    +0.000 N 
ATOM      4  C   UNL     1       0.973  14.988  18.811  0.00  0.00    +0.000 C 
ATOM      5  N   UNL     1      -0.185  15.699  18.883  0.00  0.00    +0.000 N 
ATOM      6  O   UNL     1       2.067  15.518  18.949  0.00  0.00    +0.000 OA
ATOM      7  H   UNL     1       1.650  13.071  18.545  0.00  0.00    +0.000 HD
ATOM      8  H   UNL     1      -1.005  15.163  19.123  0.00  0.00    +0.000 HD
ATOM      9  H   UNL     1      -0.108  16.644  19.238  0.00  0.00    +0.000 HD
ENDBRANCH   2   3
BRANCH   1  10
ATOM     10  C   UNL     1       0.358  11.410  20.295  0.00  0.00    +0.000 C 
ATOM     11  O   UNL     1       1.297  12.107  20.675  0.00  0.00    +0.000 OA
BRANCH  10  12
ATOM     12  C   UNL     1       0.188   9.944  20.670  0.00  0.00    +0.000 C 
BRANCH  12  13
ATOM     13  C   UNL     1       1.132   9.013  19.911  0.00  0.00    +0.000 A 
ATOM     14  C   UNL     1       1.476   9.294  18.576  0.00  0.00    +0.000 A 
ATOM     15  C   UNL     1       2.259   8.400  17.839  0.00  0.00    +0.000 A 
ATOM     16  C   UNL     1       2.709   7.221  18.425  0.00  0.00    +0.000 A 
ATOM     17 CL   UNL     1       3.646   6.110  17.504  0.00  0.00    +0.000 Cl
ATOM     18  C   UNL     1       2.392   6.931  19.748  0.00  0.00    +0.000 A 
ATOM     19  C   UNL     1       1.611   7.823  20.489  0.00  0.00    +0.000 A 
ENDBRANCH  12  13
BRANCH  12  21
ATOM     20  N   UNL     1       0.576   9.641  23.407  0.00  0.00    +0.000 NA
ATOM     21  C   UNL     1       0.400   9.778  22.167  0.00  0.00    +0.000 C 
ENDBRANCH  12  21
ENDBRANCH  10  12
ENDBRANCH   1  10
BRANCH   1  22
ATOM     22  C   UNL     1      -2.114  11.545  19.434  0.00  0.00    +0.000 C 
BRANCH  22  23
ATOM     23  C   UNL     1      -2.622  11.082  18.073  0.00  0.00    +0.000 A 
ATOM     24  C   UNL     1      -3.803  11.620  17.534  0.00  0.00    +0.000 A 
ATOM     25  C   UNL     1      -4.226  11.259  16.250  0.00  0.00    +0.000 A 
ATOM     26  C   UNL     1      -3.481  10.354  15.497  0.00  0.00    +0.000 A 
ATOM     27 CL   UNL     1      -3.979   9.951  13.902  0.00  0.00    +0.000 Cl
ATOM     28  C   UNL     1      -2.323   9.791  16.022  0.00  0.00    +0.000 A 
ATOM     29  C   UNL     1      -1.897  10.155  17.301  0.00  0.00    +0.000 A 
ENDBRANCH  22  23
BRANCH  22  30
ATOM     30  C   UNL     1      -2.982  12.577  20.030  0.00  0.00    +0.000 C 
ATOM     31  N   UNL     1      -3.642  13.419  20.473  0.00  0.00    +0.000 NA
ENDBRANCH  22  30
ENDBRANCH   1  22
TORSDOF 8
ENDMDL
MODEL 3
REMARK VINA RESULT:      -7.4      1.201      1.862
REMARK  Name = 
REMARK  8 active torsions:
REMARK  status: ('A' for Active; 'I' for Inactive)
REMARK    1  A    between atoms: C_2  and  C_3
REMARK    2  A    between atoms: C_3  and  C_4
REMARK    3  A    between atoms: C_3  and  C_22
REMARK    4  A    between atoms: C_4  and  C_6
REMARK    5  A    between atoms: C_6  and  C_12
REMARK    6  A    between atoms: N_7  and  N_8
REMARK    7  A    between atoms: C_12  and  C_13
REMARK    8  A    between atoms: C_12  and  C_15
REMARK                            x       y       z     vdW  Elec       q    Type
REMARK                         _______ _______ _______ _____ _____    ______ ____
ROOT
ATOM      1  C   UNL     1       4.023   4.517  17.498  0.00  0.00    +0.000 C 
ATOM      2  N   UNL     1       4.061   3.220  17.336  0.00  0.00    +0.000 NA
ENDROOT
BRANCH   2   3
ATOM      3  N   UNL     1       3.045   2.427  17.781  0.00  0.00    +0.000 N 
ATOM      4  C   UNL     1       3.092   1.824  19.016  0.00  0.00    +0.000 C 
ATOM      5  N   UNL     1       4.295   1.921  19.646  0.00  0.00    +0.000 N 
ATOM      6  O   UNL     1       2.147   1.231  19.515  0.00  0.00    +0.000 OA
ATOM      7  H   UNL     1       2.142   2.420  17.299  0.00  0.00    +0.000 HD
ATOM      8  H   UNL     1       4.870   2.699  19.360  0.00  0.00    +0.000 HD
ATOM      9  H   UNL     1       4.314   1.643  20.619  0.00  0.00    +0.000 HD
ENDBRANCH   2   3
BRANCH   1  10
ATOM     10  C   UNL     1       2.830   5.269  18.111  0.00  0.00    +0.000 C 
ATOM     11  O   UNL     1       1.770   5.253  17.488  0.00  0.00    +0.000 OA
BRANCH  10  12
ATOM     12  C   UNL     1       3.021   5.996  19.436  0.00  0.00    +0.000 C 
BRANCH  12  13
ATOM     13  C   UNL     1       2.298   7.341  19.495  0.00  0.00    +0.000 A 
ATOM     14  C   UNL     1       1.573   7.702  20.645  0.00  0.00    +0.000 A 
ATOM     15  C   UNL     1       0.826   8.884  20.675  0.00  0.00    +0.000 A 
ATOM     16  C   UNL     1       0.797   9.718  19.561  0.00  0.00    +0.000 A 
ATOM     17 CL   UNL     1      -0.147  11.156  19.593  0.00  0.00    +0.000 Cl
ATOM     18  C   UNL     1       1.518   9.386  18.419  0.00  0.00    +0.000 A 
ATOM     19  C   UNL     1       2.267   8.207  18.385  0.00  0.00    +0.000 A 
ENDBRANCH  12  13
BRANCH  12  21
ATOM     20  N   UNL     1       2.143   4.371  21.515  0.00  0.00    +0.000 NA
ATOM     21  C   UNL     1       2.541   5.108  20.572  0.00  0.00    +0.000 C 
ENDBRANCH  12  21
ENDBRANCH  10  12
ENDBRANCH   1  10
BRANCH   1  22
ATOM     22  C   UNL     1       5.238   5.327  17.078  0.00  0.00    +0.000 C 
BRANCH  22  23
ATOM     23  C   UNL     1       5.719   4.982  15.673  0.00  0.00    +0.000 A 
ATOM     24  C   UNL     1       7.065   5.174  15.315  0.00  0.00    +0.000 A 
ATOM     25  C   UNL     1       7.526   4.780  14.054  0.00  0.00    +0.000 A 
ATOM     26  C   UNL     1       6.651   4.199  13.139  0.00  0.00    +0.000 A 
ATOM     27 CL   UNL     1       7.234   3.673  11.610  0.00  0.00    +0.000 Cl
ATOM     28  C   UNL     1       5.311   4.023  13.465  0.00  0.00    +0.000 A 
ATOM     29  C   UNL     1       4.850   4.411  14.724  0.00  0.00    +0.000 A 
ENDBRANCH  22  23
BRANCH  22  30
ATOM     30  C   UNL     1       6.300   5.156  18.087  0.00  0.00    +0.000 C 
ATOM     31  N   UNL     1       7.101   5.021  18.912  0.00  0.00    +0.000 NA
ENDBRANCH  22  30
ENDBRANCH   1  22
TORSDOF 8
ENDMDL
MODEL 4
REMARK VINA RESULT:      -7.3      1.271      1.631
REMARK  Name = 
REMARK  8 active torsions:
REMARK  status: ('A' for Active; 'I' for Inactive)
REMARK    1  A    between atoms: C_2  and  C_3
REMARK    2  A    between atoms: C_3  and  C_4
REMARK    3  A    between atoms: C_3  and  C_22
REMARK    4  A    between atoms: C_4  and  C_6
REMARK    5  A    between atoms: C_6  and  C_12
REMARK    6  A    between atoms: N_7  and  N_8
REMARK    7  A    between atoms: C_12  and  C_13
REMARK    8  A    between atoms: C_12  and  C_15
REMARK                            x       y       z     vdW  Elec       q    Type
REMARK                         _______ _______ _______ _____ _____    ______ ____
ROOT
ATOM      1  C   UNL     1       4.683   4.873  17.619  0.00  0.00    +0.000 C 
ATOM      2  N   UNL     1       4.832   3.586  17.441  0.00  0.00    +0.000 NA
ENDROOT
BRANCH   2   3
ATOM      3  N   UNL     1       4.654   2.709  18.468  0.00  0.00    +0.000 N 
ATOM      4  C   UNL     1       3.725   1.697  18.397  0.00  0.00    +0.000 C 
ATOM      5  N   UNL     1       2.886   1.776  17.329  0.00  0.00    +0.000 N 
ATOM      6  O   UNL     1       3.635   0.802  19.225  0.00  0.00    +0.000 OA
ATOM      7  H   UNL     1       5.336   2.654  19.229  0.00  0.00    +0.000 HD
ATOM      8  H   UNL     1       3.243   2.291  16.537  0.00  0.00    +0.000 HD
ATOM      9  H   UNL     1       2.309   0.963  17.151  0.00  0.00    +0.000 HD
ENDBRANCH   2   3
BRANCH   1  10
ATOM     10  C   UNL     1       4.222   5.506  18.943  0.00  0.00    +0.000 C 
ATOM     11  O   UNL     1       5.091   5.792  19.765  0.00  0.00    +0.000 OA
BRANCH  10  12
ATOM     12  C   UNL     1       2.734   5.734  19.171  0.00  0.00    +0.000 C 
BRANCH  12  13
ATOM     13  C   UNL     1       2.331   7.206  19.091  0.00  0.00    +0.000 A 
ATOM     14  C   UNL     1       1.746   7.838  20.203  0.00  0.00    +0.000 A 
ATOM     15  C   UNL     1       1.282   9.154  20.113  0.00  0.00    +0.000 A 
ATOM     16  C   UNL     1       1.398   9.853  18.914  0.00  0.00    +0.000 A 
ATOM     17 CL   UNL     1       0.798  11.461  18.800  0.00  0.00    +0.000 Cl
ATOM     18  C   UNL     1       1.986   9.250  17.807  0.00  0.00    +0.000 A 
ATOM     19  C   UNL     1       2.452   7.935  17.893  0.00  0.00    +0.000 A 
ENDBRANCH  12  13
BRANCH  12  21
ATOM     20  N   UNL     1       1.278   4.263  17.313  0.00  0.00    +0.000 NA
ATOM     21  C   UNL     1       1.938   4.930  18.155  0.00  0.00    +0.000 C 
ENDBRANCH  12  21
ENDBRANCH  10  12
ENDBRANCH   1  10
BRANCH   1  22
ATOM     22  C   UNL     1       5.005   5.799  16.459  0.00  0.00    +0.000 C 
BRANCH  22  23
ATOM     23  C   UNL     1       5.559   5.057  15.249  0.00  0.00    +0.000 A 
ATOM     24  C   UNL     1       4.699   4.338  14.400  0.00  0.00    +0.000 A 
ATOM     25  C   UNL     1       5.192   3.725  13.243  0.00  0.00    +0.000 A 
ATOM     26  C   UNL     1       6.545   3.817  12.925  0.00  0.00    +0.000 A 
ATOM     27 CL   UNL     1       7.137   3.104  11.478  0.00  0.00    +0.000 Cl
ATOM     28  C   UNL     1       7.417   4.501  13.765  0.00  0.00    +0.000 A 
ATOM     29  C   UNL     1       6.926   5.118  14.917  0.00  0.00    +0.000 A 
ENDBRANCH  22  23
BRANCH  22  30
ATOM     30  C   UNL     1       5.920   6.856  16.929  0.00  0.00    +0.000 C 
ATOM     31  N   UNL     1       6.655   7.655  17.331  0.00  0.00    +0.000 NA
ENDBRANCH  22  30
ENDBRANCH   1  22
TORSDOF 8
ENDMDL
MODEL 5
REMARK VINA RESULT:      -7.3      1.240      1.391
REMARK  Name = 
REMARK  8 active torsions:
REMARK  status: ('A' for Active; 'I' for Inactive)
REMARK    1  A    between atoms: C_2  and  C_3
REMARK    2  A    between atoms: C_3  and  C_4
REMARK    3  A    between atoms: C_3  and  C_22
REMARK    4  A    between atoms: C_4  and  C_6
REMARK    5  A    between atoms: C_6  and  C_12
REMARK    6  A    between atoms: N_7  and  N_8
REMARK    7  A    between atoms: C_12  and  C_13
REMARK    8  A    between atoms: C_12  and  C_15
REMARK                            x       y       z     vdW  Elec       q    Type
REMARK                         _______ _______ _______ _____ _____    ______ ____
ROOT
ATOM      1  C   UNL     1       4.008   4.528  17.563  0.00  0.00    +0.000 C 
ATOM      2  N   UNL     1       4.047   3.230  17.407  0.00  0.00    +0.000 NA
ENDROOT
BRANCH   2   3
ATOM      3  N   UNL     1       3.018   2.440  17.825  0.00  0.00    +0.000 N 
ATOM      4  C   UNL     1       3.049   1.805  19.044  0.00  0.00    +0.000 C 
ATOM      5  N   UNL     1       4.249   1.867  19.683  0.00  0.00    +0.000 N 
ATOM      6  O   UNL     1       2.092   1.212  19.522  0.00  0.00    +0.000 OA
ATOM      7  H   UNL     1       2.118   2.459  17.338  0.00  0.00    +0.000 HD
ATOM      8  H   UNL     1       4.837   2.645  19.421  0.00  0.00    +0.000 HD
ATOM      9  H   UNL     1       4.258   1.563  20.649  0.00  0.00    +0.000 HD
ENDBRANCH   2   3
BRANCH   1  10
ATOM     10  C   UNL     1       2.799   5.284  18.139  0.00  0.00    +0.000 C 
ATOM     11  O   UNL     1       1.757   5.266  17.486  0.00  0.00    +0.000 OA
BRANCH  10  12
ATOM     12  C   UNL     1       2.953   6.016  19.465  0.00  0.00    +0.000 C 
BRANCH  12  13
ATOM     13  C   UNL     1       2.166   7.325  19.526  0.00  0.00    +0.000 A 
ATOM     14  C   UNL     1       2.180   8.208  18.431  0.00  0.00    +0.000 A 
ATOM     15  C   UNL     1       1.547   9.452  18.510  0.00  0.00    +0.000 A 
ATOM     16  C   UNL     1       0.892   9.827  19.679  0.00  0.00    +0.000 A 
ATOM     17 CL   UNL     1       0.140  11.371  19.782  0.00  0.00    +0.000 Cl
ATOM     18  C   UNL     1       0.854   8.963  20.769  0.00  0.00    +0.000 A 
ATOM     19  C   UNL     1       1.484   7.717  20.693  0.00  0.00    +0.000 A 
ENDBRANCH  12  13
BRANCH  12  21
ATOM     20  N   UNL     1       2.153   4.347  21.540  0.00  0.00    +0.000 NA
ATOM     21  C   UNL     1       2.515   5.104  20.600  0.00  0.00    +0.000 C 
ENDBRANCH  12  21
ENDBRANCH  10  12
ENDBRANCH   1  10
BRANCH   1  22
ATOM     22  C   UNL     1       5.236   5.334  17.176  0.00  0.00    +0.000 C 
BRANCH  22  23
ATOM     23  C   UNL     1       5.785   4.949  15.807  0.00  0.00    +0.000 A 
ATOM     24  C   UNL     1       4.960   4.317  14.861  0.00  0.00    +0.000 A 
ATOM     25  C   UNL     1       5.437   4.038  13.576  0.00  0.00    +0.000 A 
ATOM     26  C   UNL     1       6.741   4.380  13.224  0.00  0.00    +0.000 A 
ATOM     27 CL   UNL     1       7.306   4.080  11.630  0.00  0.00    +0.000 Cl
ATOM     28  C   UNL     1       7.581   4.983  14.153  0.00  0.00    +0.000 A 
ATOM     29  C   UNL     1       7.105   5.266  15.435  0.00  0.00    +0.000 A 
ENDBRANCH  22  23
BRANCH  22  30
ATOM     30  C   UNL     1       6.250   5.203  18.238  0.00  0.00    +0.000 C 
ATOM     31  N   UNL     1       7.070   5.135  19.052  0.00  0.00    +0.000 NA
ENDBRANCH  22  30
ENDBRANCH   1  22
TORSDOF 8
ENDMDL
MODEL 6
REMARK VINA RESULT:      -7.3      2.930      6.209
REMARK  Name = 
REMARK  8 active torsions:
REMARK  status: ('A' for Active; 'I' for Inactive)
REMARK    1  A    between atoms: C_2  and  C_3
REMARK    2  A    between atoms: C_3  and  C_4
REMARK    3  A    between atoms: C_3  and  C_22
REMARK    4  A    between atoms: C_4  and  C_6
REMARK    5  A    between atoms: C_6  and  C_12
REMARK    6  A    between atoms: N_7  and  N_8
REMARK    7  A    between atoms: C_12  and  C_13
REMARK    8  A    between atoms: C_12  and  C_15
REMARK                            x       y       z     vdW  Elec       q    Type
REMARK                         _______ _______ _______ _____ _____    ______ ____
ROOT
ATOM      1  C   UNL     1       4.262   4.572  18.590  0.00  0.00    +0.000 C 
ATOM      2  N   UNL     1       4.008   3.409  19.131  0.00  0.00    +0.000 NA
ENDROOT
BRANCH   2   3
ATOM      3  N   UNL     1       4.985   2.701  19.764  0.00  0.00    +0.000 N 
ATOM      4  C   UNL     1       4.721   1.968  20.898  0.00  0.00    +0.000 C 
ATOM      5  N   UNL     1       3.485   2.174  21.429  0.00  0.00    +0.000 N 
ATOM      6  O   UNL     1       5.525   1.202  21.410  0.00  0.00    +0.000 OA
ATOM      7  H   UNL     1       5.885   2.533  19.307  0.00  0.00    +0.000 HD
ATOM      8  H   UNL     1       2.788   2.507  20.780  0.00  0.00    +0.000 HD
ATOM      9  H   UNL     1       3.196   1.530  22.155  0.00  0.00    +0.000 HD
ENDBRANCH   2   3
BRANCH   1  10
ATOM     10  C   UNL     1       5.624   5.279  18.680  0.00  0.00    +0.000 C 
ATOM     11  O   UNL     1       6.232   5.203  19.747  0.00  0.00    +0.000 OA
BRANCH  10  12
ATOM     12  C   UNL     1       6.142   6.037  17.465  0.00  0.00    +0.000 C 
BRANCH  12  13
ATOM     13  C   UNL     1       6.975   7.265  17.830  0.00  0.00    +0.000 A 
ATOM     14  C   UNL     1       6.694   8.509  17.236  0.00  0.00    +0.000 A 
ATOM     15  C   UNL     1       7.510   9.618  17.485  0.00  0.00    +0.000 A 
ATOM     16  C   UNL     1       8.610   9.498  18.329  0.00  0.00    +0.000 A 
ATOM     17 CL   UNL     1       9.627  10.857  18.609  0.00  0.00    +0.000 Cl
ATOM     18  C   UNL     1       8.896   8.280  18.937  0.00  0.00    +0.000 A 
ATOM     19  C   UNL     1       8.083   7.169  18.693  0.00  0.00    +0.000 A 
ENDBRANCH  12  13
BRANCH  12  21
ATOM     20  N   UNL     1       7.652   4.320  15.880  0.00  0.00    +0.000 NA
ATOM     21  C   UNL     1       6.967   5.098  16.599  0.00  0.00    +0.000 C 
ENDBRANCH  12  21
ENDBRANCH  10  12
ENDBRANCH   1  10
BRANCH   1  22
ATOM     22  C   UNL     1       3.154   5.254  17.805  0.00  0.00    +0.000 C 
BRANCH  22  23
ATOM     23  C   UNL     1       2.682   6.549  18.456  0.00  0.00    +0.000 A 
ATOM     24  C   UNL     1       2.583   7.730  17.702  0.00  0.00    +0.000 A 
ATOM     25  C   UNL     1       2.071   8.899  18.276  0.00  0.00    +0.000 A 
ATOM     26  C   UNL     1       1.660   8.902  19.608  0.00  0.00    +0.000 A 
ATOM     27 CL   UNL     1       0.987  10.326  20.294  0.00  0.00    +0.000 Cl
ATOM     28  C   UNL     1       1.773   7.750  20.378  0.00  0.00    +0.000 A 
ATOM     29  C   UNL     1       2.279   6.582  19.805  0.00  0.00    +0.000 A 
ENDBRANCH  22  23
BRANCH  22  30
ATOM     30  C   UNL     1       2.050   4.298  17.604  0.00  0.00    +0.000 C 
ATOM     31  N   UNL     1       1.200   3.537  17.404  0.00  0.00    +0.000 NA
ENDBRANCH  22  30
ENDBRANCH   1  22
TORSDOF 8
ENDMDL
MODEL 7
REMARK VINA RESULT:      -7.1      2.492      3.491
REMARK  Name = 
REMARK  8 active torsions:
REMARK  status: ('A' for Active; 'I' for Inactive)
REMARK    1  A    between atoms: C_2  and  C_3
REMARK    2  A    between atoms: C_3  and  C_4
REMARK    3  A    between atoms: C_3  and  C_22
REMARK    4  A    between atoms: C_4  and  C_6
REMARK    5  A    between atoms: C_6  and  C_12
REMARK    6  A    between atoms: N_7  and  N_8
REMARK    7  A    between atoms: C_12  and  C_13
REMARK    8  A    between atoms: C_12  and  C_15
REMARK                            x       y       z     vdW  Elec       q    Type
REMARK                         _______ _______ _______ _____ _____    ______ ____
ROOT
ATOM      1  C   UNL     1       4.611   3.952  17.970  0.00  0.00    +0.000 C 
ATOM      2  N   UNL     1       4.569   2.784  18.556  0.00  0.00    +0.000 NA
ENDROOT
BRANCH   2   3
ATOM      3  N   UNL     1       3.556   2.461  19.409  0.00  0.00    +0.000 N 
ATOM      4  C   UNL     1       2.390   1.890  18.956  0.00  0.00    +0.000 C 
ATOM      5  N   UNL     1       2.262   1.867  17.601  0.00  0.00    +0.000 N 
ATOM      6  O   UNL     1       1.522   1.449  19.695  0.00  0.00    +0.000 OA
ATOM      7  H   UNL     1       3.712   2.450  20.420  0.00  0.00    +0.000 HD
ATOM      8  H   UNL     1       3.129   1.898  17.086  0.00  0.00    +0.000 HD
ATOM      9  H   UNL     1       1.505   1.303  17.233  0.00  0.00    +0.000 HD
ENDBRANCH   2   3
BRANCH   1  10
ATOM     10  C   UNL     1       3.514   5.020  18.110  0.00  0.00    +0.000 C 
ATOM     11  O   UNL     1       2.708   5.127  17.188  0.00  0.00    +0.000 OA
BRANCH  10  12
ATOM     12  C   UNL     1       3.486   5.886  19.363  0.00  0.00    +0.000 C 
BRANCH  12  13
ATOM     13  C   UNL     1       2.759   7.215  19.160  0.00  0.00    +0.000 A 
ATOM     14  C   UNL     1       1.902   7.710  20.160  0.00  0.00    +0.000 A 
ATOM     15  C   UNL     1       1.156   8.873  19.947  0.00  0.00    +0.000 A 
ATOM     16  C   UNL     1       1.258   9.555  18.738  0.00  0.00    +0.000 A 
ATOM     17 CL   UNL     1       0.315  10.969  18.470  0.00  0.00    +0.000 Cl
ATOM     18  C   UNL     1       2.110   9.091  17.742  0.00  0.00    +0.000 A 
ATOM     19  C   UNL     1       2.860   7.929  17.951  0.00  0.00    +0.000 A 
ENDBRANCH  12  13
BRANCH  12  21
ATOM     20  N   UNL     1       2.289   4.474  21.437  0.00  0.00    +0.000 NA
ATOM     21  C   UNL     1       2.831   5.114  20.497  0.00  0.00    +0.000 C 
ENDBRANCH  12  21
ENDBRANCH  10  12
ENDBRANCH   1  10
BRANCH   1  22
ATOM     22  C   UNL     1       5.827   4.284  17.121  0.00  0.00    +0.000 C 
BRANCH  22  23
ATOM     23  C   UNL     1       6.532   5.557  17.574  0.00  0.00    +0.000 A 
ATOM     24  C   UNL     1       7.483   5.514  18.607  0.00  0.00    +0.000 A 
ATOM     25  C   UNL     1       8.193   6.665  18.968  0.00  0.00    +0.000 A 
ATOM     26  C   UNL     1       7.955   7.868  18.308  0.00  0.00    +0.000 A 
ATOM     27 CL   UNL     1       8.863   9.267  18.723  0.00  0.00    +0.000 Cl
ATOM     28  C   UNL     1       7.000   7.938  17.301  0.00  0.00    +0.000 A 
ATOM     29  C   UNL     1       6.295   6.789  16.936  0.00  0.00    +0.000 A 
ENDBRANCH  22  23
BRANCH  22  30
ATOM     30  C   UNL     1       5.419   4.348  15.706  0.00  0.00    +0.000 C 
ATOM     31  N   UNL     1       5.103   4.353  14.592  0.00  0.00    +0.000 NA
ENDBRANCH  22  30
ENDBRANCH   1  22
TORSDOF 8
ENDMDL
MODEL 8
REMARK VINA RESULT:      -7.1      1.719      6.635
REMARK  Name = 
REMARK  8 active torsions:
REMARK  status: ('A' for Active; 'I' for Inactive)
REMARK    1  A    between atoms: C_2  and  C_3
REMARK    2  A    between atoms: C_3  and  C_4
REMARK    3  A    between atoms: C_3  and  C_22
REMARK    4  A    between atoms: C_4  and  C_6
REMARK    5  A    between atoms: C_6  and  C_12
REMARK    6  A    between atoms: N_7  and  N_8
REMARK    7  A    between atoms: C_12  and  C_13
REMARK    8  A    between atoms: C_12  and  C_15
REMARK                            x       y       z     vdW  Elec       q    Type
REMARK                         _______ _______ _______ _____ _____    ______ ____
ROOT
ATOM      1  C   UNL     1       4.121   5.215  17.955  0.00  0.00    +0.000 C 
ATOM      2  N   UNL     1       3.004   4.670  17.546  0.00  0.00    +0.000 NA
ENDROOT
BRANCH   2   3
ATOM      3  N   UNL     1       2.828   3.319  17.582  0.00  0.00    +0.000 N 
ATOM      4  C   UNL     1       2.057   2.720  18.551  0.00  0.00    +0.000 C 
ATOM      5  N   UNL     1       1.670   3.551  19.558  0.00  0.00    +0.000 N 
ATOM      6  O   UNL     1       1.750   1.536  18.535  0.00  0.00    +0.000 OA
ATOM      7  H   UNL     1       3.095   2.738  16.783  0.00  0.00    +0.000 HD
ATOM      8  H   UNL     1       1.642   4.531  19.320  0.00  0.00    +0.000 HD
ATOM      9  H   UNL     1       0.965   3.190  20.189  0.00  0.00    +0.000 HD
ENDBRANCH   2   3
BRANCH   1  10
ATOM     10  C   UNL     1       5.282   4.423  18.578  0.00  0.00    +0.000 C 
ATOM     11  O   UNL     1       5.047   3.786  19.604  0.00  0.00    +0.000 OA
BRANCH  10  12
ATOM     12  C   UNL     1       6.649   4.474  17.909  0.00  0.00    +0.000 C 
BRANCH  12  13
ATOM     13  C   UNL     1       6.578   4.400  16.385  0.00  0.00    +0.000 A 
ATOM     14  C   UNL     1       5.682   3.511  15.763  0.00  0.00    +0.000 A 
ATOM     15  C   UNL     1       5.676   3.362  14.372  0.00  0.00    +0.000 A 
ATOM     16  C   UNL     1       6.560   4.098  13.589  0.00  0.00    +0.000 A 
ATOM     17 CL   UNL     1       6.570   3.888  11.882  0.00  0.00    +0.000 Cl
ATOM     18  C   UNL     1       7.445   4.992  14.183  0.00  0.00    +0.000 A 
ATOM     19  C   UNL     1       7.453   5.146  15.573  0.00  0.00    +0.000 A 
ENDBRANCH  12  13
BRANCH  12  21
ATOM     20  N   UNL     1       7.966   6.802  18.673  0.00  0.00    +0.000 NA
ATOM     21  C   UNL     1       7.369   5.746  18.327  0.00  0.00    +0.000 C 
ENDBRANCH  12  21
ENDBRANCH  10  12
ENDBRANCH   1  10
BRANCH   1  22
ATOM     22  C   UNL     1       4.290   6.715  17.783  0.00  0.00    +0.000 C 
BRANCH  22  23
ATOM     23  C   UNL     1       3.122   7.509  18.356  0.00  0.00    +0.000 A 
ATOM     24  C   UNL     1       2.621   7.215  19.636  0.00  0.00    +0.000 A 
ATOM     25  C   UNL     1       1.605   7.996  20.197  0.00  0.00    +0.000 A 
ATOM     26  C   UNL     1       1.076   9.071  19.487  0.00  0.00    +0.000 A 
ATOM     27 CL   UNL     1      -0.138  10.056  20.201  0.00  0.00    +0.000 Cl
ATOM     28  C   UNL     1       1.540   9.363  18.209  0.00  0.00    +0.000 A 
ATOM     29  C   UNL     1       2.557   8.588  17.650  0.00  0.00    +0.000 A 
ENDBRANCH  22  23
BRANCH  22  30
ATOM     30  C   UNL     1       4.517   7.011  16.357  0.00  0.00    +0.000 C 
ATOM     31  N   UNL     1       4.741   7.232  15.242  0.00  0.00    +0.000 NA
ENDBRANCH  22  30
ENDBRANCH   1  22
TORSDOF 8
ENDMDL
MODEL 9
REMARK VINA RESULT:      -7.1      1.733      6.428
REMARK  Name = 
REMARK  8 active torsions:
REMARK  status: ('A' for Active; 'I' for Inactive)
REMARK    1  A    between atoms: C_2  and  C_3
REMARK    2  A    between atoms: C_3  and  C_4
REMARK    3  A    between atoms: C_3  and  C_22
REMARK    4  A    between atoms: C_4  and  C_6
REMARK    5  A    between atoms: C_6  and  C_12
REMARK    6  A    between atoms: N_7  and  N_8
REMARK    7  A    between atoms: C_12  and  C_13
REMARK    8  A    between atoms: C_12  and  C_15
REMARK                            x       y       z     vdW  Elec       q    Type
REMARK                         _______ _______ _______ _____ _____    ______ ____
ROOT
ATOM      1  C   UNL     1       4.173   4.400  18.627  0.00  0.00    +0.000 C 
ATOM      2  N   UNL     1       4.023   3.149  18.975  0.00  0.00    +0.000 NA
ENDROOT
BRANCH   2   3
ATOM      3  N   UNL     1       5.022   2.472  19.610  0.00  0.00    +0.000 N 
ATOM      4  C   UNL     1       4.815   1.855  20.821  0.00  0.00    +0.000 C 
ATOM      5  N   UNL     1       3.621   2.147  21.407  0.00  0.00    +0.000 N 
ATOM      6  O   UNL     1       5.631   1.115  21.352  0.00  0.00    +0.000 OA
ATOM      7  H   UNL     1       5.886   2.236  19.115  0.00  0.00    +0.000 HD
ATOM      8  H   UNL     1       2.892   2.440  20.775  0.00  0.00    +0.000 HD
ATOM      9  H   UNL     1       3.364   1.581  22.206  0.00  0.00    +0.000 HD
ENDBRANCH   2   3
BRANCH   1  10
ATOM     10  C   UNL     1       5.418   5.239  18.961  0.00  0.00    +0.000 C 
ATOM     11  O   UNL     1       5.363   5.962  19.954  0.00  0.00    +0.000 OA
BRANCH  10  12
ATOM     12  C   UNL     1       6.636   5.141  18.053  0.00  0.00    +0.000 C 
BRANCH  12  13
ATOM     13  C   UNL     1       6.280   4.860  16.594  0.00  0.00    +0.000 A 
ATOM     14  C   UNL     1       5.708   5.872  15.801  0.00  0.00    +0.000 A 
ATOM     15  C   UNL     1       5.287   5.601  14.495  0.00  0.00    +0.000 A 
ATOM     16  C   UNL     1       5.432   4.321  13.967  0.00  0.00    +0.000 A 
ATOM     17 CL   UNL     1       4.884   3.986  12.371  0.00  0.00    +0.000 Cl
ATOM     18  C   UNL     1       6.008   3.311  14.730  0.00  0.00    +0.000 A 
ATOM     19  C   UNL     1       6.433   3.577  16.035  0.00  0.00    +0.000 A 
ENDBRANCH  12  13
BRANCH  12  21
ATOM     20  N   UNL     1       8.104   7.497  18.220  0.00  0.00    +0.000 NA
ATOM     21  C   UNL     1       7.439   6.429  18.144  0.00  0.00    +0.000 C 
ENDBRANCH  12  21
ENDBRANCH  10  12
ENDBRANCH   1  10
BRANCH   1  22
ATOM     22  C   UNL     1       3.063   5.059  17.825  0.00  0.00    +0.000 C 
BRANCH  22  23
ATOM     23  C   UNL     1       2.634   6.401  18.405  0.00  0.00    +0.000 A 
ATOM     24  C   UNL     1       2.694   7.567  17.622  0.00  0.00    +0.000 A 
ATOM     25  C   UNL     1       2.223   8.785  18.124  0.00  0.00    +0.000 A 
ATOM     26  C   UNL     1       1.696   8.854  19.411  0.00  0.00    +0.000 A 
ATOM     27 CL   UNL     1       1.074  10.342  20.005  0.00  0.00    +0.000 Cl
ATOM     28  C   UNL     1       1.651   7.718  20.212  0.00  0.00    +0.000 A 
ATOM     29  C   UNL     1       2.116   6.501  19.711  0.00  0.00    +0.000 A 
ENDBRANCH  22  23
BRANCH  22  30
ATOM     30  C   UNL     1       1.934   4.118  17.708  0.00  0.00    +0.000 C 
ATOM     31  N   UNL     1       1.032   3.403  17.579  0.00  0.00    +0.000 NA
ENDBRANCH  22  30
ENDBRANCH   1  22
TORSDOF 8
ENDMDL
