MODEL 1
REMARK VINA RESULT:      -7.7      0.000      0.000
REMARK  Name = 
REMARK  5 active torsions:
REMARK  status: ('A' for Active; 'I' for Inactive)
REMARK    1  A    between atoms: C_1  and  C_2
REMARK    2  A    between atoms: N_5  and  C_6
REMARK    3  A    between atoms: C_6  and  C_7
REMARK    4  A    between atoms: C_12  and  C_14
REMARK    5  A    between atoms: C_19  and  N_20
REMARK                            x       y       z     vdW  Elec       q    Type
REMARK                         _______ _______ _______ _____ _____    ______ ____
ROOT
ATOM      1  C   UNL     1       5.868   6.408  17.473  0.00  0.00    +0.000 C 
ATOM      2  C   UNL     1       7.375   6.334  17.741  0.00  0.00    +0.000 C 
ATOM      3  C   UNL     1       7.477   5.799  19.157  0.00  0.00    +0.000 C 
ATOM      4  C   UNL     1       6.226   4.958  19.348  0.00  0.00    +0.000 C 
ATOM      5  N   UNL     1       5.310   5.303  18.267  0.00  0.00    +0.000 N 
ATOM      6  C   UNL     1       3.929   5.026  18.297  0.00  0.00    +0.000 C 
ATOM      7  O   UNL     1       3.179   5.542  17.464  0.00  0.00    +0.000 OA
ENDROOT
BRANCH   6   8
ATOM      8  C   UNL     1       3.334   4.175  19.407  0.00  0.00    +0.000 A 
ATOM      9  N   UNL     1       2.768   4.821  20.471  0.00  0.00    +0.000 NA
ATOM     10  C   UNL     1       2.046   4.057  21.318  0.00  0.00    +0.000 A 
ATOM     11  C   UNL     1       1.879   2.702  21.125  0.00  0.00    +0.000 A 
ATOM     12  N   UNL     1       2.473   2.039  20.107  0.00  0.00    +0.000 NA
ATOM     13  C   UNL     1       3.221   2.779  19.250  0.00  0.00    +0.000 A 
BRANCH  13  14
ATOM     14  N   UNL     1       3.919   2.023  18.320  0.00  0.00    +0.000 N 
ATOM     15  H   UNL     1       3.893   2.459  17.407  0.00  0.00    +0.000 HD
ATOM     16  H   UNL     1       4.825   1.691  18.640  0.00  0.00    +0.000 HD
ENDBRANCH  13  14
ENDBRANCH   6   8
BRANCH   1  17
ATOM     17  C   UNL     1       5.549   6.535  15.977  0.00  0.00    +0.000 C 
BRANCH  17  22
ATOM     18  C   UNL     1       5.725   3.047  12.423  0.00  0.00    +0.000 C 
ATOM     19  C   UNL     1       6.104   4.021  13.467  0.00  0.00    +0.000 A 
ATOM     20  C   UNL     1       7.352   4.659  13.661  0.00  0.00    +0.000 A 
ATOM     21  N   UNL     1       7.325   5.535  14.663  0.00  0.00    +0.000 NA
ATOM     22  N   UNL     1       6.050   5.484  15.110  0.00  0.00    +0.000 N 
ATOM     23  C   UNL     1       5.301   4.552  14.454  0.00  0.00    +0.000 A 
ENDBRANCH  17  22
ENDBRANCH   1  17
TORSDOF 4
ENDMDL
MODEL 2
REMARK VINA RESULT:      -7.7      1.410      1.816
REMARK  Name = 
REMARK  5 active torsions:
REMARK  status: ('A' for Active; 'I' for Inactive)
REMARK    1  A    between atoms: C_1  and  C_2
REMARK    2  A    between atoms: N_5  and  C_6
REMARK    3  A    between atoms: C_6  and  C_7
REMARK    4  A    between atoms: C_12  and  C_14
REMARK    5  A    between atoms: C_19  and  N_20
REMARK                            x       y       z     vdW  Elec       q    Type
REMARK                         _______ _______ _______ _____ _____    ______ ____
ROOT
ATOM      1  C   UNL     1       4.909   5.784  16.917  0.00  0.00    +0.000 C 
ATOM      2  C   UNL     1       4.672   7.298  16.926  0.00  0.00    +0.000 C 
ATOM      3  C   UNL     1       3.325   7.462  17.604  0.00  0.00    +0.000 C 
ATOM      4  C   UNL     1       3.209   6.269  18.536  0.00  0.00    +0.000 C 
ATOM      5  N   UNL     1       4.232   5.310  18.133  0.00  0.00    +0.000 N 
ATOM      6  C   UNL     1       4.212   3.949  18.497  0.00  0.00    +0.000 C 
ATOM      7  O   UNL     1       4.973   3.152  17.942  0.00  0.00    +0.000 OA
ENDROOT
BRANCH   6   8
ATOM      8  C   UNL     1       3.194   3.431  19.499  0.00  0.00    +0.000 A 
ATOM      9  N   UNL     1       3.204   3.972  20.755  0.00  0.00    +0.000 NA
ATOM     10  C   UNL     1       2.151   3.670  21.544  0.00  0.00    +0.000 A 
ATOM     11  C   UNL     1       1.117   2.867  21.113  0.00  0.00    +0.000 A 
ATOM     12  N   UNL     1       1.115   2.284  19.893  0.00  0.00    +0.000 NA
ATOM     13  C   UNL     1       2.170   2.555  19.085  0.00  0.00    +0.000 A 
BRANCH  13  14
ATOM     14  N   UNL     1       2.183   1.815  17.912  0.00  0.00    +0.000 N 
ATOM     15  H   UNL     1       2.779   2.248  17.217  0.00  0.00    +0.000 HD
ATOM     16  H   UNL     1       2.294   0.813  18.046  0.00  0.00    +0.000 HD
ENDBRANCH  13  14
ENDBRANCH   6   8
BRANCH   1  17
ATOM     17  C   UNL     1       6.376   5.426  16.649  0.00  0.00    +0.000 C 
BRANCH  17  22
ATOM     18  C   UNL     1       5.802   3.219  12.219  0.00  0.00    +0.000 C 
ATOM     19  C   UNL     1       6.365   3.964  13.364  0.00  0.00    +0.000 A 
ATOM     20  C   UNL     1       7.420   4.907  13.366  0.00  0.00    +0.000 A 
ATOM     21  N   UNL     1       7.624   5.439  14.569  0.00  0.00    +0.000 NA
ATOM     22  N   UNL     1       6.685   4.858  15.349  0.00  0.00    +0.000 N 
ATOM     23  C   UNL     1       5.945   3.930  14.677  0.00  0.00    +0.000 A 
ENDBRANCH  17  22
ENDBRANCH   1  17
TORSDOF 4
ENDMDL
MODEL 3
REMARK VINA RESULT:      -7.5      0.707      1.538
REMARK  Name = 
REMARK  5 active torsions:
REMARK  status: ('A' for Active; 'I' for Inactive)
REMARK    1  A    between atoms: C_1  and  C_2
REMARK    2  A    between atoms: N_5  and  C_6
REMARK    3  A    between atoms: C_6  and  C_7
REMARK    4  A    between atoms: C_12  and  C_14
REMARK    5  A    between atoms: C_19  and  N_20
REMARK                            x       y       z     vdW  Elec       q    Type
REMARK                         _______ _______ _______ _____ _____    ______ ____
ROOT
ATOM      1  C   UNL     1       5.850   6.409  17.501  0.00  0.00    +0.000 C 
ATOM      2  C   UNL     1       7.346   6.269  17.801  0.00  0.00    +0.000 C 
ATOM      3  C   UNL     1       7.395   5.722  19.216  0.00  0.00    +0.000 C 
ATOM      4  C   UNL     1       6.105   4.935  19.375  0.00  0.00    +0.000 C 
ATOM      5  N   UNL     1       5.228   5.325  18.277  0.00  0.00    +0.000 N 
ATOM      6  C   UNL     1       3.836   5.107  18.275  0.00  0.00    +0.000 C 
ATOM      7  O   UNL     1       3.127   5.659  17.429  0.00  0.00    +0.000 OA
ENDROOT
BRANCH   6   8
ATOM      8  C   UNL     1       3.182   4.276  19.367  0.00  0.00    +0.000 A 
ATOM      9  N   UNL     1       3.367   2.922  19.332  0.00  0.00    +0.000 NA
ATOM     10  C   UNL     1       2.980   2.238  20.431  0.00  0.00    +0.000 A 
ATOM     11  C   UNL     1       2.434   2.864  21.531  0.00  0.00    +0.000 A 
ATOM     12  N   UNL     1       2.198   4.195  21.562  0.00  0.00    +0.000 NA
ATOM     13  C   UNL     1       2.560   4.905  20.464  0.00  0.00    +0.000 A 
BRANCH  13  14
ATOM     14  N   UNL     1       2.160   6.232  20.498  0.00  0.00    +0.000 N 
ATOM     15  H   UNL     1       1.364   6.386  19.891  0.00  0.00    +0.000 HD
ATOM     16  H   UNL     1       2.105   6.634  21.431  0.00  0.00    +0.000 HD
ENDBRANCH  13  14
ENDBRANCH   6   8
BRANCH   1  17
ATOM     17  C   UNL     1       5.569   6.557  16.000  0.00  0.00    +0.000 C 
BRANCH  17  22
ATOM     18  C   UNL     1       5.714   3.060  12.454  0.00  0.00    +0.000 C 
ATOM     19  C   UNL     1       6.102   4.033  13.495  0.00  0.00    +0.000 A 
ATOM     20  C   UNL     1       7.356   4.661  13.687  0.00  0.00    +0.000 A 
ATOM     21  N   UNL     1       7.336   5.540  14.687  0.00  0.00    +0.000 NA
ATOM     22  N   UNL     1       6.061   5.500  15.135  0.00  0.00    +0.000 N 
ATOM     23  C   UNL     1       5.304   4.573  14.482  0.00  0.00    +0.000 A 
ENDBRANCH  17  22
ENDBRANCH   1  17
TORSDOF 4
ENDMDL
MODEL 4
REMARK VINA RESULT:      -7.1      1.509      1.857
REMARK  Name = 
REMARK  5 active torsions:
REMARK  status: ('A' for Active; 'I' for Inactive)
REMARK    1  A    between atoms: C_1  and  C_2
REMARK    2  A    between atoms: N_5  and  C_6
REMARK    3  A    between atoms: C_6  and  C_7
REMARK    4  A    between atoms: C_12  and  C_14
REMARK    5  A    between atoms: C_19  and  N_20
REMARK                            x       y       z     vdW  Elec       q    Type
REMARK                         _______ _______ _______ _____ _____    ______ ____
ROOT
ATOM      1  C   UNL     1       5.022   5.668  16.885  0.00  0.00    +0.000 C 
ATOM      2  C   UNL     1       4.932   7.192  16.761  0.00  0.00    +0.000 C 
ATOM      3  C   UNL     1       3.633   7.548  17.461  0.00  0.00    +0.000 C 
ATOM      4  C   UNL     1       3.441   6.460  18.503  0.00  0.00    +0.000 C 
ATOM      5  N   UNL     1       4.352   5.373  18.160  0.00  0.00    +0.000 N 
ATOM      6  C   UNL     1       4.217   4.059  18.649  0.00  0.00    +0.000 C 
ATOM      7  O   UNL     1       4.876   3.144  18.147  0.00  0.00    +0.000 OA
ENDROOT
BRANCH   6   8
ATOM      8  C   UNL     1       3.194   3.735  19.725  0.00  0.00    +0.000 A 
ATOM      9  N   UNL     1       1.996   4.393  19.683  0.00  0.00    +0.000 NA
ATOM     10  C   UNL     1       1.027   3.922  20.497  0.00  0.00    +0.000 A 
ATOM     11  C   UNL     1       1.225   2.836  21.323  0.00  0.00    +0.000 A 
ATOM     12  N   UNL     1       2.418   2.206  21.413  0.00  0.00    +0.000 NA
ATOM     13  C   UNL     1       3.415   2.669  20.620  0.00  0.00    +0.000 A 
BRANCH  13  14
ATOM     14  N   UNL     1       4.647   2.079  20.866  0.00  0.00    +0.000 N 
ATOM     15  H   UNL     1       5.332   2.374  20.182  0.00  0.00    +0.000 HD
ATOM     16  H   UNL     1       4.938   2.098  21.840  0.00  0.00    +0.000 HD
ENDBRANCH  13  14
ENDBRANCH   6   8
BRANCH   1  17
ATOM     17  C   UNL     1       6.438   5.144  16.607  0.00  0.00    +0.000 C 
BRANCH  17  22
ATOM     18  C   UNL     1       5.749   3.173  12.083  0.00  0.00    +0.000 C 
ATOM     19  C   UNL     1       6.331   3.878  13.243  0.00  0.00    +0.000 A 
ATOM     20  C   UNL     1       7.339   4.871  13.252  0.00  0.00    +0.000 A 
ATOM     21  N   UNL     1       7.577   5.342  14.475  0.00  0.00    +0.000 NA
ATOM     22  N   UNL     1       6.707   4.669  15.262  0.00  0.00    +0.000 N 
ATOM     23  C   UNL     1       5.980   3.746  14.570  0.00  0.00    +0.000 A 
ENDBRANCH  17  22
ENDBRANCH   1  17
TORSDOF 4
ENDMDL
MODEL 5
REMARK VINA RESULT:      -7.1      2.029      4.127
REMARK  Name = 
REMARK  5 active torsions:
REMARK  status: ('A' for Active; 'I' for Inactive)
REMARK    1  A    between atoms: C_1  and  C_2
REMARK    2  A    between atoms: N_5  and  C_6
REMARK    3  A    between atoms: C_6  and  C_7
REMARK    4  A    between atoms: C_12  and  C_14
REMARK    5  A    between atoms: C_19  and  N_20
REMARK                            x       y       z     vdW  Elec       q    Type
REMARK                         _______ _______ _______ _____ _____    ______ ____
ROOT
ATOM      1  C   UNL     1       6.671   4.260  17.022  0.00  0.00    +0.000 C 
ATOM      2  C   UNL     1       6.706   4.700  15.554  0.00  0.00    +0.000 C 
ATOM      3  C   UNL     1       5.358   4.272  15.004  0.00  0.00    +0.000 C 
ATOM      4  C   UNL     1       4.420   4.304  16.198  0.00  0.00    +0.000 C 
ATOM      5  N   UNL     1       5.252   4.371  17.394  0.00  0.00    +0.000 N 
ATOM      6  C   UNL     1       4.790   4.050  18.685  0.00  0.00    +0.000 C 
ATOM      7  O   UNL     1       5.594   3.907  19.610  0.00  0.00    +0.000 OA
ENDROOT
BRANCH   6   8
ATOM      8  C   UNL     1       3.315   3.778  18.933  0.00  0.00    +0.000 A 
ATOM      9  N   UNL     1       2.799   2.599  18.473  0.00  0.00    +0.000 NA
ATOM     10  C   UNL     1       1.562   2.279  18.907  0.00  0.00    +0.000 A 
ATOM     11  C   UNL     1       0.854   3.087  19.771  0.00  0.00    +0.000 A 
ATOM     12  N   UNL     1       1.329   4.280  20.196  0.00  0.00    +0.000 NA
ATOM     13  C   UNL     1       2.563   4.636  19.760  0.00  0.00    +0.000 A 
BRANCH  13  14
ATOM     14  N   UNL     1       2.930   5.927  20.110  0.00  0.00    +0.000 N 
ATOM     15  H   UNL     1       3.932   6.050  20.042  0.00  0.00    +0.000 HD
ATOM     16  H   UNL     1       2.353   6.657  19.698  0.00  0.00    +0.000 HD
ENDBRANCH  13  14
ENDBRANCH   6   8
BRANCH   1  17
ATOM     17  C   UNL     1       7.756   4.948  17.861  0.00  0.00    +0.000 C 
BRANCH  17  22
ATOM     18  C   UNL     1       8.967   9.667  18.903  0.00  0.00    +0.000 C 
ATOM     19  C   UNL     1       8.281   8.466  18.385  0.00  0.00    +0.000 A 
ATOM     20  C   UNL     1       7.400   8.365  17.282  0.00  0.00    +0.000 A 
ATOM     21  N   UNL     1       7.015   7.111  17.052  0.00  0.00    +0.000 NA
ATOM     22  N   UNL     1       7.663   6.390  17.996  0.00  0.00    +0.000 N 
ATOM     23  C   UNL     1       8.389   7.171  18.846  0.00  0.00    +0.000 A 
ENDBRANCH  17  22
ENDBRANCH   1  17
TORSDOF 4
ENDMDL
MODEL 6
REMARK VINA RESULT:      -7.0      2.151      3.951
REMARK  Name = 
REMARK  5 active torsions:
REMARK  status: ('A' for Active; 'I' for Inactive)
REMARK    1  A    between atoms: C_1  and  C_2
REMARK    2  A    between atoms: N_5  and  C_6
REMARK    3  A    between atoms: C_6  and  C_7
REMARK    4  A    between atoms: C_12  and  C_14
REMARK    5  A    between atoms: C_19  and  N_20
REMARK                            x       y       z     vdW  Elec       q    Type
REMARK                         _______ _______ _______ _____ _____    ______ ____
ROOT
ATOM      1  C   UNL     1       6.852   4.386  17.187  0.00  0.00    +0.000 C 
ATOM      2  C   UNL     1       6.917   4.875  15.737  0.00  0.00    +0.000 C 
ATOM      3  C   UNL     1       5.676   4.288  15.088  0.00  0.00    +0.000 C 
ATOM      4  C   UNL     1       4.671   4.154  16.219  0.00  0.00    +0.000 C 
ATOM      5  N   UNL     1       5.412   4.292  17.468  0.00  0.00    +0.000 N 
ATOM      6  C   UNL     1       4.919   3.869  18.718  0.00  0.00    +0.000 C 
ATOM      7  O   UNL     1       5.677   3.805  19.690  0.00  0.00    +0.000 OA
ENDROOT
BRANCH   6   8
ATOM      8  C   UNL     1       3.482   3.394  18.863  0.00  0.00    +0.000 A 
ATOM      9  N   UNL     1       2.523   4.335  19.115  0.00  0.00    +0.000 NA
ATOM     10  C   UNL     1       1.241   3.926  19.004  0.00  0.00    +0.000 A 
ATOM     11  C   UNL     1       0.910   2.635  18.651  0.00  0.00    +0.000 A 
ATOM     12  N   UNL     1       1.845   1.679  18.448  0.00  0.00    +0.000 NA
ATOM     13  C   UNL     1       3.142   2.058  18.571  0.00  0.00    +0.000 A 
BRANCH  13  14
ATOM     14  N   UNL     1       4.042   1.006  18.496  0.00  0.00    +0.000 N 
ATOM     15  H   UNL     1       3.576   0.148  18.230  0.00  0.00    +0.000 HD
ATOM     16  H   UNL     1       4.908   1.223  18.008  0.00  0.00    +0.000 HD
ENDBRANCH  13  14
ENDBRANCH   6   8
BRANCH   1  17
ATOM     17  C   UNL     1       7.779   5.185  18.113  0.00  0.00    +0.000 C 
BRANCH  17  22
ATOM     18  C   UNL     1       8.880  10.035  18.412  0.00  0.00    +0.000 C 
ATOM     19  C   UNL     1       8.186   8.757  18.151  0.00  0.00    +0.000 A 
ATOM     20  C   UNL     1       7.146   8.494  17.228  0.00  0.00    +0.000 A 
ATOM     21  N   UNL     1       6.799   7.209  17.206  0.00  0.00    +0.000 NA
ATOM     22  N   UNL     1       7.630   6.629  18.101  0.00  0.00    +0.000 N 
ATOM     23  C   UNL     1       8.440   7.530  18.727  0.00  0.00    +0.000 A 
ENDBRANCH  17  22
ENDBRANCH   1  17
TORSDOF 4
ENDMDL
MODEL 7
REMARK VINA RESULT:      -7.0      2.881      6.587
REMARK  Name = 
REMARK  5 active torsions:
REMARK  status: ('A' for Active; 'I' for Inactive)
REMARK    1  A    between atoms: C_1  and  C_2
REMARK    2  A    between atoms: N_5  and  C_6
REMARK    3  A    between atoms: C_6  and  C_7
REMARK    4  A    between atoms: C_12  and  C_14
REMARK    5  A    between atoms: C_19  and  N_20
REMARK                            x       y       z     vdW  Elec       q    Type
REMARK                         _______ _______ _______ _____ _____    ______ ____
ROOT
ATOM      1  C   UNL     1       2.226   5.199  19.013  0.00  0.00    +0.000 C 
ATOM      2  C   UNL     1       1.333   3.992  19.317  0.00  0.00    +0.000 C 
ATOM      3  C   UNL     1       1.566   3.051  18.149  0.00  0.00    +0.000 C 
ATOM      4  C   UNL     1       2.978   3.354  17.679  0.00  0.00    +0.000 C 
ATOM      5  N   UNL     1       3.366   4.624  18.282  0.00  0.00    +0.000 N 
ATOM      6  C   UNL     1       4.431   5.418  17.813  0.00  0.00    +0.000 C 
ATOM      7  O   UNL     1       4.562   6.576  18.218  0.00  0.00    +0.000 OA
ENDROOT
BRANCH   6   8
ATOM      8  C   UNL     1       5.368   4.896  16.735  0.00  0.00    +0.000 A 
ATOM      9  N   UNL     1       4.911   4.886  15.446  0.00  0.00    +0.000 NA
ATOM     10  C   UNL     1       5.832   4.645  14.489  0.00  0.00    +0.000 A 
ATOM     11  C   UNL     1       7.160   4.426  14.785  0.00  0.00    +0.000 A 
ATOM     12  N   UNL     1       7.619   4.384  16.056  0.00  0.00    +0.000 NA
ATOM     13  C   UNL     1       6.712   4.604  17.041  0.00  0.00    +0.000 A 
BRANCH  13  14
ATOM     14  N   UNL     1       7.211   4.402  18.319  0.00  0.00    +0.000 N 
ATOM     15  H   UNL     1       6.938   5.155  18.938  0.00  0.00    +0.000 HD
ATOM     16  H   UNL     1       7.095   3.456  18.674  0.00  0.00    +0.000 HD
ENDBRANCH  13  14
ENDBRANCH   6   8
BRANCH   1  17
ATOM     17  C   UNL     1       2.454   6.080  20.248  0.00  0.00    +0.000 C 
BRANCH  17  22
ATOM     18  C   UNL     1       0.536  10.306  18.434  0.00  0.00    +0.000 C 
ATOM     19  C   UNL     1       1.031   9.258  19.350  0.00  0.00    +0.000 A 
ATOM     20  C   UNL     1       0.711   9.061  20.714  0.00  0.00    +0.000 A 
ATOM     21  N   UNL     1       1.288   7.973  21.219  0.00  0.00    +0.000 NA
ATOM     22  N   UNL     1       1.969   7.447  20.175  0.00  0.00    +0.000 N 
ATOM     23  C   UNL     1       1.883   8.215  19.052  0.00  0.00    +0.000 A 
ENDBRANCH  17  22
ENDBRANCH   1  17
TORSDOF 4
ENDMDL
MODEL 8
REMARK VINA RESULT:      -6.9      3.112      6.844
REMARK  Name = 
REMARK  5 active torsions:
REMARK  status: ('A' for Active; 'I' for Inactive)
REMARK    1  A    between atoms: C_1  and  C_2
REMARK    2  A    between atoms: N_5  and  C_6
REMARK    3  A    between atoms: C_6  and  C_7
REMARK    4  A    between atoms: C_12  and  C_14
REMARK    5  A    between atoms: C_19  and  N_20
REMARK                            x       y       z     vdW  Elec       q    Type
REMARK                         _______ _______ _______ _____ _____    ______ ____
ROOT
ATOM      1  C   UNL     1       2.509   5.602  18.428  0.00  0.00    +0.000 C 
ATOM      2  C   UNL     1       1.740   4.377  18.935  0.00  0.00    +0.000 C 
ATOM      3  C   UNL     1       1.998   3.312  17.886  0.00  0.00    +0.000 C 
ATOM      4  C   UNL     1       3.354   3.663  17.298  0.00  0.00    +0.000 C 
ATOM      5  N   UNL     1       3.658   5.029  17.710  0.00  0.00    +0.000 N 
ATOM      6  C   UNL     1       4.625   5.837  17.081  0.00  0.00    +0.000 C 
ATOM      7  O   UNL     1       4.673   7.045  17.326  0.00  0.00    +0.000 OA
ENDROOT
BRANCH   6   8
ATOM      8  C   UNL     1       5.551   5.255  16.025  0.00  0.00    +0.000 A 
ATOM      9  N   UNL     1       5.009   4.400  15.105  0.00  0.00    +0.000 NA
ATOM     10  C   UNL     1       5.789   4.087  14.049  0.00  0.00    +0.000 A 
ATOM     11  C   UNL     1       7.060   4.600  13.896  0.00  0.00    +0.000 A 
ATOM     12  N   UNL     1       7.629   5.405  14.821  0.00  0.00    +0.000 NA
ATOM     13  C   UNL     1       6.875   5.722  15.902  0.00  0.00    +0.000 A 
BRANCH  13  14
ATOM     14  N   UNL     1       7.563   6.427  16.879  0.00  0.00    +0.000 N 
ATOM     15  H   UNL     1       8.488   6.683  16.557  0.00  0.00    +0.000 HD
ATOM     16  H   UNL     1       7.021   7.157  17.335  0.00  0.00    +0.000 HD
ENDBRANCH  13  14
ENDBRANCH   6   8
BRANCH   1  17
ATOM     17  C   UNL     1       2.717   6.654  19.524  0.00  0.00    +0.000 C 
BRANCH  17  22
ATOM     18  C   UNL     1       0.345  10.815  20.899  0.00  0.00    +0.000 C 
ATOM     19  C   UNL     1       0.920   9.715  20.097  0.00  0.00    +0.000 A 
ATOM     20  C   UNL     1       1.256   9.713  18.722  0.00  0.00    +0.000 A 
ATOM     21  N   UNL     1       1.820   8.570  18.338  0.00  0.00    +0.000 NA
ATOM     22  N   UNL     1       1.870   7.832  19.471  0.00  0.00    +0.000 N 
ATOM     23  C   UNL     1       1.294   8.462  20.534  0.00  0.00    +0.000 A 
ENDBRANCH  17  22
ENDBRANCH   1  17
TORSDOF 4
ENDMDL
MODEL 9
REMARK VINA RESULT:      -6.9      2.881      6.798
REMARK  Name = 
REMARK  5 active torsions:
REMARK  status: ('A' for Active; 'I' for Inactive)
REMARK    1  A    between atoms: C_1  and  C_2
REMARK    2  A    between atoms: N_5  and  C_6
REMARK    3  A    between atoms: C_6  and  C_7
REMARK    4  A    between atoms: C_12  and  C_14
REMARK    5  A    between atoms: C_19  and  N_20
REMARK                            x       y       z     vdW  Elec       q    Type
REMARK                         _______ _______ _______ _____ _____    ______ ____
ROOT
ATOM      1  C   UNL     1       2.260   5.106  19.000  0.00  0.00    +0.000 C 
ATOM      2  C   UNL     1       1.441   3.859  19.351  0.00  0.00    +0.000 C 
ATOM      3  C   UNL     1       1.710   2.900  18.206  0.00  0.00    +0.000 C 
ATOM      4  C   UNL     1       3.095   3.270  17.705  0.00  0.00    +0.000 C 
ATOM      5  N   UNL     1       3.420   4.576  18.267  0.00  0.00    +0.000 N 
ATOM      6  C   UNL     1       4.431   5.415  17.759  0.00  0.00    +0.000 C 
ATOM      7  O   UNL     1       4.502   6.589  18.130  0.00  0.00    +0.000 OA
ENDROOT
BRANCH   6   8
ATOM      8  C   UNL     1       5.379   4.917  16.681  0.00  0.00    +0.000 A 
ATOM      9  N   UNL     1       4.926   4.904  15.391  0.00  0.00    +0.000 NA
ATOM     10  C   UNL     1       5.853   4.685  14.434  0.00  0.00    +0.000 A 
ATOM     11  C   UNL     1       7.185   4.491  14.732  0.00  0.00    +0.000 A 
ATOM     12  N   UNL     1       7.641   4.451  16.004  0.00  0.00    +0.000 NA
ATOM     13  C   UNL     1       6.729   4.649  16.988  0.00  0.00    +0.000 A 
BRANCH  13  14
ATOM     14  N   UNL     1       7.229   4.450  18.266  0.00  0.00    +0.000 N 
ATOM     15  H   UNL     1       8.126   3.982  18.235  0.00  0.00    +0.000 HD
ATOM     16  H   UNL     1       7.159   5.260  18.878  0.00  0.00    +0.000 HD
ENDBRANCH  13  14
ENDBRANCH   6   8
BRANCH   1  17
ATOM     17  C   UNL     1       2.455   6.033  20.207  0.00  0.00    +0.000 C 
BRANCH  17  22
ATOM     18  C   UNL     1       0.298  10.237  21.787  0.00  0.00    +0.000 C 
ATOM     19  C   UNL     1       0.859   9.173  20.930  0.00  0.00    +0.000 A 
ATOM     20  C   UNL     1       1.327   9.272  19.599  0.00  0.00    +0.000 A 
ATOM     21  N   UNL     1       1.833   8.125  19.150  0.00  0.00    +0.000 NA
ATOM     22  N   UNL     1       1.714   7.281  20.200  0.00  0.00    +0.000 N 
ATOM     23  C   UNL     1       1.088   7.855  21.267  0.00  0.00    +0.000 A 
ENDBRANCH  17  22
ENDBRANCH   1  17
TORSDOF 4
ENDMDL
