MODEL 1
REMARK VINA RESULT:      -5.9      0.000      0.000
REMARK  Name = 
REMARK  8 active torsions:
REMARK  status: ('A' for Active; 'I' for Inactive)
REMARK    1  A    between atoms: C_1  and  C_2
REMARK    2  A    between atoms: C_4  and  C_5
REMARK    3  A    between atoms: C_7  and  S_8
REMARK    4  A    between atoms: S_8  and  C_9
REMARK    5  A    between atoms: C_10  and  C_11
REMARK    6  A    between atoms: C_11  and  N_12
REMARK    7  A    between atoms: C_16  and  C_17
REMARK    8  A    between atoms: C_18  and  C_19
REMARK                            x       y       z     vdW  Elec       q    Type
REMARK                         _______ _______ _______ _____ _____    ______ ____
ROOT
ATOM      1  C   UNL     1      -1.142  12.642  20.148  0.00  0.00    +0.000 A 
ATOM      2  C   UNL     1      -0.751  11.576  19.180  0.00  0.00    +0.000 A 
ATOM      3  C   UNL     1      -1.714  11.003  18.418  0.00  0.00    +0.000 A 
ATOM      4  C   UNL     1      -1.525   9.951  17.354  0.00  0.00    +0.000 C 
ATOM      5  N   UNL     1      -3.025  11.364  18.598  0.00  0.00    +0.000 N 
ATOM      6  C   UNL     1      -3.486  12.278  19.503  0.00  0.00    +0.000 A 
ATOM      7  O   UNL     1      -4.691  12.491  19.591  0.00  0.00    +0.000 OA
ATOM      8  C   UNL     1      -2.448  12.978  20.323  0.00  0.00    +0.000 A 
ATOM      9  I   UNL     1      -3.195  14.425  21.638  0.00  0.00    +0.000 I 
ATOM     10  H   UNL     1      -3.755  10.907  18.060  0.00  0.00    +0.000 HD
ENDROOT
BRANCH   1  11
ATOM     11  S   UNL     1       0.121  13.427  21.089  0.00  0.00    +0.000 S 
BRANCH  11  18
ATOM     12  C   UNL     1      -0.801  17.652  18.014  0.00  0.00    +0.000 C 
ATOM     13  C   UNL     1       0.185  16.650  18.540  0.00  0.00    +0.000 A 
ATOM     14  C   UNL     1       1.495  16.601  18.055  0.00  0.00    +0.000 A 
ATOM     15  C   UNL     1       2.391  15.634  18.521  0.00  0.00    +0.000 A 
ATOM     16  C   UNL     1       3.798  15.584  17.998  0.00  0.00    +0.000 C 
ATOM     17  C   UNL     1       1.962  14.706  19.485  0.00  0.00    +0.000 A 
ATOM     18  C   UNL     1       0.651  14.741  19.985  0.00  0.00    +0.000 A 
ATOM     19  C   UNL     1      -0.220  15.729  19.516  0.00  0.00    +0.000 A 
ENDBRANCH  11  18
ENDBRANCH   1  11
BRANCH   2  20
ATOM     20  C   UNL     1       0.719  11.200  19.000  0.00  0.00    +0.000 C 
BRANCH  20  21
ATOM     21  N   UNL     1       1.131   9.988  19.700  0.00  0.00    +0.000 N 
ATOM     22  N   UNL     1       0.799   9.790  20.995  0.00  0.00    +0.000 NA
ATOM     23  C   UNL     1       1.207   8.537  21.193  0.00  0.00    +0.000 A 
ATOM     24  N   UNL     1       1.734   7.920  20.099  0.00  0.00    +0.000 NA
ATOM     25  C   UNL     1       1.655   8.838  19.158  0.00  0.00    +0.000 A 
ATOM     26  C   UNL     1       2.015   8.665  17.732  0.00  0.00    +0.000 C 
ENDBRANCH  20  21
ENDBRANCH   2  20
TORSDOF 4
ENDMDL
MODEL 2
REMARK VINA RESULT:      -5.9      2.822      5.971
REMARK  Name = 
REMARK  8 active torsions:
REMARK  status: ('A' for Active; 'I' for Inactive)
REMARK    1  A    between atoms: C_1  and  C_2
REMARK    2  A    between atoms: C_4  and  C_5
REMARK    3  A    between atoms: C_7  and  S_8
REMARK    4  A    between atoms: S_8  and  C_9
REMARK    5  A    between atoms: C_10  and  C_11
REMARK    6  A    between atoms: C_11  and  N_12
REMARK    7  A    between atoms: C_16  and  C_17
REMARK    8  A    between atoms: C_18  and  C_19
REMARK                            x       y       z     vdW  Elec       q    Type
REMARK                         _______ _______ _______ _____ _____    ______ ____
ROOT
ATOM      1  C   UNL     1      -1.600  12.295  19.153  0.00  0.00    +0.000 A 
ATOM      2  C   UNL     1      -1.685  13.437  20.110  0.00  0.00    +0.000 A 
ATOM      3  C   UNL     1      -2.904  13.812  20.568  0.00  0.00    +0.000 A 
ATOM      4  C   UNL     1      -3.203  14.900  21.570  0.00  0.00    +0.000 C 
ATOM      5  N   UNL     1      -4.029  13.184  20.098  0.00  0.00    +0.000 N 
ATOM      6  C   UNL     1      -4.056  12.178  19.174  0.00  0.00    +0.000 A 
ATOM      7  O   UNL     1      -5.132  11.718  18.807  0.00  0.00    +0.000 OA
ATOM      8  C   UNL     1      -2.726  11.692  18.686  0.00  0.00    +0.000 A 
ATOM      9  I   UNL     1      -2.814  10.098  17.333  0.00  0.00    +0.000 I 
ATOM     10  H   UNL     1      -4.947  13.490  20.405  0.00  0.00    +0.000 HD
ENDROOT
BRANCH   1  11
ATOM     11  S   UNL     1      -0.010  11.770  18.610  0.00  0.00    +0.000 S 
BRANCH  11  18
ATOM     12  C   UNL     1      -0.034   9.454  23.384  0.00  0.00    +0.000 C 
ATOM     13  C   UNL     1       0.352   9.383  21.935  0.00  0.00    +0.000 A 
ATOM     14  C   UNL     1       1.139   8.336  21.448  0.00  0.00    +0.000 A 
ATOM     15  C   UNL     1       1.530   8.305  20.106  0.00  0.00    +0.000 A 
ATOM     16  C   UNL     1       2.375   7.178  19.584  0.00  0.00    +0.000 C 
ATOM     17  C   UNL     1       1.124   9.340  19.247  0.00  0.00    +0.000 A 
ATOM     18  C   UNL     1       0.333  10.399  19.718  0.00  0.00    +0.000 A 
ATOM     19  C   UNL     1      -0.060  10.398  21.060  0.00  0.00    +0.000 A 
ENDBRANCH  11  18
ENDBRANCH   1  11
BRANCH   2  20
ATOM     20  C   UNL     1      -0.413  14.112  20.620  0.00  0.00    +0.000 C 
BRANCH  20  21
ATOM     21  N   UNL     1       0.157  15.106  19.716  0.00  0.00    +0.000 N 
ATOM     22  N   UNL     1      -0.581  16.156  19.289  0.00  0.00    +0.000 NA
ATOM     23  C   UNL     1       0.331  16.884  18.644  0.00  0.00    +0.000 A 
ATOM     24  N   UNL     1       1.598  16.384  18.672  0.00  0.00    +0.000 NA
ATOM     25  C   UNL     1       1.478  15.277  19.375  0.00  0.00    +0.000 A 
ATOM     26  C   UNL     1       2.579  14.377  19.788  0.00  0.00    +0.000 C 
ENDBRANCH  20  21
ENDBRANCH   2  20
TORSDOF 4
ENDMDL
MODEL 3
REMARK VINA RESULT:      -5.9      4.585      6.857
REMARK  Name = 
REMARK  8 active torsions:
REMARK  status: ('A' for Active; 'I' for Inactive)
REMARK    1  A    between atoms: C_1  and  C_2
REMARK    2  A    between atoms: C_4  and  C_5
REMARK    3  A    between atoms: C_7  and  S_8
REMARK    4  A    between atoms: S_8  and  C_9
REMARK    5  A    between atoms: C_10  and  C_11
REMARK    6  A    between atoms: C_11  and  N_12
REMARK    7  A    between atoms: C_16  and  C_17
REMARK    8  A    between atoms: C_18  and  C_19
REMARK                            x       y       z     vdW  Elec       q    Type
REMARK                         _______ _______ _______ _____ _____    ______ ____
ROOT
ATOM      1  C   UNL     1      -4.397  13.459  22.104  0.00  0.00    +0.000 A 
ATOM      2  C   UNL     1      -5.834  13.063  22.029  0.00  0.00    +0.000 A 
ATOM      3  C   UNL     1      -6.453  12.644  23.160  0.00  0.00    +0.000 A 
ATOM      4  C   UNL     1      -7.901  12.249  23.310  0.00  0.00    +0.000 C 
ATOM      5  N   UNL     1      -5.735  12.531  24.324  0.00  0.00    +0.000 N 
ATOM      6  C   UNL     1      -4.405  12.804  24.473  0.00  0.00    +0.000 A 
ATOM      7  O   UNL     1      -3.868  12.631  25.562  0.00  0.00    +0.000 OA
ATOM      8  C   UNL     1      -3.697  13.328  23.262  0.00  0.00    +0.000 A 
ATOM      9  I   UNL     1      -1.682  13.807  23.560  0.00  0.00    +0.000 I 
ATOM     10  H   UNL     1      -6.183  12.177  25.163  0.00  0.00    +0.000 HD
ENDROOT
BRANCH   1  11
ATOM     11  S   UNL     1      -3.616  14.063  20.646  0.00  0.00    +0.000 S 
BRANCH  11  18
ATOM     12  C   UNL     1       0.372  10.573  20.378  0.00  0.00    +0.000 C 
ATOM     13  C   UNL     1      -0.963  11.024  19.861  0.00  0.00    +0.000 A 
ATOM     14  C   UNL     1      -1.551  10.416  18.749  0.00  0.00    +0.000 A 
ATOM     15  C   UNL     1      -2.774  10.874  18.250  0.00  0.00    +0.000 A 
ATOM     16  C   UNL     1      -3.404  10.218  17.055  0.00  0.00    +0.000 C 
ATOM     17  C   UNL     1      -3.409  11.959  18.878  0.00  0.00    +0.000 A 
ATOM     18  C   UNL     1      -2.835  12.582  19.996  0.00  0.00    +0.000 A 
ATOM     19  C   UNL     1      -1.620  12.092  20.487  0.00  0.00    +0.000 A 
ENDBRANCH  11  18
ENDBRANCH   1  11
BRANCH   2  20
ATOM     20  C   UNL     1      -6.606  13.207  20.719  0.00  0.00    +0.000 C 
BRANCH  20  21
ATOM     21  N   UNL     1      -6.625  12.010  19.885  0.00  0.00    +0.000 N 
ATOM     22  N   UNL     1      -6.699  10.780  20.441  0.00  0.00    +0.000 NA
ATOM     23  C   UNL     1      -6.856  10.005  19.368  0.00  0.00    +0.000 A 
ATOM     24  N   UNL     1      -6.926  10.667  18.180  0.00  0.00    +0.000 NA
ATOM     25  C   UNL     1      -6.806  11.933  18.524  0.00  0.00    +0.000 A 
ATOM     26  C   UNL     1      -6.902  13.100  17.618  0.00  0.00    +0.000 C 
ENDBRANCH  20  21
ENDBRANCH   2  20
TORSDOF 4
ENDMDL
MODEL 4
REMARK VINA RESULT:      -5.8      0.291      1.745
REMARK  Name = 
REMARK  8 active torsions:
REMARK  status: ('A' for Active; 'I' for Inactive)
REMARK    1  A    between atoms: C_1  and  C_2
REMARK    2  A    between atoms: C_4  and  C_5
REMARK    3  A    between atoms: C_7  and  S_8
REMARK    4  A    between atoms: S_8  and  C_9
REMARK    5  A    between atoms: C_10  and  C_11
REMARK    6  A    between atoms: C_11  and  N_12
REMARK    7  A    between atoms: C_16  and  C_17
REMARK    8  A    between atoms: C_18  and  C_19
REMARK                            x       y       z     vdW  Elec       q    Type
REMARK                         _______ _______ _______ _____ _____    ______ ____
ROOT
ATOM      1  C   UNL     1      -1.008  12.612  20.006  0.00  0.00    +0.000 A 
ATOM      2  C   UNL     1      -0.730  11.507  19.043  0.00  0.00    +0.000 A 
ATOM      3  C   UNL     1      -1.763  10.975  18.347  0.00  0.00    +0.000 A 
ATOM      4  C   UNL     1      -1.692   9.894  17.297  0.00  0.00    +0.000 C 
ATOM      5  N   UNL     1      -3.041  11.414  18.587  0.00  0.00    +0.000 N 
ATOM      6  C   UNL     1      -3.401  12.370  19.494  0.00  0.00    +0.000 A 
ATOM      7  O   UNL     1      -4.585  12.652  19.642  0.00  0.00    +0.000 OA
ATOM      8  C   UNL     1      -2.282  13.026  20.242  0.00  0.00    +0.000 A 
ATOM      9  I   UNL     1      -2.874  14.538  21.562  0.00  0.00    +0.000 I 
ATOM     10  H   UNL     1      -3.823  10.988  18.100  0.00  0.00    +0.000 HD
ENDROOT
BRANCH   1  11
ATOM     11  S   UNL     1       0.346  13.343  20.860  0.00  0.00    +0.000 S 
BRANCH  11  18
ATOM     12  C   UNL     1       4.138  15.522  17.856  0.00  0.00    +0.000 C 
ATOM     13  C   UNL     1       2.717  15.557  18.336  0.00  0.00    +0.000 A 
ATOM     14  C   UNL     1       1.869  16.619  18.011  0.00  0.00    +0.000 A 
ATOM     15  C   UNL     1       0.560  16.661  18.502  0.00  0.00    +0.000 A 
ATOM     16  C   UNL     1      -0.349  17.804  18.150  0.00  0.00    +0.000 C 
ATOM     17  C   UNL     1       0.103  15.623  19.331  0.00  0.00    +0.000 A 
ATOM     18  C   UNL     1       0.939  14.547  19.667  0.00  0.00    +0.000 A 
ATOM     19  C   UNL     1       2.237  14.519  19.148  0.00  0.00    +0.000 A 
ENDBRANCH  11  18
ENDBRANCH   1  11
BRANCH   2  20
ATOM     20  C   UNL     1       0.705  11.045  18.793  0.00  0.00    +0.000 C 
BRANCH  20  21
ATOM     21  N   UNL     1       1.113   9.874  19.562  0.00  0.00    +0.000 N 
ATOM     22  N   UNL     1       0.675   9.690  20.827  0.00  0.00    +0.000 NA
ATOM     23  C   UNL     1       1.127   8.465  21.096  0.00  0.00    +0.000 A 
ATOM     24  N   UNL     1       1.783   7.851  20.072  0.00  0.00    +0.000 NA
ATOM     25  C   UNL     1       1.743   8.741  19.102  0.00  0.00    +0.000 A 
ATOM     26  C   UNL     1       2.240   8.553  17.720  0.00  0.00    +0.000 C 
ENDBRANCH  20  21
ENDBRANCH   2  20
TORSDOF 4
ENDMDL
MODEL 5
REMARK VINA RESULT:      -5.8      3.646      6.414
REMARK  Name = 
REMARK  8 active torsions:
REMARK  status: ('A' for Active; 'I' for Inactive)
REMARK    1  A    between atoms: C_1  and  C_2
REMARK    2  A    between atoms: C_4  and  C_5
REMARK    3  A    between atoms: C_7  and  S_8
REMARK    4  A    between atoms: S_8  and  C_9
REMARK    5  A    between atoms: C_10  and  C_11
REMARK    6  A    between atoms: C_11  and  N_12
REMARK    7  A    between atoms: C_16  and  C_17
REMARK    8  A    between atoms: C_18  and  C_19
REMARK                            x       y       z     vdW  Elec       q    Type
REMARK                         _______ _______ _______ _____ _____    ______ ____
ROOT
ATOM      1  C   UNL     1       0.161  10.698  19.839  0.00  0.00    +0.000 A 
ATOM      2  C   UNL     1      -0.471  10.947  21.167  0.00  0.00    +0.000 A 
ATOM      3  C   UNL     1      -0.239  10.069  22.173  0.00  0.00    +0.000 A 
ATOM      4  C   UNL     1      -0.738  10.161  23.594  0.00  0.00    +0.000 C 
ATOM      5  N   UNL     1       0.511   8.945  21.933  0.00  0.00    +0.000 N 
ATOM      6  C   UNL     1       1.072   8.599  20.737  0.00  0.00    +0.000 A 
ATOM      7  O   UNL     1       1.695   7.547  20.640  0.00  0.00    +0.000 OA
ATOM      8  C   UNL     1       0.890   9.573  19.614  0.00  0.00    +0.000 A 
ATOM      9  I   UNL     1       1.834   9.039  17.824  0.00  0.00    +0.000 I 
ATOM     10  H   UNL     1       0.652   8.262  22.671  0.00  0.00    +0.000 HD
ENDROOT
BRANCH   1  11
ATOM     11  S   UNL     1      -0.092  11.876  18.555  0.00  0.00    +0.000 S 
BRANCH  11  18
ATOM     12  C   UNL     1      -3.256   9.857  14.805  0.00  0.00    +0.000 C 
ATOM     13  C   UNL     1      -3.132  10.509  16.151  0.00  0.00    +0.000 A 
ATOM     14  C   UNL     1      -4.262  10.920  16.863  0.00  0.00    +0.000 A 
ATOM     15  C   UNL     1      -4.131  11.566  18.095  0.00  0.00    +0.000 A 
ATOM     16  C   UNL     1      -5.347  12.006  18.859  0.00  0.00    +0.000 C 
ATOM     17  C   UNL     1      -2.847  11.802  18.615  0.00  0.00    +0.000 A 
ATOM     18  C   UNL     1      -1.700  11.396  17.915  0.00  0.00    +0.000 A 
ATOM     19  C   UNL     1      -1.859  10.735  16.693  0.00  0.00    +0.000 A 
ENDBRANCH  11  18
ENDBRANCH   1  11
BRANCH   2  20
ATOM     20  C   UNL     1      -1.295  12.211  21.405  0.00  0.00    +0.000 C 
BRANCH  20  21
ATOM     21  N   UNL     1      -0.567  13.307  22.036  0.00  0.00    +0.000 N 
ATOM     22  N   UNL     1       0.543  13.822  21.461  0.00  0.00    +0.000 NA
ATOM     23  C   UNL     1       0.792  14.873  22.242  0.00  0.00    +0.000 A 
ATOM     24  N   UNL     1      -0.109  15.077  23.243  0.00  0.00    +0.000 NA
ATOM     25  C   UNL     1      -0.975  14.098  23.084  0.00  0.00    +0.000 A 
ATOM     26  C   UNL     1      -2.220  13.894  23.860  0.00  0.00    +0.000 C 
ENDBRANCH  20  21
ENDBRANCH   2  20
TORSDOF 4
ENDMDL
MODEL 6
REMARK VINA RESULT:      -5.7      3.318      5.479
REMARK  Name = 
REMARK  8 active torsions:
REMARK  status: ('A' for Active; 'I' for Inactive)
REMARK    1  A    between atoms: C_1  and  C_2
REMARK    2  A    between atoms: C_4  and  C_5
REMARK    3  A    between atoms: C_7  and  S_8
REMARK    4  A    between atoms: S_8  and  C_9
REMARK    5  A    between atoms: C_10  and  C_11
REMARK    6  A    between atoms: C_11  and  N_12
REMARK    7  A    between atoms: C_16  and  C_17
REMARK    8  A    between atoms: C_18  and  C_19
REMARK                            x       y       z     vdW  Elec       q    Type
REMARK                         _______ _______ _______ _____ _____    ______ ____
ROOT
ATOM      1  C   UNL     1      -2.778  12.211  18.761  0.00  0.00    +0.000 A 
ATOM      2  C   UNL     1      -3.416  12.977  19.871  0.00  0.00    +0.000 A 
ATOM      3  C   UNL     1      -4.720  12.744  20.156  0.00  0.00    +0.000 A 
ATOM      4  C   UNL     1      -5.535  13.369  21.260  0.00  0.00    +0.000 C 
ATOM      5  N   UNL     1      -5.437  11.865  19.384  0.00  0.00    +0.000 N 
ATOM      6  C   UNL     1      -4.958  11.170  18.309  0.00  0.00    +0.000 A 
ATOM      7  O   UNL     1      -5.711  10.437  17.675  0.00  0.00    +0.000 OA
ATOM      8  C   UNL     1      -3.506  11.354  17.996  0.00  0.00    +0.000 A 
ATOM      9  I   UNL     1      -2.800  10.210  16.392  0.00  0.00    +0.000 I 
ATOM     10  H   UNL     1      -6.425  11.719  19.566  0.00  0.00    +0.000 HD
ENDROOT
BRANCH   1  11
ATOM     11  S   UNL     1      -1.067  12.471  18.436  0.00  0.00    +0.000 S 
BRANCH  11  18
ATOM     12  C   UNL     1      -0.245   8.849  22.225  0.00  0.00    +0.000 C 
ATOM     13  C   UNL     1       0.066   9.337  20.840  0.00  0.00    +0.000 A 
ATOM     14  C   UNL     1       1.062   8.734  20.068  0.00  0.00    +0.000 A 
ATOM     15  C   UNL     1       1.373   9.226  18.797  0.00  0.00    +0.000 A 
ATOM     16  C   UNL     1       2.444   8.575  17.969  0.00  0.00    +0.000 C 
ATOM     17  C   UNL     1       0.674  10.339  18.300  0.00  0.00    +0.000 A 
ATOM     18  C   UNL     1      -0.330  10.957  19.060  0.00  0.00    +0.000 A 
ATOM     19  C   UNL     1      -0.635  10.434  20.321  0.00  0.00    +0.000 A 
ENDBRANCH  11  18
ENDBRANCH   1  11
BRANCH   2  20
ATOM     20  C   UNL     1      -2.589  13.943  20.716  0.00  0.00    +0.000 C 
BRANCH  20  21
ATOM     21  N   UNL     1      -1.940  13.340  21.876  0.00  0.00    +0.000 N 
ATOM     22  N   UNL     1      -2.579  12.411  22.621  0.00  0.00    +0.000 NA
ATOM     23  C   UNL     1      -1.611  12.011  23.446  0.00  0.00    +0.000 A 
ATOM     24  N   UNL     1      -0.398  12.597  23.243  0.00  0.00    +0.000 NA
ATOM     25  C   UNL     1      -0.614  13.412  22.232  0.00  0.00    +0.000 A 
ATOM     26  C   UNL     1       0.402  14.240  21.542  0.00  0.00    +0.000 C 
ENDBRANCH  20  21
ENDBRANCH   2  20
TORSDOF 4
ENDMDL
MODEL 7
REMARK VINA RESULT:      -5.7      3.114      6.295
REMARK  Name = 
REMARK  8 active torsions:
REMARK  status: ('A' for Active; 'I' for Inactive)
REMARK    1  A    between atoms: C_1  and  C_2
REMARK    2  A    between atoms: C_4  and  C_5
REMARK    3  A    between atoms: C_7  and  S_8
REMARK    4  A    between atoms: S_8  and  C_9
REMARK    5  A    between atoms: C_10  and  C_11
REMARK    6  A    between atoms: C_11  and  N_12
REMARK    7  A    between atoms: C_16  and  C_17
REMARK    8  A    between atoms: C_18  and  C_19
REMARK                            x       y       z     vdW  Elec       q    Type
REMARK                         _______ _______ _______ _____ _____    ______ ____
ROOT
ATOM      1  C   UNL     1      -1.606  12.229  19.116  0.00  0.00    +0.000 A 
ATOM      2  C   UNL     1      -1.838  13.285  20.145  0.00  0.00    +0.000 A 
ATOM      3  C   UNL     1      -3.112  13.570  20.508  0.00  0.00    +0.000 A 
ATOM      4  C   UNL     1      -3.559  14.559  21.556  0.00  0.00    +0.000 C 
ATOM      5  N   UNL     1      -4.155  12.934  19.883  0.00  0.00    +0.000 N 
ATOM      6  C   UNL     1      -4.043  12.006  18.886  0.00  0.00    +0.000 A 
ATOM      7  O   UNL     1      -5.056  11.533  18.381  0.00  0.00    +0.000 OA
ATOM      8  C   UNL     1      -2.651  11.619  18.496  0.00  0.00    +0.000 A 
ATOM      9  I   UNL     1      -2.530  10.137  17.023  0.00  0.00    +0.000 I 
ATOM     10  H   UNL     1      -5.112  13.175  20.121  0.00  0.00    +0.000 HD
ENDROOT
BRANCH   1  11
ATOM     11  S   UNL     1       0.053  11.818  18.694  0.00  0.00    +0.000 S 
BRANCH  11  18
ATOM     12  C   UNL     1       0.032   9.426  23.430  0.00  0.00    +0.000 C 
ATOM     13  C   UNL     1       0.405   9.371  21.977  0.00  0.00    +0.000 A 
ATOM     14  C   UNL     1       1.170   8.321  21.466  0.00  0.00    +0.000 A 
ATOM     15  C   UNL     1       1.549   8.304  20.120  0.00  0.00    +0.000 A 
ATOM     16  C   UNL     1       2.372   7.173  19.573  0.00  0.00    +0.000 C 
ATOM     17  C   UNL     1       1.153   9.360  19.282  0.00  0.00    +0.000 A 
ATOM     18  C   UNL     1       0.383  10.424  19.777  0.00  0.00    +0.000 A 
ATOM     19  C   UNL     1       0.002  10.407  21.122  0.00  0.00    +0.000 A 
ENDBRANCH  11  18
ENDBRANCH   1  11
BRANCH   2  20
ATOM     20  C   UNL     1      -0.656  13.970  20.828  0.00  0.00    +0.000 C 
BRANCH  20  21
ATOM     21  N   UNL     1      -0.362  15.314  20.340  0.00  0.00    +0.000 N 
ATOM     22  N   UNL     1      -0.386  15.590  19.017  0.00  0.00    +0.000 NA
ATOM     23  C   UNL     1      -0.235  16.915  19.013  0.00  0.00    +0.000 A 
ATOM     24  N   UNL     1      -0.159  17.493  20.244  0.00  0.00    +0.000 NA
ATOM     25  C   UNL     1      -0.268  16.474  21.071  0.00  0.00    +0.000 A 
ATOM     26  C   UNL     1      -0.336  16.549  22.549  0.00  0.00    +0.000 C 
ENDBRANCH  20  21
ENDBRANCH   2  20
TORSDOF 4
ENDMDL
MODEL 8
REMARK VINA RESULT:      -5.7      2.787      6.142
REMARK  Name = 
REMARK  8 active torsions:
REMARK  status: ('A' for Active; 'I' for Inactive)
REMARK    1  A    between atoms: C_1  and  C_2
REMARK    2  A    between atoms: C_4  and  C_5
REMARK    3  A    between atoms: C_7  and  S_8
REMARK    4  A    between atoms: S_8  and  C_9
REMARK    5  A    between atoms: C_10  and  C_11
REMARK    6  A    between atoms: C_11  and  N_12
REMARK    7  A    between atoms: C_16  and  C_17
REMARK    8  A    between atoms: C_18  and  C_19
REMARK                            x       y       z     vdW  Elec       q    Type
REMARK                         _______ _______ _______ _____ _____    ______ ____
ROOT
ATOM      1  C   UNL     1      -1.184  12.359  19.186  0.00  0.00    +0.000 A 
ATOM      2  C   UNL     1      -1.236  13.519  20.122  0.00  0.00    +0.000 A 
ATOM      3  C   UNL     1      -2.438  13.903  20.617  0.00  0.00    +0.000 A 
ATOM      4  C   UNL     1      -2.702  15.010  21.607  0.00  0.00    +0.000 C 
ATOM      5  N   UNL     1      -3.579  13.265  20.199  0.00  0.00    +0.000 N 
ATOM      6  C   UNL     1      -3.637  12.241  19.297  0.00  0.00    +0.000 A 
ATOM      7  O   UNL     1      -4.726  11.774  18.978  0.00  0.00    +0.000 OA
ATOM      8  C   UNL     1      -2.325  11.747  18.771  0.00  0.00    +0.000 A 
ATOM      9  I   UNL     1      -2.460  10.126  17.454  0.00  0.00    +0.000 I 
ATOM     10  H   UNL     1      -4.485  13.576  20.533  0.00  0.00    +0.000 HD
ENDROOT
BRANCH   1  11
ATOM     11  S   UNL     1       0.386  11.825  18.596  0.00  0.00    +0.000 S 
BRANCH  11  18
ATOM     12  C   UNL     1       2.263   6.973  19.639  0.00  0.00    +0.000 C 
ATOM     13  C   UNL     1       1.589   8.214  20.147  0.00  0.00    +0.000 A 
ATOM     14  C   UNL     1       1.080   8.281  21.447  0.00  0.00    +0.000 A 
ATOM     15  C   UNL     1       0.415   9.427  21.893  0.00  0.00    +0.000 A 
ATOM     16  C   UNL     1      -0.129   9.496  23.291  0.00  0.00    +0.000 C 
ATOM     17  C   UNL     1       0.259  10.515  21.019  0.00  0.00    +0.000 A 
ATOM     18  C   UNL     1       0.764  10.467  19.710  0.00  0.00    +0.000 A 
ATOM     19  C   UNL     1       1.442   9.317  19.294  0.00  0.00    +0.000 A 
ENDBRANCH  11  18
ENDBRANCH   1  11
BRANCH   2  20
ATOM     20  C   UNL     1       0.052  14.204  20.573  0.00  0.00    +0.000 C 
BRANCH  20  21
ATOM     21  N   UNL     1       0.583  15.188  19.635  0.00  0.00    +0.000 N 
ATOM     22  N   UNL     1      -0.178  16.224  19.215  0.00  0.00    +0.000 NA
ATOM     23  C   UNL     1       0.706  16.949  18.529  0.00  0.00    +0.000 A 
ATOM     24  N   UNL     1       1.977  16.461  18.523  0.00  0.00    +0.000 NA
ATOM     25  C   UNL     1       1.890  15.365  19.247  0.00  0.00    +0.000 A 
ATOM     26  C   UNL     1       3.013  14.481  19.638  0.00  0.00    +0.000 C 
ENDBRANCH  20  21
ENDBRANCH   2  20
TORSDOF 4
ENDMDL
MODEL 9
REMARK VINA RESULT:      -5.7      3.079      6.005
REMARK  Name = 
REMARK  8 active torsions:
REMARK  status: ('A' for Active; 'I' for Inactive)
REMARK    1  A    between atoms: C_1  and  C_2
REMARK    2  A    between atoms: C_4  and  C_5
REMARK    3  A    between atoms: C_7  and  S_8
REMARK    4  A    between atoms: S_8  and  C_9
REMARK    5  A    between atoms: C_10  and  C_11
REMARK    6  A    between atoms: C_11  and  N_12
REMARK    7  A    between atoms: C_16  and  C_17
REMARK    8  A    between atoms: C_18  and  C_19
REMARK                            x       y       z     vdW  Elec       q    Type
REMARK                         _______ _______ _______ _____ _____    ______ ____
ROOT
ATOM      1  C   UNL     1      -0.062  12.735  18.970  0.00  0.00    +0.000 A 
ATOM      2  C   UNL     1      -0.223  11.314  18.545  0.00  0.00    +0.000 A 
ATOM      3  C   UNL     1       0.873  10.628  18.139  0.00  0.00    +0.000 A 
ATOM      4  C   UNL     1       0.936   9.181  17.720  0.00  0.00    +0.000 C 
ATOM      5  N   UNL     1       2.085  11.268  18.067  0.00  0.00    +0.000 N 
ATOM      6  C   UNL     1       2.316  12.580  18.370  0.00  0.00    +0.000 A 
ATOM      7  O   UNL     1       3.443  13.046  18.231  0.00  0.00    +0.000 OA
ATOM      8  C   UNL     1       1.143  13.358  18.879  0.00  0.00    +0.000 A 
ATOM      9  I   UNL     1       1.563  15.339  19.405  0.00  0.00    +0.000 I 
ATOM     10  H   UNL     1       2.901  10.771  17.723  0.00  0.00    +0.000 HD
ENDROOT
BRANCH   1  11
ATOM     11  S   UNL     1      -1.478  13.601  19.557  0.00  0.00    +0.000 S 
BRANCH  11  18
ATOM     12  C   UNL     1      -0.390  10.012  23.309  0.00  0.00    +0.000 C 
ATOM     13  C   UNL     1      -1.251  11.151  22.848  0.00  0.00    +0.000 A 
ATOM     14  C   UNL     1      -2.385  11.539  23.568  0.00  0.00    +0.000 A 
ATOM     15  C   UNL     1      -3.204  12.572  23.104  0.00  0.00    +0.000 A 
ATOM     16  C   UNL     1      -4.421  12.987  23.880  0.00  0.00    +0.000 C 
ATOM     17  C   UNL     1      -2.878  13.220  21.900  0.00  0.00    +0.000 A 
ATOM     18  C   UNL     1      -1.743  12.846  21.164  0.00  0.00    +0.000 A 
ATOM     19  C   UNL     1      -0.930  11.822  21.660  0.00  0.00    +0.000 A 
ENDBRANCH  11  18
ENDBRANCH   1  11
BRANCH   2  20
ATOM     20  C   UNL     1      -1.585  10.629  18.644  0.00  0.00    +0.000 C 
BRANCH  20  21
ATOM     21  N   UNL     1      -2.476  10.873  17.514  0.00  0.00    +0.000 N 
ATOM     22  N   UNL     1      -2.164  10.425  16.277  0.00  0.00    +0.000 NA
ATOM     23  C   UNL     1      -3.278  10.699  15.599  0.00  0.00    +0.000 A 
ATOM     24  N   UNL     1      -4.283  11.251  16.335  0.00  0.00    +0.000 NA
ATOM     25  C   UNL     1      -3.773  11.329  17.546  0.00  0.00    +0.000 A 
ATOM     26  C   UNL     1      -4.478  11.781  18.768  0.00  0.00    +0.000 C 
ENDBRANCH  20  21
ENDBRANCH   2  20
TORSDOF 4
ENDMDL
