MODEL 1
REMARK VINA RESULT:      -7.5      0.000      0.000
REMARK  Name = 
REMARK  3 active torsions:
REMARK  status: ('A' for Active; 'I' for Inactive)
REMARK    1  A    between atoms: C_1  and  O_2
REMARK    2  A    between atoms: O_2  and  C_3
REMARK    3  A    between atoms: C_7  and  C_8
REMARK                            x       y       z     vdW  Elec       q    Type
REMARK                         _______ _______ _______ _____ _____    ______ ____
ROOT
ATOM      1  C   UNL     1       3.155   6.475  17.433  0.00  0.00    +0.000 C 
ATOM      2  S   UNL     1       3.820   8.120  17.990  0.00  0.00    +0.000 S 
ATOM      3  C   UNL     1       2.347   8.938  18.569  0.00  0.00    +0.000 A 
ATOM      4  C   UNL     1       2.140  10.226  18.043  0.00  0.00    +0.000 A 
ATOM      5  C   UNL     1       1.010  10.965  18.378  0.00  0.00    +0.000 A 
ATOM      6  C   UNL     1       0.063  10.414  19.231  0.00  0.00    +0.000 A 
ATOM      7  C   UNL     1       0.290   9.162  19.815  0.00  0.00    +0.000 A 
ATOM      8  C   UNL     1       1.456   8.420  19.533  0.00  0.00    +0.000 A 
ATOM      9  N   UNL     1       1.725   7.244  20.305  0.00  0.00    +0.000 N 
ATOM     10  C   UNL     1       2.195   6.072  19.758  0.00  0.00    +0.000 C 
ATOM     11  C   UNL     1       2.329   5.794  18.458  0.00  0.00    +0.000 C 
ATOM     12  C   UNL     1       1.503   4.587  18.236  0.00  0.00    +0.000 C 
ATOM     13  O   UNL     1       1.017   4.214  17.186  0.00  0.00    +0.000 OA
ATOM     14  C   UNL     1       1.380   3.931  19.538  0.00  0.00    +0.000 A 
ATOM     15  C   UNL     1       1.100   2.611  19.817  0.00  0.00    +0.000 A 
ATOM     16  C   UNL     1       1.711   2.075  20.948  0.00  0.00    +0.000 A 
ATOM     17  C   UNL     1       2.578   2.859  21.734  0.00  0.00    +0.000 A 
ATOM     18  C   UNL     1       2.719   4.230  21.489  0.00  0.00    +0.000 A 
ATOM     19  C   UNL     1       2.030   4.779  20.416  0.00  0.00    +0.000 A 
ATOM     20  H   UNL     1       0.948   7.047  20.941  0.00  0.00    +0.000 HD
ENDROOT
BRANCH   1  25
ATOM     21  C   UNL     1       6.603   4.791  17.741  0.00  0.00    +0.000 A 
ATOM     22  C   UNL     1       6.626   4.001  16.601  0.00  0.00    +0.000 A 
ATOM     23  C   UNL     1       5.552   3.984  15.716  0.00  0.00    +0.000 A 
ATOM     24  C   UNL     1       4.442   4.775  15.990  0.00  0.00    +0.000 A 
ATOM     25  C   UNL     1       4.373   5.572  17.157  0.00  0.00    +0.000 A 
ATOM     26  C   UNL     1       5.475   5.579  18.025  0.00  0.00    +0.000 A 
BRANCH  21  28
ATOM     27  C   UNL     1       7.944   5.753  19.446  0.00  0.00    +0.000 C 
ATOM     28  O   UNL     1       7.729   4.715  18.506  0.00  0.00    +0.000 OA
ENDBRANCH  21  28
ENDBRANCH   1  25
TORSDOF 2
ENDMDL
MODEL 2
REMARK VINA RESULT:      -7.1      1.069      1.690
REMARK  Name = 
REMARK  3 active torsions:
REMARK  status: ('A' for Active; 'I' for Inactive)
REMARK    1  A    between atoms: C_1  and  O_2
REMARK    2  A    between atoms: O_2  and  C_3
REMARK    3  A    between atoms: C_7  and  C_8
REMARK                            x       y       z     vdW  Elec       q    Type
REMARK                         _______ _______ _______ _____ _____    ______ ____
ROOT
ATOM      1  C   UNL     1       3.083   6.799  17.507  0.00  0.00    +0.000 C 
ATOM      2  S   UNL     1       3.630   8.458  18.143  0.00  0.00    +0.000 S 
ATOM      3  C   UNL     1       2.092   9.171  18.689  0.00  0.00    +0.000 A 
ATOM      4  C   UNL     1       1.831  10.463  18.198  0.00  0.00    +0.000 A 
ATOM      5  C   UNL     1       0.649  11.125  18.511  0.00  0.00    +0.000 A 
ATOM      6  C   UNL     1      -0.297  10.493  19.308  0.00  0.00    +0.000 A 
ATOM      7  C   UNL     1      -0.020   9.237  19.860  0.00  0.00    +0.000 A 
ATOM      8  C   UNL     1       1.197   8.572  19.601  0.00  0.00    +0.000 A 
ATOM      9  N   UNL     1       1.503   7.387  20.344  0.00  0.00    +0.000 N 
ATOM     10  C   UNL     1       2.060   6.263  19.779  0.00  0.00    +0.000 C 
ATOM     11  C   UNL     1       2.259   6.037  18.477  0.00  0.00    +0.000 C 
ATOM     12  C   UNL     1       1.513   4.794  18.184  0.00  0.00    +0.000 C 
ATOM     13  O   UNL     1       1.089   4.430  17.104  0.00  0.00    +0.000 OA
ATOM     14  C   UNL     1       1.379   4.088  19.458  0.00  0.00    +0.000 A 
ATOM     15  C   UNL     1       1.165   2.745  19.683  0.00  0.00    +0.000 A 
ATOM     16  C   UNL     1       1.763   2.205  20.820  0.00  0.00    +0.000 A 
ATOM     17  C   UNL     1       2.553   3.010  21.664  0.00  0.00    +0.000 A 
ATOM     18  C   UNL     1       2.625   4.395  21.469  0.00  0.00    +0.000 A 
ATOM     19  C   UNL     1       1.945   4.941  20.388  0.00  0.00    +0.000 A 
ATOM     20  H   UNL     1       0.716   7.125  20.942  0.00  0.00    +0.000 HD
ENDROOT
BRANCH   1  25
ATOM     21  C   UNL     1       6.105   5.194  15.745  0.00  0.00    +0.000 A 
ATOM     22  C   UNL     1       6.625   4.400  16.758  0.00  0.00    +0.000 A 
ATOM     23  C   UNL     1       6.031   4.361  18.017  0.00  0.00    +0.000 A 
ATOM     24  C   UNL     1       4.900   5.134  18.252  0.00  0.00    +0.000 A 
ATOM     25  C   UNL     1       4.359   5.975  17.251  0.00  0.00    +0.000 A 
ATOM     26  C   UNL     1       4.971   5.985  15.988  0.00  0.00    +0.000 A 
BRANCH  21  28
ATOM     27  C   UNL     1       6.412   4.089  13.668  0.00  0.00    +0.000 C 
ATOM     28  O   UNL     1       6.783   5.121  14.565  0.00  0.00    +0.000 OA
ENDBRANCH  21  28
ENDBRANCH   1  25
TORSDOF 2
ENDMDL
MODEL 3
REMARK VINA RESULT:      -6.9      5.140      9.119
REMARK  Name = 
REMARK  3 active torsions:
REMARK  status: ('A' for Active; 'I' for Inactive)
REMARK    1  A    between atoms: C_1  and  O_2
REMARK    2  A    between atoms: O_2  and  C_3
REMARK    3  A    between atoms: C_7  and  C_8
REMARK                            x       y       z     vdW  Elec       q    Type
REMARK                         _______ _______ _______ _____ _____    ______ ____
ROOT
ATOM      1  C   UNL     1      -0.173  12.571  20.065  0.00  0.00    +0.000 C 
ATOM      2  S   UNL     1       0.993  13.854  20.738  0.00  0.00    +0.000 S 
ATOM      3  C   UNL     1       0.630  15.261  19.707  0.00  0.00    +0.000 A 
ATOM      4  C   UNL     1       1.753  15.866  19.116  0.00  0.00    +0.000 A 
ATOM      5  C   UNL     1       1.615  16.951  18.256  0.00  0.00    +0.000 A 
ATOM      6  C   UNL     1       0.346  17.432  17.963  0.00  0.00    +0.000 A 
ATOM      7  C   UNL     1      -0.774  16.884  18.599  0.00  0.00    +0.000 A 
ATOM      8  C   UNL     1      -0.652  15.820  19.517  0.00  0.00    +0.000 A 
ATOM      9  N   UNL     1      -1.802  15.434  20.277  0.00  0.00    +0.000 N 
ATOM     10  C   UNL     1      -2.144  14.122  20.516  0.00  0.00    +0.000 C 
ATOM     11  C   UNL     1      -1.579  13.038  19.979  0.00  0.00    +0.000 C 
ATOM     12  C   UNL     1      -2.682  12.326  19.298  0.00  0.00    +0.000 C 
ATOM     13  O   UNL     1      -2.588  11.537  18.377  0.00  0.00    +0.000 OA
ATOM     14  C   UNL     1      -3.916  12.768  19.948  0.00  0.00    +0.000 A 
ATOM     15  C   UNL     1      -5.138  12.134  20.002  0.00  0.00    +0.000 A 
ATOM     16  C   UNL     1      -5.877  12.313  21.170  0.00  0.00    +0.000 A 
ATOM     17  C   UNL     1      -5.366  13.090  22.228  0.00  0.00    +0.000 A 
ATOM     18  C   UNL     1      -4.185  13.825  22.069  0.00  0.00    +0.000 A 
ATOM     19  C   UNL     1      -3.504  13.719  20.864  0.00  0.00    +0.000 A 
ATOM     20  H   UNL     1      -2.625  15.961  19.977  0.00  0.00    +0.000 HD
ENDROOT
BRANCH   1  25
ATOM     21  C   UNL     1       0.486   9.097  21.584  0.00  0.00    +0.000 A 
ATOM     22  C   UNL     1      -0.186   9.194  22.795  0.00  0.00    +0.000 A 
ATOM     23  C   UNL     1      -0.856  10.361  23.153  0.00  0.00    +0.000 A 
ATOM     24  C   UNL     1      -0.845  11.439  22.277  0.00  0.00    +0.000 A 
ATOM     25  C   UNL     1      -0.148  11.385  21.047  0.00  0.00    +0.000 A 
ATOM     26  C   UNL     1       0.509  10.192  20.706  0.00  0.00    +0.000 A 
BRANCH  21  28
ATOM     27  C   UNL     1       1.848   7.756  20.178  0.00  0.00    +0.000 C 
ATOM     28  O   UNL     1       1.084   7.892  21.364  0.00  0.00    +0.000 OA
ENDBRANCH  21  28
ENDBRANCH   1  25
TORSDOF 2
ENDMDL
MODEL 4
REMARK VINA RESULT:      -6.7      3.072      6.009
REMARK  Name = 
REMARK  3 active torsions:
REMARK  status: ('A' for Active; 'I' for Inactive)
REMARK    1  A    between atoms: C_1  and  O_2
REMARK    2  A    between atoms: O_2  and  C_3
REMARK    3  A    between atoms: C_7  and  C_8
REMARK                            x       y       z     vdW  Elec       q    Type
REMARK                         _______ _______ _______ _____ _____    ______ ____
ROOT
ATOM      1  C   UNL     1       5.182   3.773  16.666  0.00  0.00    +0.000 C 
ATOM      2  S   UNL     1       3.338   3.735  16.434  0.00  0.00    +0.000 S 
ATOM      3  C   UNL     1       2.753   3.773  18.116  0.00  0.00    +0.000 A 
ATOM      4  C   UNL     1       1.817   2.774  18.440  0.00  0.00    +0.000 A 
ATOM      5  C   UNL     1       1.305   2.660  19.728  0.00  0.00    +0.000 A 
ATOM      6  C   UNL     1       1.738   3.536  20.715  0.00  0.00    +0.000 A 
ATOM      7  C   UNL     1       2.615   4.578  20.389  0.00  0.00    +0.000 A 
ATOM      8  C   UNL     1       3.103   4.746  19.077  0.00  0.00    +0.000 A 
ATOM      9  N   UNL     1       3.837   5.935  18.764  0.00  0.00    +0.000 N 
ATOM     10  C   UNL     1       4.974   5.939  17.990  0.00  0.00    +0.000 C 
ATOM     11  C   UNL     1       5.644   4.872  17.547  0.00  0.00    +0.000 C 
ATOM     12  C   UNL     1       7.015   5.030  18.080  0.00  0.00    +0.000 C 
ATOM     13  O   UNL     1       7.835   4.151  18.268  0.00  0.00    +0.000 OA
ATOM     14  C   UNL     1       7.188   6.458  18.345  0.00  0.00    +0.000 A 
ATOM     15  C   UNL     1       8.356   7.184  18.435  0.00  0.00    +0.000 A 
ATOM     16  C   UNL     1       8.303   8.500  17.980  0.00  0.00    +0.000 A 
ATOM     17  C   UNL     1       7.110   9.026  17.446  0.00  0.00    +0.000 A 
ATOM     18  C   UNL     1       5.917   8.293  17.506  0.00  0.00    +0.000 A 
ATOM     19  C   UNL     1       5.958   7.017  18.051  0.00  0.00    +0.000 A 
ATOM     20  H   UNL     1       3.983   6.498  19.605  0.00  0.00    +0.000 HD
ENDROOT
BRANCH   1  25
ATOM     21  C   UNL     1       5.899   3.535  12.891  0.00  0.00    +0.000 A 
ATOM     22  C   UNL     1       6.993   4.380  12.765  0.00  0.00    +0.000 A 
ATOM     23  C   UNL     1       7.521   5.042  13.870  0.00  0.00    +0.000 A 
ATOM     24  C   UNL     1       6.935   4.847  15.115  0.00  0.00    +0.000 A 
ATOM     25  C   UNL     1       5.802   4.014  15.276  0.00  0.00    +0.000 A 
ATOM     26  C   UNL     1       5.298   3.350  14.147  0.00  0.00    +0.000 A 
BRANCH  21  28
ATOM     27  C   UNL     1       4.171   3.187  11.303  0.00  0.00    +0.000 C 
ATOM     28  O   UNL     1       5.501   2.947  11.728  0.00  0.00    +0.000 OA
ENDBRANCH  21  28
ENDBRANCH   1  25
TORSDOF 2
ENDMDL
MODEL 5
REMARK VINA RESULT:      -6.6      5.259      8.435
REMARK  Name = 
REMARK  3 active torsions:
REMARK  status: ('A' for Active; 'I' for Inactive)
REMARK    1  A    between atoms: C_1  and  O_2
REMARK    2  A    between atoms: O_2  and  C_3
REMARK    3  A    between atoms: C_7  and  C_8
REMARK                            x       y       z     vdW  Elec       q    Type
REMARK                         _______ _______ _______ _____ _____    ______ ____
ROOT
ATOM      1  C   UNL     1       0.957  12.428  18.767  0.00  0.00    +0.000 C 
ATOM      2  S   UNL     1       2.527  13.346  19.153  0.00  0.00    +0.000 S 
ATOM      3  C   UNL     1       2.134  14.997  18.609  0.00  0.00    +0.000 A 
ATOM      4  C   UNL     1       3.082  15.577  17.747  0.00  0.00    +0.000 A 
ATOM      5  C   UNL     1       2.885  16.846  17.213  0.00  0.00    +0.000 A 
ATOM      6  C   UNL     1       1.725  17.544  17.524  0.00  0.00    +0.000 A 
ATOM      7  C   UNL     1       0.808  17.008  18.435  0.00  0.00    +0.000 A 
ATOM      8  C   UNL     1       1.015  15.746  19.031  0.00  0.00    +0.000 A 
ATOM      9  N   UNL     1       0.148  15.339  20.095  0.00  0.00    +0.000 N 
ATOM     10  C   UNL     1      -0.358  14.065  20.211  0.00  0.00    +0.000 C 
ATOM     11  C   UNL     1      -0.258  13.079  19.315  0.00  0.00    +0.000 C 
ATOM     12  C   UNL     1      -1.653  12.704  18.998  0.00  0.00    +0.000 C 
ATOM     13  O   UNL     1      -2.055  12.156  17.989  0.00  0.00    +0.000 OA
ATOM     14  C   UNL     1      -2.460  13.130  20.141  0.00  0.00    +0.000 A 
ATOM     15  C   UNL     1      -3.692  12.665  20.550  0.00  0.00    +0.000 A 
ATOM     16  C   UNL     1      -3.921  12.649  21.925  0.00  0.00    +0.000 A 
ATOM     17  C   UNL     1      -2.922  13.073  22.823  0.00  0.00    +0.000 A 
ATOM     18  C   UNL     1      -1.744  13.666  22.352  0.00  0.00    +0.000 A 
ATOM     19  C   UNL     1      -1.564  13.768  20.980  0.00  0.00    +0.000 A 
ATOM     20  H   UNL     1      -0.597  16.026  20.234  0.00  0.00    +0.000 HD
ENDROOT
BRANCH   1  25
ATOM     21  C   UNL     1       1.106   9.661  21.439  0.00  0.00    +0.000 A 
ATOM     22  C   UNL     1       1.379   8.544  20.663  0.00  0.00    +0.000 A 
ATOM     23  C   UNL     1       1.517   8.644  19.281  0.00  0.00    +0.000 A 
ATOM     24  C   UNL     1       1.376   9.889  18.680  0.00  0.00    +0.000 A 
ATOM     25  C   UNL     1       1.072  11.046  19.437  0.00  0.00    +0.000 A 
ATOM     26  C   UNL     1       0.950  10.916  20.829  0.00  0.00    +0.000 A 
BRANCH  21  28
ATOM     27  C   UNL     1      -0.260   9.581  23.377  0.00  0.00    +0.000 C 
ATOM     28  O   UNL     1       1.011   9.413  22.776  0.00  0.00    +0.000 OA
ENDBRANCH  21  28
ENDBRANCH   1  25
TORSDOF 2
ENDMDL
MODEL 6
REMARK VINA RESULT:      -6.6      5.865      8.607
REMARK  Name = 
REMARK  3 active torsions:
REMARK  status: ('A' for Active; 'I' for Inactive)
REMARK    1  A    between atoms: C_1  and  O_2
REMARK    2  A    between atoms: O_2  and  C_3
REMARK    3  A    between atoms: C_7  and  C_8
REMARK                            x       y       z     vdW  Elec       q    Type
REMARK                         _______ _______ _______ _____ _____    ______ ____
ROOT
ATOM      1  C   UNL     1      -1.321  13.310  19.809  0.00  0.00    +0.000 C 
ATOM      2  S   UNL     1      -0.239  14.188  18.577  0.00  0.00    +0.000 S 
ATOM      3  C   UNL     1       0.995  14.926  19.628  0.00  0.00    +0.000 A 
ATOM      4  C   UNL     1       1.203  16.301  19.421  0.00  0.00    +0.000 A 
ATOM      5  C   UNL     1       2.110  17.015  20.198  0.00  0.00    +0.000 A 
ATOM      6  C   UNL     1       2.808  16.362  21.206  0.00  0.00    +0.000 A 
ATOM      7  C   UNL     1       2.661  14.981  21.376  0.00  0.00    +0.000 A 
ATOM      8  C   UNL     1       1.789  14.227  20.563  0.00  0.00    +0.000 A 
ATOM      9  N   UNL     1       1.828  12.799  20.655  0.00  0.00    +0.000 N 
ATOM     10  C   UNL     1       0.699  12.012  20.661  0.00  0.00    +0.000 C 
ATOM     11  C   UNL     1      -0.568  12.430  20.735  0.00  0.00    +0.000 C 
ATOM     12  C   UNL     1      -1.120  11.774  21.940  0.00  0.00    +0.000 C 
ATOM     13  O   UNL     1      -2.068  12.143  22.607  0.00  0.00    +0.000 OA
ATOM     14  C   UNL     1      -0.293  10.591  22.177  0.00  0.00    +0.000 A 
ATOM     15  C   UNL     1      -0.606   9.443  22.871  0.00  0.00    +0.000 A 
ATOM     16  C   UNL     1      -0.046   8.259  22.393  0.00  0.00    +0.000 A 
ATOM     17  C   UNL     1       0.776   8.266  21.249  0.00  0.00    +0.000 A 
ATOM     18  C   UNL     1       1.176   9.475  20.665  0.00  0.00    +0.000 A 
ATOM     19  C   UNL     1       0.692  10.657  21.207  0.00  0.00    +0.000 A 
ATOM     20  H   UNL     1       2.465  12.504  21.398  0.00  0.00    +0.000 HD
ENDROOT
BRANCH   1  25
ATOM     21  C   UNL     1      -2.692  10.904  17.136  0.00  0.00    +0.000 A 
ATOM     22  C   UNL     1      -4.036  10.849  17.478  0.00  0.00    +0.000 A 
ATOM     23  C   UNL     1      -4.531  11.568  18.563  0.00  0.00    +0.000 A 
ATOM     24  C   UNL     1      -3.657  12.350  19.307  0.00  0.00    +0.000 A 
ATOM     25  C   UNL     1      -2.276  12.410  19.003  0.00  0.00    +0.000 A 
ATOM     26  C   UNL     1      -1.807  11.683  17.897  0.00  0.00    +0.000 A 
BRANCH  21  28
ATOM     27  C   UNL     1      -3.132  10.336  14.874  0.00  0.00    +0.000 C 
ATOM     28  O   UNL     1      -2.355  10.159  16.045  0.00  0.00    +0.000 OA
ENDBRANCH  21  28
ENDBRANCH   1  25
TORSDOF 2
ENDMDL
MODEL 7
REMARK VINA RESULT:      -6.5      6.528      8.863
REMARK  Name = 
REMARK  3 active torsions:
REMARK  status: ('A' for Active; 'I' for Inactive)
REMARK    1  A    between atoms: C_1  and  O_2
REMARK    2  A    between atoms: O_2  and  C_3
REMARK    3  A    between atoms: C_7  and  C_8
REMARK                            x       y       z     vdW  Elec       q    Type
REMARK                         _______ _______ _______ _____ _____    ______ ____
ROOT
ATOM      1  C   UNL     1      -1.339  13.179  19.350  0.00  0.00    +0.000 C 
ATOM      2  S   UNL     1      -0.138  13.885  18.118  0.00  0.00    +0.000 S 
ATOM      3  C   UNL     1       0.878  14.925  19.147  0.00  0.00    +0.000 A 
ATOM      4  C   UNL     1       1.034  16.244  18.684  0.00  0.00    +0.000 A 
ATOM      5  C   UNL     1       1.770  17.177  19.407  0.00  0.00    +0.000 A 
ATOM      6  C   UNL     1       2.345  16.804  20.615  0.00  0.00    +0.000 A 
ATOM      7  C   UNL     1       2.257  15.477  21.052  0.00  0.00    +0.000 A 
ATOM      8  C   UNL     1       1.563  14.501  20.306  0.00  0.00    +0.000 A 
ATOM      9  N   UNL     1       1.671  13.129  20.701  0.00  0.00    +0.000 N 
ATOM     10  C   UNL     1       0.602  12.262  20.721  0.00  0.00    +0.000 C 
ATOM     11  C   UNL     1      -0.683  12.573  20.533  0.00  0.00    +0.000 C 
ATOM     12  C   UNL     1      -1.371  12.125  21.764  0.00  0.00    +0.000 C 
ATOM     13  O   UNL     1      -2.429  12.535  22.204  0.00  0.00    +0.000 OA
ATOM     14  C   UNL     1      -0.520  11.092  22.355  0.00  0.00    +0.000 A 
ATOM     15  C   UNL     1      -0.866  10.083  23.227  0.00  0.00    +0.000 A 
ATOM     16  C   UNL     1      -0.173   8.882  23.089  0.00  0.00    +0.000 A 
ATOM     17  C   UNL     1       0.811   8.733  22.092  0.00  0.00    +0.000 A 
ATOM     18  C   UNL     1       1.222   9.830  21.325  0.00  0.00    +0.000 A 
ATOM     19  C   UNL     1       0.593  11.050  21.535  0.00  0.00    +0.000 A 
ATOM     20  H   UNL     1       2.205  13.047  21.569  0.00  0.00    +0.000 HD
ENDROOT
BRANCH   1  25
ATOM     21  C   UNL     1      -4.198  10.929  18.094  0.00  0.00    +0.000 A 
ATOM     22  C   UNL     1      -3.496   9.952  17.402  0.00  0.00    +0.000 A 
ATOM     23  C   UNL     1      -2.107   9.989  17.318  0.00  0.00    +0.000 A 
ATOM     24  C   UNL     1      -1.422  11.027  17.940  0.00  0.00    +0.000 A 
ATOM     25  C   UNL     1      -2.108  12.054  18.630  0.00  0.00    +0.000 A 
ATOM     26  C   UNL     1      -3.507  11.985  18.709  0.00  0.00    +0.000 A 
BRANCH  21  28
ATOM     27  C   UNL     1      -6.347  11.857  17.705  0.00  0.00    +0.000 C 
ATOM     28  O   UNL     1      -5.550  10.755  18.102  0.00  0.00    +0.000 OA
ENDBRANCH  21  28
ENDBRANCH   1  25
TORSDOF 2
ENDMDL
MODEL 8
REMARK VINA RESULT:      -6.5      4.735      8.228
REMARK  Name = 
REMARK  3 active torsions:
REMARK  status: ('A' for Active; 'I' for Inactive)
REMARK    1  A    between atoms: C_1  and  O_2
REMARK    2  A    between atoms: O_2  and  C_3
REMARK    3  A    between atoms: C_7  and  C_8
REMARK                            x       y       z     vdW  Elec       q    Type
REMARK                         _______ _______ _______ _____ _____    ______ ____
ROOT
ATOM      1  C   UNL     1      -0.860  12.784  19.611  0.00  0.00    +0.000 C 
ATOM      2  S   UNL     1      -0.458  14.267  18.564  0.00  0.00    +0.000 S 
ATOM      3  C   UNL     1       1.039  14.862  19.325  0.00  0.00    +0.000 A 
ATOM      4  C   UNL     1       1.034  16.230  19.649  0.00  0.00    +0.000 A 
ATOM      5  C   UNL     1       2.121  16.822  20.282  0.00  0.00    +0.000 A 
ATOM      6  C   UNL     1       3.223  16.044  20.616  0.00  0.00    +0.000 A 
ATOM      7  C   UNL     1       3.269  14.698  20.237  0.00  0.00    +0.000 A 
ATOM      8  C   UNL     1       2.201  14.091  19.544  0.00  0.00    +0.000 A 
ATOM      9  N   UNL     1       2.385  12.774  19.015  0.00  0.00    +0.000 N 
ATOM     10  C   UNL     1       1.426  11.789  19.086  0.00  0.00    +0.000 C 
ATOM     11  C   UNL     1       0.275  11.842  19.762  0.00  0.00    +0.000 C 
ATOM     12  C   UNL     1       0.325  10.695  20.695  0.00  0.00    +0.000 C 
ATOM     13  O   UNL     1      -0.288  10.571  21.739  0.00  0.00    +0.000 OA
ATOM     14  C   UNL     1       1.266   9.737  20.116  0.00  0.00    +0.000 A 
ATOM     15  C   UNL     1       1.359   8.379  20.331  0.00  0.00    +0.000 A 
ATOM     16  C   UNL     1       1.762   7.606  19.244  0.00  0.00    +0.000 A 
ATOM     17  C   UNL     1       2.034   8.208  17.999  0.00  0.00    +0.000 A 
ATOM     18  C   UNL     1       2.060   9.602  17.870  0.00  0.00    +0.000 A 
ATOM     19  C   UNL     1       1.753  10.369  18.985  0.00  0.00    +0.000 A 
ATOM     20  H   UNL     1       3.294  12.398  19.296  0.00  0.00    +0.000 HD
ENDROOT
BRANCH   1  25
ATOM     21  C   UNL     1      -2.747  10.564  17.096  0.00  0.00    +0.000 A 
ATOM     22  C   UNL     1      -4.058  10.715  17.526  0.00  0.00    +0.000 A 
ATOM     23  C   UNL     1      -4.368  11.517  18.620  0.00  0.00    +0.000 A 
ATOM     24  C   UNL     1      -3.340  12.173  19.286  0.00  0.00    +0.000 A 
ATOM     25  C   UNL     1      -1.990  12.022  18.892  0.00  0.00    +0.000 A 
ATOM     26  C   UNL     1      -1.708  11.216  17.778  0.00  0.00    +0.000 A 
BRANCH  21  28
ATOM     27  C   UNL     1      -3.108  10.237  14.773  0.00  0.00    +0.000 C 
ATOM     28  O   UNL     1      -2.597   9.760  16.006  0.00  0.00    +0.000 OA
ENDBRANCH  21  28
ENDBRANCH   1  25
TORSDOF 2
ENDMDL
MODEL 9
REMARK VINA RESULT:      -6.4      8.411     11.725
REMARK  Name = 
REMARK  3 active torsions:
REMARK  status: ('A' for Active; 'I' for Inactive)
REMARK    1  A    between atoms: C_1  and  O_2
REMARK    2  A    between atoms: O_2  and  C_3
REMARK    3  A    between atoms: C_7  and  C_8
REMARK                            x       y       z     vdW  Elec       q    Type
REMARK                         _______ _______ _______ _____ _____    ______ ____
ROOT
ATOM      1  C   UNL     1      -5.311  13.836  22.568  0.00  0.00    +0.000 C 
ATOM      2  S   UNL     1      -5.583  15.579  21.983  0.00  0.00    +0.000 S 
ATOM      3  C   UNL     1      -4.788  16.529  23.263  0.00  0.00    +0.000 A 
ATOM      4  C   UNL     1      -5.574  17.558  23.811  0.00  0.00    +0.000 A 
ATOM      5  C   UNL     1      -5.094  18.354  24.846  0.00  0.00    +0.000 A 
ATOM      6  C   UNL     1      -3.825  18.116  25.358  0.00  0.00    +0.000 A 
ATOM      7  C   UNL     1      -3.007  17.141  24.776  0.00  0.00    +0.000 A 
ATOM      8  C   UNL     1      -3.453  16.361  23.688  0.00  0.00    +0.000 A 
ATOM      9  N   UNL     1      -2.509  15.521  23.014  0.00  0.00    +0.000 N 
ATOM     10  C   UNL     1      -2.795  14.238  22.606  0.00  0.00    +0.000 C 
ATOM     11  C   UNL     1      -3.895  13.536  22.891  0.00  0.00    +0.000 C 
ATOM     12  C   UNL     1      -3.406  12.316  23.570  0.00  0.00    +0.000 C 
ATOM     13  O   UNL     1      -4.029  11.601  24.333  0.00  0.00    +0.000 OA
ATOM     14  C   UNL     1      -2.017  12.141  23.147  0.00  0.00    +0.000 A 
ATOM     15  C   UNL     1      -1.256  10.992  23.133  0.00  0.00    +0.000 A 
ATOM     16  C   UNL     1      -0.325  10.880  22.102  0.00  0.00    +0.000 A 
ATOM     17  C   UNL     1      -0.203  11.895  21.133  0.00  0.00    +0.000 A 
ATOM     18  C   UNL     1      -0.899  13.102  21.273  0.00  0.00    +0.000 A 
ATOM     19  C   UNL     1      -1.753  13.245  22.357  0.00  0.00    +0.000 A 
ATOM     20  H   UNL     1      -1.604  15.544  23.490  0.00  0.00    +0.000 HD
ENDROOT
BRANCH   1  25
ATOM     21  C   UNL     1      -5.298  11.961  19.207  0.00  0.00    +0.000 A 
ATOM     22  C   UNL     1      -6.512  11.291  19.261  0.00  0.00    +0.000 A 
ATOM     23  C   UNL     1      -7.354  11.417  20.362  0.00  0.00    +0.000 A 
ATOM     24  C   UNL     1      -6.962  12.229  21.419  0.00  0.00    +0.000 A 
ATOM     25  C   UNL     1      -5.720  12.906  21.410  0.00  0.00    +0.000 A 
ATOM     26  C   UNL     1      -4.896  12.770  20.281  0.00  0.00    +0.000 A 
BRANCH  21  28
ATOM     27  C   UNL     1      -3.191  11.551  18.196  0.00  0.00    +0.000 C 
ATOM     28  O   UNL     1      -4.586  11.753  18.063  0.00  0.00    +0.000 OA
ENDBRANCH  21  28
ENDBRANCH   1  25
TORSDOF 2
ENDMDL
