MODEL 1
REMARK VINA RESULT:      -8.9      0.000      0.000
REMARK  Name = 
REMARK  5 active torsions:
REMARK  status: ('A' for Active; 'I' for Inactive)
REMARK    1  A    between atoms: C_1  and  C_2
REMARK    2  A    between atoms: C_2  and  C_3
REMARK    3  A    between atoms: C_2  and  N_10
REMARK    4  A    between atoms: C_15  and  O_16
REMARK    5  A    between atoms: C_19  and  C_20
REMARK                            x       y       z     vdW  Elec       q    Type
REMARK                         _______ _______ _______ _____ _____    ______ ____
ROOT
ATOM      1  N   UNL     1       1.415   8.452  19.188  0.00  0.00    +0.000 NA
ATOM      2  C   UNL     1       1.559   8.127  20.613  0.00  0.00    +0.000 C 
ATOM      3  C   UNL     1       1.531   6.612  20.863  0.00  0.00    +0.000 C 
ATOM      4  C   UNL     1       2.409   5.834  19.912  0.00  0.00    +0.000 A 
ATOM      5  N   UNL     1       2.730   4.545  20.333  0.00  0.00    +0.000 NA
ATOM      6  C   UNL     1       3.493   3.877  19.537  0.00  0.00    +0.000 A 
ATOM      7  N   UNL     1       3.981   4.354  18.335  0.00  0.00    +0.000 N 
ATOM      8  C   UNL     1       4.779   3.780  17.377  0.00  0.00    +0.000 A 
ATOM      9  C   UNL     1       4.922   4.743  16.402  0.00  0.00    +0.000 A 
ATOM     10  N   UNL     1       4.227   5.882  16.740  0.00  0.00    +0.000 NA
ATOM     11  C   UNL     1       3.676   5.622  17.909  0.00  0.00    +0.000 A 
ATOM     12  C   UNL     1       2.848   6.410  18.763  0.00  0.00    +0.000 A 
ATOM     13  C   UNL     1       2.493   7.838  18.401  0.00  0.00    +0.000 C 
ENDROOT
BRANCH   9  14
ATOM     14  C   UNL     1       5.667   4.600  15.164  0.00  0.00    +0.000 A 
ATOM     15  C   UNL     1       5.123   3.852  14.109  0.00  0.00    +0.000 A 
ATOM     16  C   UNL     1       5.829   3.691  12.912  0.00  0.00    +0.000 A 
ATOM     17  C   UNL     1       7.082   4.283  12.753  0.00  0.00    +0.000 A 
ATOM     18  C   UNL     1       7.627   5.036  13.790  0.00  0.00    +0.000 A 
ATOM     19  C   UNL     1       6.921   5.190  14.982  0.00  0.00    +0.000 A 
ATOM     20  F   UNL     1       7.483   5.937  15.947  0.00  0.00    +0.000 F 
ENDBRANCH   9  14
BRANCH   1  22
ATOM     21  C   UNL     1       2.237  10.490  17.891  0.00  0.00    +0.000 C 
ATOM     22  C   UNL     1       1.266   9.911  18.944  0.00  0.00    +0.000 C 
BRANCH  22  23
ATOM     23  C   UNL     1      -0.179  10.334  18.674  0.00  0.00    +0.000 A 
ATOM     24  C   UNL     1      -0.957   9.762  17.649  0.00  0.00    +0.000 A 
ATOM     25  C   UNL     1      -2.248  10.224  17.375  0.00  0.00    +0.000 A 
ATOM     26  C   UNL     1      -2.796  11.258  18.129  0.00  0.00    +0.000 A 
ATOM     27  C   UNL     1      -2.055  11.820  19.168  0.00  0.00    +0.000 A 
ATOM     28  C   UNL     1      -0.766  11.355  19.434  0.00  0.00    +0.000 A 
ATOM     29  F   UNL     1      -0.078  11.935  20.429  0.00  0.00    +0.000 F 
ENDBRANCH  22  23
ENDBRANCH   1  22
BRANCH   6  30
ATOM     30  O   UNL     1       3.899   2.625  19.813  0.00  0.00    +0.000 OA
ATOM     31  H   UNL     1       4.840   2.669  20.052  0.00  0.00    +0.000 HD
ENDBRANCH   6  30
TORSDOF 4
ENDMDL
MODEL 2
REMARK VINA RESULT:      -8.7      1.024      1.349
REMARK  Name = 
REMARK  5 active torsions:
REMARK  status: ('A' for Active; 'I' for Inactive)
REMARK    1  A    between atoms: C_1  and  C_2
REMARK    2  A    between atoms: C_2  and  C_3
REMARK    3  A    between atoms: C_2  and  N_10
REMARK    4  A    between atoms: C_15  and  O_16
REMARK    5  A    between atoms: C_19  and  C_20
REMARK                            x       y       z     vdW  Elec       q    Type
REMARK                         _______ _______ _______ _____ _____    ______ ____
ROOT
ATOM      1  N   UNL     1       1.150   8.921  19.472  0.00  0.00    +0.000 NA
ATOM      2  C   UNL     1       1.204   8.628  20.911  0.00  0.00    +0.000 C 
ATOM      3  C   UNL     1       1.109   7.122  21.195  0.00  0.00    +0.000 C 
ATOM      4  C   UNL     1       2.010   6.290  20.314  0.00  0.00    +0.000 A 
ATOM      5  N   UNL     1       2.263   5.002  20.782  0.00  0.00    +0.000 NA
ATOM      6  C   UNL     1       3.045   4.289  20.047  0.00  0.00    +0.000 A 
ATOM      7  N   UNL     1       3.615   4.719  18.863  0.00  0.00    +0.000 N 
ATOM      8  C   UNL     1       4.444   4.093  17.966  0.00  0.00    +0.000 A 
ATOM      9  C   UNL     1       4.674   5.026  16.978  0.00  0.00    +0.000 A 
ATOM     10  N   UNL     1       4.001   6.196  17.248  0.00  0.00    +0.000 NA
ATOM     11  C   UNL     1       3.378   5.985  18.390  0.00  0.00    +0.000 A 
ATOM     12  C   UNL     1       2.532   6.821  19.178  0.00  0.00    +0.000 A 
ATOM     13  C   UNL     1       2.248   8.250  18.762  0.00  0.00    +0.000 C 
ENDROOT
BRANCH   9  14
ATOM     14  C   UNL     1       5.481   4.826  15.787  0.00  0.00    +0.000 A 
ATOM     15  C   UNL     1       4.958   4.098  14.708  0.00  0.00    +0.000 A 
ATOM     16  C   UNL     1       5.723   3.883  13.556  0.00  0.00    +0.000 A 
ATOM     17  C   UNL     1       7.015   4.401  13.467  0.00  0.00    +0.000 A 
ATOM     18  C   UNL     1       7.541   5.132  14.529  0.00  0.00    +0.000 A 
ATOM     19  C   UNL     1       6.776   5.341  15.675  0.00  0.00    +0.000 A 
ATOM     20  F   UNL     1       7.323   6.065  16.665  0.00  0.00    +0.000 F 
ENDBRANCH   9  14
BRANCH   1  22
ATOM     21  C   UNL     1       2.014  10.869  18.070  0.00  0.00    +0.000 C 
ATOM     22  C   UNL     1       1.065  10.376  19.186  0.00  0.00    +0.000 C 
BRANCH  22  23
ATOM     23  C   UNL     1      -0.367  10.868  18.967  0.00  0.00    +0.000 A 
ATOM     24  C   UNL     1      -0.962  11.854  19.778  0.00  0.00    +0.000 A 
ATOM     25  C   UNL     1      -2.297  12.226  19.603  0.00  0.00    +0.000 A 
ATOM     26  C   UNL     1      -3.065  11.632  18.606  0.00  0.00    +0.000 A 
ATOM     27  C   UNL     1      -2.489  10.676  17.772  0.00  0.00    +0.000 A 
ATOM     28  C   UNL     1      -1.155  10.307  17.952  0.00  0.00    +0.000 A 
ATOM     29  F   UNL     1      -0.643   9.367  17.143  0.00  0.00    +0.000 F 
ENDBRANCH  22  23
ENDBRANCH   1  22
BRANCH   6  30
ATOM     30  O   UNL     1       3.391   3.032  20.375  0.00  0.00    +0.000 OA
ATOM     31  H   UNL     1       3.733   2.604  19.573  0.00  0.00    +0.000 HD
ENDBRANCH   6  30
TORSDOF 4
ENDMDL
MODEL 3
REMARK VINA RESULT:      -8.4      1.576      1.987
REMARK  Name = 
REMARK  5 active torsions:
REMARK  status: ('A' for Active; 'I' for Inactive)
REMARK    1  A    between atoms: C_1  and  C_2
REMARK    2  A    between atoms: C_2  and  C_3
REMARK    3  A    between atoms: C_2  and  N_10
REMARK    4  A    between atoms: C_15  and  O_16
REMARK    5  A    between atoms: C_19  and  C_20
REMARK                            x       y       z     vdW  Elec       q    Type
REMARK                         _______ _______ _______ _____ _____    ______ ____
ROOT
ATOM      1  N   UNL     1       1.763   7.463  19.329  0.00  0.00    +0.000 NA
ATOM      2  C   UNL     1       1.982   6.950  20.688  0.00  0.00    +0.000 C 
ATOM      3  C   UNL     1       1.992   5.415  20.730  0.00  0.00    +0.000 C 
ATOM      4  C   UNL     1       2.836   4.795  19.642  0.00  0.00    +0.000 A 
ATOM      5  N   UNL     1       3.200   3.468  19.867  0.00  0.00    +0.000 NA
ATOM      6  C   UNL     1       3.936   2.934  18.953  0.00  0.00    +0.000 A 
ATOM      7  N   UNL     1       4.357   3.581  17.807  0.00  0.00    +0.000 N 
ATOM      8  C   UNL     1       5.117   3.162  16.745  0.00  0.00    +0.000 A 
ATOM      9  C   UNL     1       5.196   4.252  15.905  0.00  0.00    +0.000 A 
ATOM     10  N   UNL     1       4.498   5.318  16.427  0.00  0.00    +0.000 NA
ATOM     11  C   UNL     1       4.009   4.888  17.573  0.00  0.00    +0.000 A 
ATOM     12  C   UNL     1       3.209   5.532  18.564  0.00  0.00    +0.000 A 
ATOM     13  C   UNL     1       2.813   6.987  18.418  0.00  0.00    +0.000 C 
ENDROOT
BRANCH   9  14
ATOM     14  C   UNL     1       5.883   4.297  14.626  0.00  0.00    +0.000 A 
ATOM     15  C   UNL     1       5.359   3.594  13.531  0.00  0.00    +0.000 A 
ATOM     16  C   UNL     1       6.011   3.614  12.294  0.00  0.00    +0.000 A 
ATOM     17  C   UNL     1       7.189   4.343  12.135  0.00  0.00    +0.000 A 
ATOM     18  C   UNL     1       7.714   5.051  13.213  0.00  0.00    +0.000 A 
ATOM     19  C   UNL     1       7.062   5.026  14.444  0.00  0.00    +0.000 A 
ATOM     20  F   UNL     1       7.600   5.737  15.448  0.00  0.00    +0.000 F 
ENDBRANCH   9  14
BRANCH   1  22
ATOM     21  C   UNL     1       0.984   9.480  17.975  0.00  0.00    +0.000 C 
ATOM     22  C   UNL     1       1.577   8.937  19.295  0.00  0.00    +0.000 C 
BRANCH  22  23
ATOM     23  C   UNL     1       0.832   9.480  20.515  0.00  0.00    +0.000 A 
ATOM     24  C   UNL     1       0.105   8.651  21.391  0.00  0.00    +0.000 A 
ATOM     25  C   UNL     1      -0.630   9.186  22.453  0.00  0.00    +0.000 A 
ATOM     26  C   UNL     1      -0.643  10.560  22.672  0.00  0.00    +0.000 A 
ATOM     27  C   UNL     1       0.093  11.398  21.836  0.00  0.00    +0.000 A 
ATOM     28  C   UNL     1       0.823  10.858  20.777  0.00  0.00    +0.000 A 
ATOM     29  F   UNL     1       1.502  11.699  19.982  0.00  0.00    +0.000 F 
ENDBRANCH  22  23
ENDBRANCH   1  22
BRANCH   6  30
ATOM     30  O   UNL     1       4.376   1.666  19.036  0.00  0.00    +0.000 OA
ATOM     31  H   UNL     1       3.614   1.082  18.889  0.00  0.00    +0.000 HD
ENDBRANCH   6  30
TORSDOF 4
ENDMDL
MODEL 4
REMARK VINA RESULT:      -8.2      1.060      1.377
REMARK  Name = 
REMARK  5 active torsions:
REMARK  status: ('A' for Active; 'I' for Inactive)
REMARK    1  A    between atoms: C_1  and  C_2
REMARK    2  A    between atoms: C_2  and  C_3
REMARK    3  A    between atoms: C_2  and  N_10
REMARK    4  A    between atoms: C_15  and  O_16
REMARK    5  A    between atoms: C_19  and  C_20
REMARK                            x       y       z     vdW  Elec       q    Type
REMARK                         _______ _______ _______ _____ _____    ______ ____
ROOT
ATOM      1  N   UNL     1       1.732   8.132  18.922  0.00  0.00    +0.000 NA
ATOM      2  C   UNL     1       1.882   7.699  20.318  0.00  0.00    +0.000 C 
ATOM      3  C   UNL     1       1.880   6.169  20.450  0.00  0.00    +0.000 C 
ATOM      4  C   UNL     1       2.770   5.482  19.441  0.00  0.00    +0.000 A 
ATOM      5  N   UNL     1       3.113   4.169  19.760  0.00  0.00    +0.000 NA
ATOM      6  C   UNL     1       3.887   3.578  18.916  0.00  0.00    +0.000 A 
ATOM      7  N   UNL     1       4.366   4.156  17.755  0.00  0.00    +0.000 N 
ATOM      8  C   UNL     1       5.173   3.671  16.756  0.00  0.00    +0.000 A 
ATOM      9  C   UNL     1       5.299   4.710  15.859  0.00  0.00    +0.000 A 
ATOM     10  N   UNL     1       4.585   5.807  16.284  0.00  0.00    +0.000 NA
ATOM     11  C   UNL     1       4.040   5.448  17.429  0.00  0.00    +0.000 A 
ATOM     12  C   UNL     1       3.198   6.153  18.341  0.00  0.00    +0.000 A 
ATOM     13  C   UNL     1       2.820   7.598  18.091  0.00  0.00    +0.000 C 
ENDROOT
BRANCH   9  14
ATOM     14  C   UNL     1       6.046   4.676  14.614  0.00  0.00    +0.000 A 
ATOM     15  C   UNL     1       7.294   5.310  14.536  0.00  0.00    +0.000 A 
ATOM     16  C   UNL     1       8.024   5.301  13.343  0.00  0.00    +0.000 A 
ATOM     17  C   UNL     1       7.519   4.649  12.218  0.00  0.00    +0.000 A 
ATOM     18  C   UNL     1       6.285   4.008  12.287  0.00  0.00    +0.000 A 
ATOM     19  C   UNL     1       5.560   4.023  13.477  0.00  0.00    +0.000 A 
ATOM     20  F   UNL     1       4.382   3.379  13.497  0.00  0.00    +0.000 F 
ENDBRANCH   9  14
BRANCH   1  22
ATOM     21  C   UNL     1       2.470  10.267  17.738  0.00  0.00    +0.000 C 
ATOM     22  C   UNL     1       1.558   9.602  18.793  0.00  0.00    +0.000 C 
BRANCH  22  23
ATOM     23  C   UNL     1       0.099  10.026  18.627  0.00  0.00    +0.000 A 
ATOM     24  C   UNL     1      -0.696   9.599  17.546  0.00  0.00    +0.000 A 
ATOM     25  C   UNL     1      -2.003  10.065  17.378  0.00  0.00    +0.000 A 
ATOM     26  C   UNL     1      -2.550  10.959  18.294  0.00  0.00    +0.000 A 
ATOM     27  C   UNL     1      -1.793  11.372  19.389  0.00  0.00    +0.000 A 
ATOM     28  C   UNL     1      -0.488  10.904  19.549  0.00  0.00    +0.000 A 
ATOM     29  F   UNL     1       0.216  11.342  20.604  0.00  0.00    +0.000 F 
ENDBRANCH  22  23
ENDBRANCH   1  22
BRANCH   6  30
ATOM     30  O   UNL     1       4.313   2.316  19.094  0.00  0.00    +0.000 OA
ATOM     31  H   UNL     1       4.061   2.045  19.992  0.00  0.00    +0.000 HD
ENDBRANCH   6  30
TORSDOF 4
ENDMDL
MODEL 5
REMARK VINA RESULT:      -7.6      1.359      1.876
REMARK  Name = 
REMARK  5 active torsions:
REMARK  status: ('A' for Active; 'I' for Inactive)
REMARK    1  A    between atoms: C_1  and  C_2
REMARK    2  A    between atoms: C_2  and  C_3
REMARK    3  A    between atoms: C_2  and  N_10
REMARK    4  A    between atoms: C_15  and  O_16
REMARK    5  A    between atoms: C_19  and  C_20
REMARK                            x       y       z     vdW  Elec       q    Type
REMARK                         _______ _______ _______ _____ _____    ______ ____
ROOT
ATOM      1  N   UNL     1       1.051   9.030  19.553  0.00  0.00    +0.000 NA
ATOM      2  C   UNL     1       1.043   8.735  20.992  0.00  0.00    +0.000 C 
ATOM      3  C   UNL     1       0.941   7.228  21.271  0.00  0.00    +0.000 C 
ATOM      4  C   UNL     1       1.882   6.400  20.427  0.00  0.00    +0.000 A 
ATOM      5  N   UNL     1       2.118   5.113  20.905  0.00  0.00    +0.000 NA
ATOM      6  C   UNL     1       2.933   4.403  20.203  0.00  0.00    +0.000 A 
ATOM      7  N   UNL     1       3.553   4.836  19.045  0.00  0.00    +0.000 N 
ATOM      8  C   UNL     1       4.421   4.214  18.184  0.00  0.00    +0.000 A 
ATOM      9  C   UNL     1       4.691   5.149  17.208  0.00  0.00    +0.000 A 
ATOM     10  N   UNL     1       4.004   6.316  17.450  0.00  0.00    +0.000 NA
ATOM     11  C   UNL     1       3.333   6.102  18.564  0.00  0.00    +0.000 A 
ATOM     12  C   UNL     1       2.450   6.935  19.316  0.00  0.00    +0.000 A 
ATOM     13  C   UNL     1       2.181   8.364  18.890  0.00  0.00    +0.000 C 
ENDROOT
BRANCH   9  14
ATOM     14  C   UNL     1       5.549   4.953  16.052  0.00  0.00    +0.000 A 
ATOM     15  C   UNL     1       6.822   5.542  16.025  0.00  0.00    +0.000 A 
ATOM     16  C   UNL     1       7.660   5.376  14.917  0.00  0.00    +0.000 A 
ATOM     17  C   UNL     1       7.238   4.613  13.829  0.00  0.00    +0.000 A 
ATOM     18  C   UNL     1       5.980   4.016  13.849  0.00  0.00    +0.000 A 
ATOM     19  C   UNL     1       5.148   4.187  14.953  0.00  0.00    +0.000 A 
ATOM     20  F   UNL     1       3.951   3.580  14.931  0.00  0.00    +0.000 F 
ENDBRANCH   9  14
BRANCH   1  22
ATOM     21  C   UNL     1       1.921  10.971  18.145  0.00  0.00    +0.000 C 
ATOM     22  C   UNL     1       0.974  10.486  19.266  0.00  0.00    +0.000 C 
BRANCH  22  23
ATOM     23  C   UNL     1      -0.455  10.986  19.053  0.00  0.00    +0.000 A 
ATOM     24  C   UNL     1      -1.049  11.959  19.880  0.00  0.00    +0.000 A 
ATOM     25  C   UNL     1      -2.383  12.339  19.709  0.00  0.00    +0.000 A 
ATOM     26  C   UNL     1      -3.150  11.767  18.699  0.00  0.00    +0.000 A 
ATOM     27  C   UNL     1      -2.575  10.823  17.849  0.00  0.00    +0.000 A 
ATOM     28  C   UNL     1      -1.243  10.446  18.027  0.00  0.00    +0.000 A 
ATOM     29  F   UNL     1      -0.733   9.520  17.201  0.00  0.00    +0.000 F 
ENDBRANCH  22  23
ENDBRANCH   1  22
BRANCH   6  30
ATOM     30  O   UNL     1       3.269   3.146  20.544  0.00  0.00    +0.000 OA
ATOM     31  H   UNL     1       2.960   2.998  21.453  0.00  0.00    +0.000 HD
ENDBRANCH   6  30
TORSDOF 4
ENDMDL
MODEL 6
REMARK VINA RESULT:      -7.6      1.782      2.315
REMARK  Name = 
REMARK  5 active torsions:
REMARK  status: ('A' for Active; 'I' for Inactive)
REMARK    1  A    between atoms: C_1  and  C_2
REMARK    2  A    between atoms: C_2  and  C_3
REMARK    3  A    between atoms: C_2  and  N_10
REMARK    4  A    between atoms: C_15  and  O_16
REMARK    5  A    between atoms: C_19  and  C_20
REMARK                            x       y       z     vdW  Elec       q    Type
REMARK                         _______ _______ _______ _____ _____    ______ ____
ROOT
ATOM      1  N   UNL     1       1.799   7.570  19.214  0.00  0.00    +0.000 NA
ATOM      2  C   UNL     1       2.015   7.060  20.574  0.00  0.00    +0.000 C 
ATOM      3  C   UNL     1       2.069   5.526  20.612  0.00  0.00    +0.000 C 
ATOM      4  C   UNL     1       2.944   4.933  19.533  0.00  0.00    +0.000 A 
ATOM      5  N   UNL     1       3.344   3.617  19.759  0.00  0.00    +0.000 NA
ATOM      6  C   UNL     1       4.106   3.106  18.854  0.00  0.00    +0.000 A 
ATOM      7  N   UNL     1       4.522   3.769  17.715  0.00  0.00    +0.000 N 
ATOM      8  C   UNL     1       5.307   3.375  16.661  0.00  0.00    +0.000 A 
ATOM      9  C   UNL     1       5.365   4.469  15.825  0.00  0.00    +0.000 A 
ATOM     10  N   UNL     1       4.630   5.513  16.340  0.00  0.00    +0.000 NA
ATOM     11  C   UNL     1       4.140   5.066  17.479  0.00  0.00    +0.000 A 
ATOM     12  C   UNL     1       3.309   5.684  18.462  0.00  0.00    +0.000 A 
ATOM     13  C   UNL     1       2.873   7.127  18.314  0.00  0.00    +0.000 C 
ENDROOT
BRANCH   9  14
ATOM     14  C   UNL     1       6.066   4.537  14.555  0.00  0.00    +0.000 A 
ATOM     15  C   UNL     1       7.293   5.211  14.474  0.00  0.00    +0.000 A 
ATOM     16  C   UNL     1       7.979   5.299  13.258  0.00  0.00    +0.000 A 
ATOM     17  C   UNL     1       7.450   4.707  12.112  0.00  0.00    +0.000 A 
ATOM     18  C   UNL     1       6.237   4.027  12.182  0.00  0.00    +0.000 A 
ATOM     19  C   UNL     1       5.556   3.945  13.395  0.00  0.00    +0.000 A 
ATOM     20  F   UNL     1       4.397   3.266  13.415  0.00  0.00    +0.000 F 
ENDBRANCH   9  14
BRANCH   1  22
ATOM     21  C   UNL     1       0.935   9.562  17.873  0.00  0.00    +0.000 C 
ATOM     22  C   UNL     1       1.571   9.038  19.181  0.00  0.00    +0.000 C 
BRANCH  22  23
ATOM     23  C   UNL     1       0.836   9.564  20.415  0.00  0.00    +0.000 A 
ATOM     24  C   UNL     1       0.117   8.721  21.285  0.00  0.00    +0.000 A 
ATOM     25  C   UNL     1      -0.609   9.240  22.361  0.00  0.00    +0.000 A 
ATOM     26  C   UNL     1      -0.621  10.612  22.600  0.00  0.00    +0.000 A 
ATOM     27  C   UNL     1       0.108  11.462  21.770  0.00  0.00    +0.000 A 
ATOM     28  C   UNL     1       0.829  10.937  20.697  0.00  0.00    +0.000 A 
ATOM     29  F   UNL     1       1.501  11.790  19.909  0.00  0.00    +0.000 F 
ENDBRANCH  22  23
ENDBRANCH   1  22
BRANCH   6  30
ATOM     30  O   UNL     1       4.581   1.852  18.939  0.00  0.00    +0.000 OA
ATOM     31  H   UNL     1       5.315   1.860  19.575  0.00  0.00    +0.000 HD
ENDBRANCH   6  30
TORSDOF 4
ENDMDL
MODEL 7
REMARK VINA RESULT:      -7.5      1.006      1.340
REMARK  Name = 
REMARK  5 active torsions:
REMARK  status: ('A' for Active; 'I' for Inactive)
REMARK    1  A    between atoms: C_1  and  C_2
REMARK    2  A    between atoms: C_2  and  C_3
REMARK    3  A    between atoms: C_2  and  N_10
REMARK    4  A    between atoms: C_15  and  O_16
REMARK    5  A    between atoms: C_19  and  C_20
REMARK                            x       y       z     vdW  Elec       q    Type
REMARK                         _______ _______ _______ _____ _____    ______ ____
ROOT
ATOM      1  N   UNL     1       1.090   8.770  19.454  0.00  0.00    +0.000 NA
ATOM      2  C   UNL     1       1.145   8.482  20.894  0.00  0.00    +0.000 C 
ATOM      3  C   UNL     1       1.118   6.973  21.180  0.00  0.00    +0.000 C 
ATOM      4  C   UNL     1       2.065   6.184  20.308  0.00  0.00    +0.000 A 
ATOM      5  N   UNL     1       2.374   4.910  20.781  0.00  0.00    +0.000 NA
ATOM      6  C   UNL     1       3.196   4.233  20.054  0.00  0.00    +0.000 A 
ATOM      7  N   UNL     1       3.756   4.687  18.875  0.00  0.00    +0.000 N 
ATOM      8  C   UNL     1       4.621   4.100  17.986  0.00  0.00    +0.000 A 
ATOM      9  C   UNL     1       4.816   5.041  16.998  0.00  0.00    +0.000 A 
ATOM     10  N   UNL     1       4.087   6.179  17.261  0.00  0.00    +0.000 NA
ATOM     11  C   UNL     1       3.464   5.940  18.397  0.00  0.00    +0.000 A 
ATOM     12  C   UNL     1       2.572   6.737  19.176  0.00  0.00    +0.000 A 
ATOM     13  C   UNL     1       2.226   8.151  18.755  0.00  0.00    +0.000 C 
ENDROOT
BRANCH   9  14
ATOM     14  C   UNL     1       5.642   4.878  15.815  0.00  0.00    +0.000 A 
ATOM     15  C   UNL     1       6.913   5.469  15.768  0.00  0.00    +0.000 A 
ATOM     16  C   UNL     1       7.720   5.335  14.634  0.00  0.00    +0.000 A 
ATOM     17  C   UNL     1       7.269   4.600  13.537  0.00  0.00    +0.000 A 
ATOM     18  C   UNL     1       6.013   4.001  13.576  0.00  0.00    +0.000 A 
ATOM     19  C   UNL     1       5.211   4.141  14.707  0.00  0.00    +0.000 A 
ATOM     20  F   UNL     1       4.015   3.532  14.702  0.00  0.00    +0.000 F 
ENDBRANCH   9  14
BRANCH   1  22
ATOM     21  C   UNL     1       1.967  10.785  18.157  0.00  0.00    +0.000 C 
ATOM     22  C   UNL     1       0.940  10.220  19.165  0.00  0.00    +0.000 C 
BRANCH  22  23
ATOM     23  C   UNL     1      -0.490  10.618  18.797  0.00  0.00    +0.000 A 
ATOM     24  C   UNL     1      -1.169  10.069  17.693  0.00  0.00    +0.000 A 
ATOM     25  C   UNL     1      -2.447  10.510  17.336  0.00  0.00    +0.000 A 
ATOM     26  C   UNL     1      -3.080  11.500  18.082  0.00  0.00    +0.000 A 
ATOM     27  C   UNL     1      -2.439  12.036  19.198  0.00  0.00    +0.000 A 
ATOM     28  C   UNL     1      -1.163  11.593  19.548  0.00  0.00    +0.000 A 
ATOM     29  F   UNL     1      -0.570  12.149  20.616  0.00  0.00    +0.000 F 
ENDBRANCH  22  23
ENDBRANCH   1  22
BRANCH   6  30
ATOM     30  O   UNL     1       3.597   2.994  20.387  0.00  0.00    +0.000 OA
ATOM     31  H   UNL     1       3.431   2.878  21.337  0.00  0.00    +0.000 HD
ENDBRANCH   6  30
TORSDOF 4
ENDMDL
MODEL 8
REMARK VINA RESULT:      -7.5      3.789      9.455
REMARK  Name = 
REMARK  5 active torsions:
REMARK  status: ('A' for Active; 'I' for Inactive)
REMARK    1  A    between atoms: C_1  and  C_2
REMARK    2  A    between atoms: C_2  and  C_3
REMARK    3  A    between atoms: C_2  and  N_10
REMARK    4  A    between atoms: C_15  and  O_16
REMARK    5  A    between atoms: C_19  and  C_20
REMARK                            x       y       z     vdW  Elec       q    Type
REMARK                         _______ _______ _______ _____ _____    ______ ____
ROOT
ATOM      1  N   UNL     1       2.163   6.062  19.295  0.00  0.00    +0.000 NA
ATOM      2  C   UNL     1       3.492   6.407  18.773  0.00  0.00    +0.000 C 
ATOM      3  C   UNL     1       3.432   7.561  17.761  0.00  0.00    +0.000 C 
ATOM      4  C   UNL     1       2.580   8.718  18.226  0.00  0.00    +0.000 A 
ATOM      5  N   UNL     1       2.807   9.919  17.557  0.00  0.00    +0.000 NA
ATOM      6  C   UNL     1       2.097  10.918  17.956  0.00  0.00    +0.000 A 
ATOM      7  N   UNL     1       1.158  10.857  18.968  0.00  0.00    +0.000 N 
ATOM      8  C   UNL     1       0.320  11.806  19.499  0.00  0.00    +0.000 A 
ATOM      9  C   UNL     1      -0.390  11.150  20.481  0.00  0.00    +0.000 A 
ATOM     10  N   UNL     1      -0.011   9.829  20.555  0.00  0.00    +0.000 NA
ATOM     11  C   UNL     1       0.925   9.683  19.638  0.00  0.00    +0.000 A 
ATOM     12  C   UNL     1       1.698   8.550  19.245  0.00  0.00    +0.000 A 
ATOM     13  C   UNL     1       1.546   7.221  19.956  0.00  0.00    +0.000 C 
ENDROOT
BRANCH   9  14
ATOM     14  C   UNL     1      -1.425  11.732  21.319  0.00  0.00    +0.000 A 
ATOM     15  C   UNL     1      -2.410  12.546  20.741  0.00  0.00    +0.000 A 
ATOM     16  C   UNL     1      -3.408  13.125  21.531  0.00  0.00    +0.000 A 
ATOM     17  C   UNL     1      -3.437  12.891  22.906  0.00  0.00    +0.000 A 
ATOM     18  C   UNL     1      -2.470  12.077  23.489  0.00  0.00    +0.000 A 
ATOM     19  C   UNL     1      -1.475  11.504  22.698  0.00  0.00    +0.000 A 
ATOM     20  F   UNL     1      -0.574  10.716  23.305  0.00  0.00    +0.000 F 
ENDBRANCH   9  14
BRANCH   1  22
ATOM     21  C   UNL     1       0.842   4.535  20.853  0.00  0.00    +0.000 C 
ATOM     22  C   UNL     1       2.178   4.840  20.139  0.00  0.00    +0.000 C 
BRANCH  22  23
ATOM     23  C   UNL     1       2.725   3.610  19.414  0.00  0.00    +0.000 A 
ATOM     24  C   UNL     1       3.813   2.862  19.904  0.00  0.00    +0.000 A 
ATOM     25  C   UNL     1       4.340   1.790  19.179  0.00  0.00    +0.000 A 
ATOM     26  C   UNL     1       3.784   1.431  17.955  0.00  0.00    +0.000 A 
ATOM     27  C   UNL     1       2.687   2.138  17.464  0.00  0.00    +0.000 A 
ATOM     28  C   UNL     1       2.166   3.209  18.192  0.00  0.00    +0.000 A 
ATOM     29  F   UNL     1       1.124   3.877  17.676  0.00  0.00    +0.000 F 
ENDBRANCH  22  23
ENDBRANCH   1  22
BRANCH   6  30
ATOM     30  O   UNL     1       2.213  12.144  17.415  0.00  0.00    +0.000 OA
ATOM     31  H   UNL     1       3.034  12.158  16.897  0.00  0.00    +0.000 HD
ENDBRANCH   6  30
TORSDOF 4
ENDMDL
MODEL 9
REMARK VINA RESULT:      -7.4      3.943      8.815
REMARK  Name = 
REMARK  5 active torsions:
REMARK  status: ('A' for Active; 'I' for Inactive)
REMARK    1  A    between atoms: C_1  and  C_2
REMARK    2  A    between atoms: C_2  and  C_3
REMARK    3  A    between atoms: C_2  and  N_10
REMARK    4  A    between atoms: C_15  and  O_16
REMARK    5  A    between atoms: C_19  and  C_20
REMARK                            x       y       z     vdW  Elec       q    Type
REMARK                         _______ _______ _______ _____ _____    ______ ____
ROOT
ATOM      1  N   UNL     1       2.285   7.325  19.401  0.00  0.00    +0.000 NA
ATOM      2  C   UNL     1       1.259   6.541  20.100  0.00  0.00    +0.000 C 
ATOM      3  C   UNL     1       0.898   7.150  21.463  0.00  0.00    +0.000 C 
ATOM      4  C   UNL     1       0.671   8.643  21.408  0.00  0.00    +0.000 A 
ATOM      5  N   UNL     1      -0.032   9.169  22.490  0.00  0.00    +0.000 NA
ATOM      6  C   UNL     1      -0.247  10.439  22.445  0.00  0.00    +0.000 A 
ATOM      7  N   UNL     1       0.174  11.270  21.424  0.00  0.00    +0.000 N 
ATOM      8  C   UNL     1       0.044  12.622  21.230  0.00  0.00    +0.000 A 
ATOM      9  C   UNL     1       0.670  12.877  20.029  0.00  0.00    +0.000 A 
ATOM     10  N   UNL     1       1.182  11.716  19.494  0.00  0.00    +0.000 NA
ATOM     11  C   UNL     1       0.864  10.766  20.350  0.00  0.00    +0.000 A 
ATOM     12  C   UNL     1       1.112   9.361  20.343  0.00  0.00    +0.000 A 
ATOM     13  C   UNL     1       1.826   8.704  19.179  0.00  0.00    +0.000 C 
ENDROOT
BRANCH   9  14
ATOM     14  C   UNL     1       0.818  14.178  19.402  0.00  0.00    +0.000 A 
ATOM     15  C   UNL     1      -0.320  14.954  19.136  0.00  0.00    +0.000 A 
ATOM     16  C   UNL     1      -0.202  16.204  18.522  0.00  0.00    +0.000 A 
ATOM     17  C   UNL     1       1.056  16.698  18.175  0.00  0.00    +0.000 A 
ATOM     18  C   UNL     1       2.193  15.941  18.443  0.00  0.00    +0.000 A 
ATOM     19  C   UNL     1       2.070  14.694  19.052  0.00  0.00    +0.000 A 
ATOM     20  F   UNL     1       3.197  14.009  19.303  0.00  0.00    +0.000 F 
ENDBRANCH   9  14
BRANCH   1  22
ATOM     21  C   UNL     1       3.951   7.377  17.469  0.00  0.00    +0.000 C 
ATOM     22  C   UNL     1       2.771   6.660  18.164  0.00  0.00    +0.000 C 
BRANCH  22  23
ATOM     23  C   UNL     1       3.046   5.167  18.348  0.00  0.00    +0.000 A 
ATOM     24  C   UNL     1       4.192   4.684  19.009  0.00  0.00    +0.000 A 
ATOM     25  C   UNL     1       4.456   3.314  19.094  0.00  0.00    +0.000 A 
ATOM     26  C   UNL     1       3.573   2.395  18.532  0.00  0.00    +0.000 A 
ATOM     27  C   UNL     1       2.417   2.849  17.900  0.00  0.00    +0.000 A 
ATOM     28  C   UNL     1       2.161   4.219  17.817  0.00  0.00    +0.000 A 
ATOM     29  F   UNL     1       1.048   4.617  17.182  0.00  0.00    +0.000 F 
ENDBRANCH  22  23
ENDBRANCH   1  22
BRANCH   6  30
ATOM     30  O   UNL     1      -0.922  11.088  23.411  0.00  0.00    +0.000 OA
ATOM     31  H   UNL     1      -1.329  11.872  23.006  0.00  0.00    +0.000 HD
ENDBRANCH   6  30
TORSDOF 4
ENDMDL
