MODEL 1
REMARK VINA RESULT:      -9.1      0.000      0.000
REMARK  Name = 
REMARK  2 active torsions:
REMARK  status: ('A' for Active; 'I' for Inactive)
REMARK    1  A    between atoms: C_4  and  C_5
REMARK    2  A    between atoms: C_13  and  C_14
REMARK                            x       y       z     vdW  Elec       q    Type
REMARK                         _______ _______ _______ _____ _____    ______ ____
ROOT
ATOM      1  O   UNL     1       7.997   6.340  18.782  0.00  0.00    +0.000 OA
ATOM      2  C   UNL     1       7.101   5.840  18.105  0.00  0.00    +0.000 C 
ATOM      3  C   UNL     1       7.322   5.618  16.661  0.00  0.00    +0.000 C 
ATOM      4  C   UNL     1       6.345   5.110  15.896  0.00  0.00    +0.000 C 
ATOM      5  C   UNL     1       4.956   4.774  16.389  0.00  0.00    +0.000 C 
ATOM      6  C   UNL     1       4.644   5.456  17.736  0.00  0.00    +0.000 C 
ATOM      7  C   UNL     1       5.821   5.345  18.716  0.00  0.00    +0.000 C 
ENDROOT
BRANCH   6   8
ATOM      8  C   UNL     1       3.406   4.941  18.457  0.00  0.00    +0.000 A 
ATOM      9  C   UNL     1       2.294   4.444  17.734  0.00  0.00    +0.000 A 
ATOM     10  C   UNL     1       1.293   3.701  18.366  0.00  0.00    +0.000 A 
ATOM     11  C   UNL     1       1.421   3.475  19.718  0.00  0.00    +0.000 A 
ATOM     12  C   UNL     1       2.464   4.001  20.442  0.00  0.00    +0.000 A 
ATOM     13  C   UNL     1       3.458   4.751  19.851  0.00  0.00    +0.000 A 
ATOM     14  O   UNL     1       2.418   3.635  21.749  0.00  0.00    +0.000 OA
ATOM     15  C   UNL     1       1.276   2.754  21.750  0.00  0.00    +0.000 C 
ATOM     16  O   UNL     1       0.600   2.700  20.476  0.00  0.00    +0.000 OA
ENDBRANCH   6   8
BRANCH   4  17
ATOM     17  C   UNL     1       6.649   4.859  14.483  0.00  0.00    +0.000 A 
ATOM     18  C   UNL     1       7.664   5.579  13.841  0.00  0.00    +0.000 A 
ATOM     19  C   UNL     1       7.994   5.300  12.514  0.00  0.00    +0.000 A 
ATOM     20  C   UNL     1       7.314   4.297  11.821  0.00  0.00    +0.000 A 
ATOM     21  C   UNL     1       6.308   3.576  12.462  0.00  0.00    +0.000 A 
ATOM     22 BR   UNL     1       5.399   2.205  11.528  0.00  0.00    +0.000 Br
ATOM     23  C   UNL     1       5.972   3.849  13.788  0.00  0.00    +0.000 A 
ENDBRANCH   4  17
TORSDOF 2
ENDMDL
MODEL 2
REMARK VINA RESULT:      -8.4      6.049      8.703
REMARK  Name = 
REMARK  2 active torsions:
REMARK  status: ('A' for Active; 'I' for Inactive)
REMARK    1  A    between atoms: C_4  and  C_5
REMARK    2  A    between atoms: C_13  and  C_14
REMARK                            x       y       z     vdW  Elec       q    Type
REMARK                         _______ _______ _______ _____ _____    ______ ____
ROOT
ATOM      1  O   UNL     1       2.427   9.659  17.134  0.00  0.00    +0.000 OA
ATOM      2  C   UNL     1       2.007   9.098  18.143  0.00  0.00    +0.000 C 
ATOM      3  C   UNL     1       1.255   9.879  19.147  0.00  0.00    +0.000 C 
ATOM      4  C   UNL     1       0.821   9.296  20.274  0.00  0.00    +0.000 C 
ATOM      5  C   UNL     1       1.087   7.858  20.653  0.00  0.00    +0.000 C 
ATOM      6  C   UNL     1       2.244   7.252  19.834  0.00  0.00    +0.000 C 
ATOM      7  C   UNL     1       2.139   7.615  18.346  0.00  0.00    +0.000 C 
ENDROOT
BRANCH   6   8
ATOM      8  C   UNL     1       2.383   5.738  19.920  0.00  0.00    +0.000 A 
ATOM      9  C   UNL     1       1.407   4.952  20.581  0.00  0.00    +0.000 A 
ATOM     10  C   UNL     1       1.359   3.566  20.412  0.00  0.00    +0.000 A 
ATOM     11  C   UNL     1       2.298   2.989  19.588  0.00  0.00    +0.000 A 
ATOM     12  C   UNL     1       3.287   3.732  18.989  0.00  0.00    +0.000 A 
ATOM     13  C   UNL     1       3.371   5.099  19.148  0.00  0.00    +0.000 A 
ATOM     14  O   UNL     1       4.090   2.975  18.196  0.00  0.00    +0.000 OA
ATOM     15  C   UNL     1       3.448   1.689  18.299  0.00  0.00    +0.000 C 
ATOM     16  O   UNL     1       2.347   1.676  19.234  0.00  0.00    +0.000 OA
ENDBRANCH   6   8
BRANCH   4  17
ATOM     17  C   UNL     1       0.030  10.113  21.201  0.00  0.00    +0.000 A 
ATOM     18  C   UNL     1      -0.357   9.596  22.444  0.00  0.00    +0.000 A 
ATOM     19  C   UNL     1      -1.059  10.391  23.350  0.00  0.00    +0.000 A 
ATOM     20  C   UNL     1      -1.375  11.710  23.023  0.00  0.00    +0.000 A 
ATOM     21  C   UNL     1      -0.984  12.228  21.789  0.00  0.00    +0.000 A 
ATOM     22 BR   UNL     1      -1.398  14.021  21.352  0.00  0.00    +0.000 Br
ATOM     23  C   UNL     1      -0.283  11.438  20.877  0.00  0.00    +0.000 A 
ENDBRANCH   4  17
TORSDOF 2
ENDMDL
MODEL 3
REMARK VINA RESULT:      -8.3      3.457      4.402
REMARK  Name = 
REMARK  2 active torsions:
REMARK  status: ('A' for Active; 'I' for Inactive)
REMARK    1  A    between atoms: C_4  and  C_5
REMARK    2  A    between atoms: C_13  and  C_14
REMARK                            x       y       z     vdW  Elec       q    Type
REMARK                         _______ _______ _______ _____ _____    ______ ____
ROOT
ATOM      1  O   UNL     1       1.816   2.838  18.525  0.00  0.00    +0.000 OA
ATOM      2  C   UNL     1       2.365   3.885  18.190  0.00  0.00    +0.000 C 
ATOM      3  C   UNL     1       3.514   3.837  17.262  0.00  0.00    +0.000 C 
ATOM      4  C   UNL     1       4.153   4.964  16.913  0.00  0.00    +0.000 C 
ATOM      5  C   UNL     1       3.821   6.338  17.447  0.00  0.00    +0.000 C 
ATOM      6  C   UNL     1       2.970   6.265  18.731  0.00  0.00    +0.000 C 
ATOM      7  C   UNL     1       1.843   5.231  18.608  0.00  0.00    +0.000 C 
ENDROOT
BRANCH   6   8
ATOM      8  C   UNL     1       2.333   7.578  19.167  0.00  0.00    +0.000 A 
ATOM      9  C   UNL     1       2.013   8.583  18.221  0.00  0.00    +0.000 A 
ATOM     10  C   UNL     1       1.169   9.646  18.553  0.00  0.00    +0.000 A 
ATOM     11  C   UNL     1       0.663   9.686  19.833  0.00  0.00    +0.000 A 
ATOM     12  C   UNL     1       1.012   8.750  20.777  0.00  0.00    +0.000 A 
ATOM     13  C   UNL     1       1.855   7.699  20.485  0.00  0.00    +0.000 A 
ATOM     14  O   UNL     1       0.381   8.955  21.962  0.00  0.00    +0.000 OA
ATOM     15  C   UNL     1      -0.464  10.076  21.635  0.00  0.00    +0.000 C 
ATOM     16  O   UNL     1      -0.242  10.586  20.303  0.00  0.00    +0.000 OA
ENDBRANCH   6   8
BRANCH   4  17
ATOM     17  C   UNL     1       5.247   4.853  15.942  0.00  0.00    +0.000 A 
ATOM     18  C   UNL     1       6.530   5.307  16.270  0.00  0.00    +0.000 A 
ATOM     19  C   UNL     1       7.585   5.149  15.370  0.00  0.00    +0.000 A 
ATOM     20  C   UNL     1       7.365   4.531  14.138  0.00  0.00    +0.000 A 
ATOM     21  C   UNL     1       6.089   4.072  13.814  0.00  0.00    +0.000 A 
ATOM     22 BR   UNL     1       5.794   3.219  12.152  0.00  0.00    +0.000 Br
ATOM     23  C   UNL     1       5.029   4.227  14.709  0.00  0.00    +0.000 A 
ENDBRANCH   4  17
TORSDOF 2
ENDMDL
MODEL 4
REMARK VINA RESULT:      -8.2      4.440      8.284
REMARK  Name = 
REMARK  2 active torsions:
REMARK  status: ('A' for Active; 'I' for Inactive)
REMARK    1  A    between atoms: C_4  and  C_5
REMARK    2  A    between atoms: C_13  and  C_14
REMARK                            x       y       z     vdW  Elec       q    Type
REMARK                         _______ _______ _______ _____ _____    ______ ____
ROOT
ATOM      1  O   UNL     1       1.436   3.701  21.184  0.00  0.00    +0.000 OA
ATOM      2  C   UNL     1       1.909   4.718  20.683  0.00  0.00    +0.000 C 
ATOM      3  C   UNL     1       1.254   6.020  20.931  0.00  0.00    +0.000 C 
ATOM      4  C   UNL     1       1.730   7.138  20.362  0.00  0.00    +0.000 C 
ATOM      5  C   UNL     1       2.900   7.183  19.406  0.00  0.00    +0.000 C 
ATOM      6  C   UNL     1       3.221   5.791  18.826  0.00  0.00    +0.000 C 
ATOM      7  C   UNL     1       3.197   4.703  19.909  0.00  0.00    +0.000 C 
ENDROOT
BRANCH   6   8
ATOM      8  C   UNL     1       4.557   5.677  18.103  0.00  0.00    +0.000 A 
ATOM      9  C   UNL     1       5.679   5.085  18.733  0.00  0.00    +0.000 A 
ATOM     10  C   UNL     1       6.804   4.703  17.996  0.00  0.00    +0.000 A 
ATOM     11  C   UNL     1       6.787   4.930  16.639  0.00  0.00    +0.000 A 
ATOM     12  C   UNL     1       5.730   5.558  16.025  0.00  0.00    +0.000 A 
ATOM     13  C   UNL     1       4.613   5.960  16.726  0.00  0.00    +0.000 A 
ATOM     14  O   UNL     1       5.901   5.657  14.681  0.00  0.00    +0.000 OA
ATOM     15  C   UNL     1       7.145   4.950  14.507  0.00  0.00    +0.000 C 
ATOM     16  O   UNL     1       7.746   4.542  15.755  0.00  0.00    +0.000 OA
ENDBRANCH   6   8
BRANCH   4  17
ATOM     17  C   UNL     1       1.071   8.405  20.697  0.00  0.00    +0.000 A 
ATOM     18  C   UNL     1       0.507   8.593  21.965  0.00  0.00    +0.000 A 
ATOM     19  C   UNL     1      -0.068   9.818  22.305  0.00  0.00    +0.000 A 
ATOM     20  C   UNL     1      -0.080  10.865  21.381  0.00  0.00    +0.000 A 
ATOM     21  C   UNL     1       0.487  10.679  20.121  0.00  0.00    +0.000 A 
ATOM     22 BR   UNL     1       0.486  12.103  18.875  0.00  0.00    +0.000 Br
ATOM     23  C   UNL     1       1.064   9.457  19.774  0.00  0.00    +0.000 A 
ENDBRANCH   4  17
TORSDOF 2
ENDMDL
MODEL 5
REMARK VINA RESULT:      -8.2      3.517      4.569
REMARK  Name = 
REMARK  2 active torsions:
REMARK  status: ('A' for Active; 'I' for Inactive)
REMARK    1  A    between atoms: C_4  and  C_5
REMARK    2  A    between atoms: C_13  and  C_14
REMARK                            x       y       z     vdW  Elec       q    Type
REMARK                         _______ _______ _______ _____ _____    ______ ____
ROOT
ATOM      1  O   UNL     1       2.773   2.250  19.280  0.00  0.00    +0.000 OA
ATOM      2  C   UNL     1       3.010   3.349  18.784  0.00  0.00    +0.000 C 
ATOM      3  C   UNL     1       4.041   3.464  17.732  0.00  0.00    +0.000 C 
ATOM      4  C   UNL     1       4.343   4.659  17.204  0.00  0.00    +0.000 C 
ATOM      5  C   UNL     1       3.731   5.969  17.644  0.00  0.00    +0.000 C 
ATOM      6  C   UNL     1       3.051   5.852  19.022  0.00  0.00    +0.000 C 
ATOM      7  C   UNL     1       2.210   4.573  19.135  0.00  0.00    +0.000 C 
ENDROOT
BRANCH   6   8
ATOM      8  C   UNL     1       2.151   7.019  19.408  0.00  0.00    +0.000 A 
ATOM      9  C   UNL     1       1.627   7.132  20.719  0.00  0.00    +0.000 A 
ATOM     10  C   UNL     1       1.060   8.328  21.170  0.00  0.00    +0.000 A 
ATOM     11  C   UNL     1       1.022   9.389  20.294  0.00  0.00    +0.000 A 
ATOM     12  C   UNL     1       1.472   9.273  19.001  0.00  0.00    +0.000 A 
ATOM     13  C   UNL     1       2.022   8.103  18.521  0.00  0.00    +0.000 A 
ATOM     14  O   UNL     1       1.371  10.441  18.315  0.00  0.00    +0.000 OA
ATOM     15  C   UNL     1       0.882  11.325  19.344  0.00  0.00    +0.000 C 
ATOM     16  O   UNL     1       0.596  10.647  20.586  0.00  0.00    +0.000 OA
ENDBRANCH   6   8
BRANCH   4  17
ATOM     17  C   UNL     1       5.333   4.695  16.122  0.00  0.00    +0.000 A 
ATOM     18  C   UNL     1       6.592   5.268  16.337  0.00  0.00    +0.000 A 
ATOM     19  C   UNL     1       7.555   5.250  15.328  0.00  0.00    +0.000 A 
ATOM     20  C   UNL     1       7.268   4.655  14.098  0.00  0.00    +0.000 A 
ATOM     21  C   UNL     1       6.016   4.079  13.886  0.00  0.00    +0.000 A 
ATOM     22 BR   UNL     1       5.632   3.259  12.226  0.00  0.00    +0.000 Br
ATOM     23  C   UNL     1       5.048   4.094  14.891  0.00  0.00    +0.000 A 
ENDBRANCH   4  17
TORSDOF 2
ENDMDL
MODEL 6
REMARK VINA RESULT:      -8.1      2.824      3.303
REMARK  Name = 
REMARK  2 active torsions:
REMARK  status: ('A' for Active; 'I' for Inactive)
REMARK    1  A    between atoms: C_4  and  C_5
REMARK    2  A    between atoms: C_13  and  C_14
REMARK                            x       y       z     vdW  Elec       q    Type
REMARK                         _______ _______ _______ _____ _____    ______ ____
ROOT
ATOM      1  O   UNL     1       7.866   4.691  18.918  0.00  0.00    +0.000 OA
ATOM      2  C   UNL     1       6.966   4.994  18.139  0.00  0.00    +0.000 C 
ATOM      3  C   UNL     1       7.146   4.752  16.693  0.00  0.00    +0.000 C 
ATOM      4  C   UNL     1       6.193   5.111  15.820  0.00  0.00    +0.000 C 
ATOM      5  C   UNL     1       4.912   5.820  16.194  0.00  0.00    +0.000 C 
ATOM      6  C   UNL     1       4.996   6.459  17.594  0.00  0.00    +0.000 C 
ATOM      7  C   UNL     1       5.637   5.509  18.616  0.00  0.00    +0.000 C 
ENDROOT
BRANCH   6   8
ATOM      8  C   UNL     1       3.670   6.924  18.181  0.00  0.00    +0.000 A 
ATOM      9  C   UNL     1       3.172   6.371  19.387  0.00  0.00    +0.000 A 
ATOM     10  C   UNL     1       2.131   6.985  20.088  0.00  0.00    +0.000 A 
ATOM     11  C   UNL     1       1.600   8.142  19.563  0.00  0.00    +0.000 A 
ATOM     12  C   UNL     1       2.034   8.656  18.365  0.00  0.00    +0.000 A 
ATOM     13  C   UNL     1       3.048   8.065  17.642  0.00  0.00    +0.000 A 
ATOM     14  O   UNL     1       1.402   9.814  18.044  0.00  0.00    +0.000 OA
ATOM     15  C   UNL     1       0.580  10.014  19.211  0.00  0.00    +0.000 C 
ATOM     16  O   UNL     1       0.654   8.921  20.152  0.00  0.00    +0.000 OA
ENDBRANCH   6   8
BRANCH   4  17
ATOM     17  C   UNL     1       6.409   4.788  14.406  0.00  0.00    +0.000 A 
ATOM     18  C   UNL     1       7.620   5.117  13.784  0.00  0.00    +0.000 A 
ATOM     19  C   UNL     1       7.849   4.758  12.455  0.00  0.00    +0.000 A 
ATOM     20  C   UNL     1       6.872   4.064  11.740  0.00  0.00    +0.000 A 
ATOM     21  C   UNL     1       5.669   3.730  12.361  0.00  0.00    +0.000 A 
ATOM     22 BR   UNL     1       4.352   2.775  11.398  0.00  0.00    +0.000 Br
ATOM     23  C   UNL     1       5.432   4.086  13.689  0.00  0.00    +0.000 A 
ENDBRANCH   4  17
TORSDOF 2
ENDMDL
MODEL 7
REMARK VINA RESULT:      -8.1      1.045      1.433
REMARK  Name = 
REMARK  2 active torsions:
REMARK  status: ('A' for Active; 'I' for Inactive)
REMARK    1  A    between atoms: C_4  and  C_5
REMARK    2  A    between atoms: C_13  and  C_14
REMARK                            x       y       z     vdW  Elec       q    Type
REMARK                         _______ _______ _______ _____ _____    ______ ____
ROOT
ATOM      1  O   UNL     1       7.808   7.164  18.318  0.00  0.00    +0.000 OA
ATOM      2  C   UNL     1       7.150   6.264  17.804  0.00  0.00    +0.000 C 
ATOM      3  C   UNL     1       7.276   6.012  16.353  0.00  0.00    +0.000 C 
ATOM      4  C   UNL     1       6.538   5.060  15.763  0.00  0.00    +0.000 C 
ATOM      5  C   UNL     1       5.504   4.215  16.470  0.00  0.00    +0.000 C 
ATOM      6  C   UNL     1       5.084   4.831  17.819  0.00  0.00    +0.000 C 
ATOM      7  C   UNL     1       6.295   5.333  18.617  0.00  0.00    +0.000 C 
ENDROOT
BRANCH   6   8
ATOM      8  C   UNL     1       4.288   3.912  18.737  0.00  0.00    +0.000 A 
ATOM      9  C   UNL     1       4.923   2.861  19.444  0.00  0.00    +0.000 A 
ATOM     10  C   UNL     1       4.281   2.212  20.503  0.00  0.00    +0.000 A 
ATOM     11  C   UNL     1       3.010   2.624  20.831  0.00  0.00    +0.000 A 
ATOM     12  C   UNL     1       2.361   3.602  20.115  0.00  0.00    +0.000 A 
ATOM     13  C   UNL     1       2.960   4.250  19.056  0.00  0.00    +0.000 A 
ATOM     14  O   UNL     1       1.131   3.878  20.620  0.00  0.00    +0.000 OA
ATOM     15  C   UNL     1       1.110   3.023  21.781  0.00  0.00    +0.000 C 
ATOM     16  O   UNL     1       2.275   2.176  21.884  0.00  0.00    +0.000 OA
ENDBRANCH   6   8
BRANCH   4  17
ATOM     17  C   UNL     1       6.755   4.820  14.332  0.00  0.00    +0.000 A 
ATOM     18  C   UNL     1       7.695   5.580  13.624  0.00  0.00    +0.000 A 
ATOM     19  C   UNL     1       7.945   5.314  12.277  0.00  0.00    +0.000 A 
ATOM     20  C   UNL     1       7.261   4.284  11.630  0.00  0.00    +0.000 A 
ATOM     21  C   UNL     1       6.330   3.524  12.336  0.00  0.00    +0.000 A 
ATOM     22 BR   UNL     1       5.415   2.117  11.463  0.00  0.00    +0.000 Br
ATOM     23  C   UNL     1       6.075   3.784  13.683  0.00  0.00    +0.000 A 
ENDBRANCH   4  17
TORSDOF 2
ENDMDL
MODEL 8
REMARK VINA RESULT:      -8.0      4.173      5.751
REMARK  Name = 
REMARK  2 active torsions:
REMARK  status: ('A' for Active; 'I' for Inactive)
REMARK    1  A    between atoms: C_4  and  C_5
REMARK    2  A    between atoms: C_13  and  C_14
REMARK                            x       y       z     vdW  Elec       q    Type
REMARK                         _______ _______ _______ _____ _____    ______ ____
ROOT
ATOM      1  O   UNL     1       1.715   3.132  20.986  0.00  0.00    +0.000 OA
ATOM      2  C   UNL     1       2.123   4.140  20.414  0.00  0.00    +0.000 C 
ATOM      3  C   UNL     1       3.361   4.067  19.612  0.00  0.00    +0.000 C 
ATOM      4  C   UNL     1       3.846   5.163  19.010  0.00  0.00    +0.000 C 
ATOM      5  C   UNL     1       3.240   6.543  19.125  0.00  0.00    +0.000 C 
ATOM      6  C   UNL     1       2.273   6.648  20.321  0.00  0.00    +0.000 C 
ATOM      7  C   UNL     1       1.347   5.427  20.413  0.00  0.00    +0.000 C 
ENDROOT
BRANCH   6   8
ATOM      8  C   UNL     1       1.388   7.887  20.338  0.00  0.00    +0.000 A 
ATOM      9  C   UNL     1       0.631   8.227  21.487  0.00  0.00    +0.000 A 
ATOM     10  C   UNL     1       0.062   9.495  21.629  0.00  0.00    +0.000 A 
ATOM     11  C   UNL     1       0.256  10.401  20.611  0.00  0.00    +0.000 A 
ATOM     12  C   UNL     1       0.937  10.065  19.465  0.00  0.00    +0.000 A 
ATOM     13  C   UNL     1       1.496   8.818  19.289  0.00  0.00    +0.000 A 
ATOM     14  O   UNL     1       1.039  11.110  18.603  0.00  0.00    +0.000 OA
ATOM     15  C   UNL     1       0.417  12.162  19.368  0.00  0.00    +0.000 C 
ATOM     16  O   UNL     1      -0.140  11.702  20.618  0.00  0.00    +0.000 OA
ENDBRANCH   6   8
BRANCH   4  17
ATOM     17  C   UNL     1       5.046   5.010  18.180  0.00  0.00    +0.000 A 
ATOM     18  C   UNL     1       6.319   5.085  18.759  0.00  0.00    +0.000 A 
ATOM     19  C   UNL     1       7.460   4.881  17.982  0.00  0.00    +0.000 A 
ATOM     20  C   UNL     1       7.336   4.595  16.622  0.00  0.00    +0.000 A 
ATOM     21  C   UNL     1       6.069   4.513  16.046  0.00  0.00    +0.000 A 
ATOM     22 BR   UNL     1       5.900   4.108  14.207  0.00  0.00    +0.000 Br
ATOM     23  C   UNL     1       4.923   4.716  16.817  0.00  0.00    +0.000 A 
ENDBRANCH   4  17
TORSDOF 2
ENDMDL
MODEL 9
REMARK VINA RESULT:      -8.0      4.005      7.644
REMARK  Name = 
REMARK  2 active torsions:
REMARK  status: ('A' for Active; 'I' for Inactive)
REMARK    1  A    between atoms: C_4  and  C_5
REMARK    2  A    between atoms: C_13  and  C_14
REMARK                            x       y       z     vdW  Elec       q    Type
REMARK                         _______ _______ _______ _____ _____    ______ ____
ROOT
ATOM      1  O   UNL     1       3.971   3.042  20.083  0.00  0.00    +0.000 OA
ATOM      2  C   UNL     1       4.022   3.911  19.216  0.00  0.00    +0.000 C 
ATOM      3  C   UNL     1       3.280   5.174  19.411  0.00  0.00    +0.000 C 
ATOM      4  C   UNL     1       3.289   6.120  18.461  0.00  0.00    +0.000 C 
ATOM      5  C   UNL     1       3.981   5.987  17.124  0.00  0.00    +0.000 C 
ATOM      6  C   UNL     1       4.313   4.518  16.794  0.00  0.00    +0.000 C 
ATOM      7  C   UNL     1       4.902   3.781  18.005  0.00  0.00    +0.000 C 
ENDROOT
BRANCH   6   8
ATOM      8  C   UNL     1       5.274   4.311  15.630  0.00  0.00    +0.000 A 
ATOM      9  C   UNL     1       4.892   3.553  14.496  0.00  0.00    +0.000 A 
ATOM     10  C   UNL     1       5.630   3.603  13.310  0.00  0.00    +0.000 A 
ATOM     11  C   UNL     1       6.746   4.410  13.284  0.00  0.00    +0.000 A 
ATOM     12  C   UNL     1       7.160   5.104  14.396  0.00  0.00    +0.000 A 
ATOM     13  C   UNL     1       6.462   5.062  15.584  0.00  0.00    +0.000 A 
ATOM     14  O   UNL     1       8.261   5.860  14.149  0.00  0.00    +0.000 OA
ATOM     15  C   UNL     1       8.447   5.626  12.739  0.00  0.00    +0.000 C 
ATOM     16  O   UNL     1       7.525   4.655  12.198  0.00  0.00    +0.000 OA
ENDBRANCH   6   8
BRANCH   4  17
ATOM     17  C   UNL     1       2.581   7.374  18.742  0.00  0.00    +0.000 A 
ATOM     18  C   UNL     1       2.431   8.340  17.740  0.00  0.00    +0.000 A 
ATOM     19  C   UNL     1       1.707   9.507  17.988  0.00  0.00    +0.000 A 
ATOM     20  C   UNL     1       1.125   9.714  19.239  0.00  0.00    +0.000 A 
ATOM     21  C   UNL     1       1.268   8.750  20.236  0.00  0.00    +0.000 A 
ATOM     22 BR   UNL     1       0.465   9.023  21.926  0.00  0.00    +0.000 Br
ATOM     23  C   UNL     1       1.991   7.581  19.995  0.00  0.00    +0.000 A 
ENDBRANCH   4  17
TORSDOF 2
ENDMDL
