MODEL 1
REMARK VINA RESULT:      -6.8      0.000      0.000
REMARK  Name = 
REMARK  5 active torsions:
REMARK  status: ('A' for Active; 'I' for Inactive)
REMARK    1  A    between atoms: C_1  and  C_2
REMARK    2  A    between atoms: C_5  and  C_6
REMARK    3  A    between atoms: N_7  and  N_8
REMARK    4  A    between atoms: C_9  and  S_10
REMARK    5  A    between atoms: C_13  and  C_14
REMARK                            x       y       z     vdW  Elec       q    Type
REMARK                         _______ _______ _______ _____ _____    ______ ____
ROOT
ATOM      1  N   UNL     1       3.612   4.722  19.651  0.00  0.00    +0.000 N 
ATOM      2  C   UNL     1       3.293   3.386  19.529  0.00  0.00    +0.000 A 
ATOM      3  N   UNL     1       2.019   3.223  19.271  0.00  0.00    +0.000 NA
ATOM      4  N   UNL     1       1.473   4.471  19.140  0.00  0.00    +0.000 NA
ATOM      5  C   UNL     1       2.429   5.375  19.294  0.00  0.00    +0.000 A 
ENDROOT
BRANCH   5   6
ATOM      6  C   UNL     1       2.223   6.822  19.189  0.00  0.00    +0.000 A 
ATOM      7  C   UNL     1       2.383   7.436  17.936  0.00  0.00    +0.000 A 
ATOM      8  C   UNL     1       2.000   8.762  17.744  0.00  0.00    +0.000 A 
ATOM      9  C   UNL     1       1.472   9.494  18.805  0.00  0.00    +0.000 A 
ATOM     10  C   UNL     1       1.388   8.922  20.074  0.00  0.00    +0.000 A 
ATOM     11  C   UNL     1       1.783   7.596  20.271  0.00  0.00    +0.000 A 
ENDBRANCH   5   6
BRANCH   1  13
ATOM     12  C   UNL     1       5.718   5.400  18.913  0.00  0.00    +0.000 C 
ATOM     13  N   UNL     1       4.888   5.190  19.891  0.00  0.00    +0.000 NA
BRANCH  12  18
ATOM     14  C   UNL     1       5.723   4.046  13.805  0.00  0.00    +0.000 C 
ATOM     15  C   UNL     1       5.540   4.774  15.091  0.00  0.00    +0.000 A 
ATOM     16  C   UNL     1       5.354   6.126  15.284  0.00  0.00    +0.000 A 
ATOM     17  C   UNL     1       5.316   6.465  16.667  0.00  0.00    +0.000 A 
ATOM     18  C   UNL     1       5.558   5.375  17.478  0.00  0.00    +0.000 A 
ATOM     19  S   UNL     1       5.574   3.924  16.577  0.00  0.00    +0.000 S 
ENDBRANCH  12  18
ENDBRANCH   1  13
BRANCH   2  20
ATOM     20  S   UNL     1       4.455   2.117  19.735  0.00  0.00    +0.000 S 
ATOM     21  H   UNL     1       5.542   2.832  19.410  0.00  0.00    +0.000 HD
ENDBRANCH   2  20
TORSDOF 4
ENDMDL
MODEL 2
REMARK VINA RESULT:      -6.4      2.315      5.033
REMARK  Name = 
REMARK  5 active torsions:
REMARK  status: ('A' for Active; 'I' for Inactive)
REMARK    1  A    between atoms: C_1  and  C_2
REMARK    2  A    between atoms: C_5  and  C_6
REMARK    3  A    between atoms: N_7  and  N_8
REMARK    4  A    between atoms: C_9  and  S_10
REMARK    5  A    between atoms: C_13  and  C_14
REMARK                            x       y       z     vdW  Elec       q    Type
REMARK                         _______ _______ _______ _____ _____    ______ ____
ROOT
ATOM      1  N   UNL     1       3.128   4.465  18.806  0.00  0.00    +0.000 N 
ATOM      2  C   UNL     1       2.289   3.598  18.140  0.00  0.00    +0.000 A 
ATOM      3  N   UNL     1       2.687   3.403  16.907  0.00  0.00    +0.000 NA
ATOM      4  N   UNL     1       3.861   4.089  16.750  0.00  0.00    +0.000 NA
ATOM      5  C   UNL     1       4.173   4.670  17.899  0.00  0.00    +0.000 A 
ENDROOT
BRANCH   5   6
ATOM      6  C   UNL     1       5.382   5.468  18.120  0.00  0.00    +0.000 A 
ATOM      7  C   UNL     1       6.220   5.136  19.198  0.00  0.00    +0.000 A 
ATOM      8  C   UNL     1       7.476   5.728  19.324  0.00  0.00    +0.000 A 
ATOM      9  C   UNL     1       7.898   6.670  18.390  0.00  0.00    +0.000 A 
ATOM     10  C   UNL     1       7.042   7.069  17.365  0.00  0.00    +0.000 A 
ATOM     11  C   UNL     1       5.777   6.486  17.243  0.00  0.00    +0.000 A 
ENDBRANCH   5   6
BRANCH   1  13
ATOM     12  C   UNL     1       2.637   6.042  20.452  0.00  0.00    +0.000 C 
ATOM     13  N   UNL     1       2.969   4.828  20.127  0.00  0.00    +0.000 NA
BRANCH  12  18
ATOM     14  C   UNL     1       0.245  10.391  18.639  0.00  0.00    +0.000 C 
ATOM     15  C   UNL     1       1.141   9.212  18.796  0.00  0.00    +0.000 A 
ATOM     16  C   UNL     1       1.852   8.548  17.819  0.00  0.00    +0.000 A 
ATOM     17  C   UNL     1       2.521   7.402  18.336  0.00  0.00    +0.000 A 
ATOM     18  C   UNL     1       2.230   7.183  19.667  0.00  0.00    +0.000 A 
ATOM     19  S   UNL     1       1.365   8.496  20.335  0.00  0.00    +0.000 S 
ENDBRANCH  12  18
ENDBRANCH   1  13
BRANCH   2  20
ATOM     20  S   UNL     1       0.877   2.906  18.868  0.00  0.00    +0.000 S 
ATOM     21  H   UNL     1      -0.022   3.719  18.293  0.00  0.00    +0.000 HD
ENDBRANCH   2  20
TORSDOF 4
ENDMDL
MODEL 3
REMARK VINA RESULT:      -6.4      2.289      4.904
REMARK  Name = 
REMARK  5 active torsions:
REMARK  status: ('A' for Active; 'I' for Inactive)
REMARK    1  A    between atoms: C_1  and  C_2
REMARK    2  A    between atoms: C_5  and  C_6
REMARK    3  A    between atoms: N_7  and  N_8
REMARK    4  A    between atoms: C_9  and  S_10
REMARK    5  A    between atoms: C_13  and  C_14
REMARK                            x       y       z     vdW  Elec       q    Type
REMARK                         _______ _______ _______ _____ _____    ______ ____
ROOT
ATOM      1  N   UNL     1       3.196   4.363  18.750  0.00  0.00    +0.000 N 
ATOM      2  C   UNL     1       2.241   3.569  18.151  0.00  0.00    +0.000 A 
ATOM      3  N   UNL     1       2.551   3.311  16.904  0.00  0.00    +0.000 NA
ATOM      4  N   UNL     1       3.776   3.875  16.669  0.00  0.00    +0.000 NA
ATOM      5  C   UNL     1       4.204   4.446  17.785  0.00  0.00    +0.000 A 
ENDROOT
BRANCH   5   6
ATOM      6  C   UNL     1       5.495   5.126  17.922  0.00  0.00    +0.000 A 
ATOM      7  C   UNL     1       5.852   6.093  16.968  0.00  0.00    +0.000 A 
ATOM      8  C   UNL     1       6.966   6.906  17.168  0.00  0.00    +0.000 A 
ATOM      9  C   UNL     1       7.745   6.749  18.311  0.00  0.00    +0.000 A 
ATOM     10  C   UNL     1       7.451   5.736  19.222  0.00  0.00    +0.000 A 
ATOM     11  C   UNL     1       6.341   4.912  19.018  0.00  0.00    +0.000 A 
ENDBRANCH   5   6
BRANCH   1  13
ATOM     12  C   UNL     1       2.854   5.994  20.382  0.00  0.00    +0.000 C 
ATOM     13  N   UNL     1       3.145   4.766  20.069  0.00  0.00    +0.000 NA
BRANCH  12  18
ATOM     14  C   UNL     1       0.237  10.194  18.530  0.00  0.00    +0.000 C 
ATOM     15  C   UNL     1       1.208   9.079  18.708  0.00  0.00    +0.000 A 
ATOM     16  C   UNL     1       2.007   8.486  17.755  0.00  0.00    +0.000 A 
ATOM     17  C   UNL     1       2.734   7.381  18.284  0.00  0.00    +0.000 A 
ATOM     18  C   UNL     1       2.401   7.117  19.597  0.00  0.00    +0.000 A 
ATOM     19  S   UNL     1       1.415   8.352  20.245  0.00  0.00    +0.000 S 
ENDBRANCH  12  18
ENDBRANCH   1  13
BRANCH   2  20
ATOM     20  S   UNL     1       0.810   3.034  18.970  0.00  0.00    +0.000 S 
ATOM     21  H   UNL     1       0.280   4.247  19.187  0.00  0.00    +0.000 HD
ENDBRANCH   2  20
TORSDOF 4
ENDMDL
MODEL 4
REMARK VINA RESULT:      -6.2      2.158      4.917
REMARK  Name = 
REMARK  5 active torsions:
REMARK  status: ('A' for Active; 'I' for Inactive)
REMARK    1  A    between atoms: C_1  and  C_2
REMARK    2  A    between atoms: C_5  and  C_6
REMARK    3  A    between atoms: N_7  and  N_8
REMARK    4  A    between atoms: C_9  and  S_10
REMARK    5  A    between atoms: C_13  and  C_14
REMARK                            x       y       z     vdW  Elec       q    Type
REMARK                         _______ _______ _______ _____ _____    ______ ____
ROOT
ATOM      1  N   UNL     1       3.005   4.013  18.684  0.00  0.00    +0.000 N 
ATOM      2  C   UNL     1       1.763   3.416  18.742  0.00  0.00    +0.000 A 
ATOM      3  N   UNL     1       1.411   2.937  17.575  0.00  0.00    +0.000 NA
ATOM      4  N   UNL     1       2.462   3.142  16.722  0.00  0.00    +0.000 NA
ATOM      5  C   UNL     1       3.449   3.720  17.391  0.00  0.00    +0.000 A 
ENDROOT
BRANCH   5   6
ATOM      6  C   UNL     1       4.750   4.064  16.811  0.00  0.00    +0.000 A 
ATOM      7  C   UNL     1       4.809   4.414  15.451  0.00  0.00    +0.000 A 
ATOM      8  C   UNL     1       5.978   4.944  14.908  0.00  0.00    +0.000 A 
ATOM      9  C   UNL     1       7.104   5.111  15.711  0.00  0.00    +0.000 A 
ATOM     10  C   UNL     1       7.083   4.689  17.039  0.00  0.00    +0.000 A 
ATOM     11  C   UNL     1       5.915   4.146  17.582  0.00  0.00    +0.000 A 
ENDBRANCH   5   6
BRANCH   1  13
ATOM     12  C   UNL     1       3.687   5.864  19.927  0.00  0.00    +0.000 C 
ATOM     13  N   UNL     1       3.641   4.575  19.772  0.00  0.00    +0.000 NA
BRANCH  12  18
ATOM     14  C   UNL     1       0.405   9.693  18.349  0.00  0.00    +0.000 C 
ATOM     15  C   UNL     1       1.550   8.748  18.461  0.00  0.00    +0.000 A 
ATOM     16  C   UNL     1       2.445   8.375  17.481  0.00  0.00    +0.000 A 
ATOM     17  C   UNL     1       3.346   7.371  17.938  0.00  0.00    +0.000 A 
ATOM     18  C   UNL     1       3.054   6.952  19.221  0.00  0.00    +0.000 A 
ATOM     19  S   UNL     1       1.868   7.948  19.942  0.00  0.00    +0.000 S 
ENDBRANCH  12  18
ENDBRANCH   1  13
BRANCH   2  20
ATOM     20  S   UNL     1       0.809   3.364  20.188  0.00  0.00    +0.000 S 
ATOM     21  H   UNL     1       0.175   4.532  20.011  0.00  0.00    +0.000 HD
ENDBRANCH   2  20
TORSDOF 4
ENDMDL
MODEL 5
REMARK VINA RESULT:      -6.2      2.159      5.084
REMARK  Name = 
REMARK  5 active torsions:
REMARK  status: ('A' for Active; 'I' for Inactive)
REMARK    1  A    between atoms: C_1  and  C_2
REMARK    2  A    between atoms: C_5  and  C_6
REMARK    3  A    between atoms: N_7  and  N_8
REMARK    4  A    between atoms: C_9  and  S_10
REMARK    5  A    between atoms: C_13  and  C_14
REMARK                            x       y       z     vdW  Elec       q    Type
REMARK                         _______ _______ _______ _____ _____    ______ ____
ROOT
ATOM      1  N   UNL     1       2.975   4.104  18.689  0.00  0.00    +0.000 N 
ATOM      2  C   UNL     1       1.762   3.451  18.757  0.00  0.00    +0.000 A 
ATOM      3  N   UNL     1       1.408   2.982  17.586  0.00  0.00    +0.000 NA
ATOM      4  N   UNL     1       2.431   3.253  16.718  0.00  0.00    +0.000 NA
ATOM      5  C   UNL     1       3.404   3.860  17.381  0.00  0.00    +0.000 A 
ENDROOT
BRANCH   5   6
ATOM      6  C   UNL     1       4.677   4.275  16.784  0.00  0.00    +0.000 A 
ATOM      7  C   UNL     1       5.813   4.353  17.607  0.00  0.00    +0.000 A 
ATOM      8  C   UNL     1       7.077   4.541  17.050  0.00  0.00    +0.000 A 
ATOM      9  C   UNL     1       7.217   4.673  15.671  0.00  0.00    +0.000 A 
ATOM     10  C   UNL     1       6.088   4.682  14.853  0.00  0.00    +0.000 A 
ATOM     11  C   UNL     1       4.818   4.506  15.410  0.00  0.00    +0.000 A 
ENDBRANCH   5   6
BRANCH   1  13
ATOM     12  C   UNL     1       3.624   5.958  19.945  0.00  0.00    +0.000 C 
ATOM     13  N   UNL     1       3.607   4.670  19.778  0.00  0.00    +0.000 NA
BRANCH  12  18
ATOM     14  C   UNL     1       0.268   9.761  18.463  0.00  0.00    +0.000 C 
ATOM     15  C   UNL     1       1.421   8.822  18.539  0.00  0.00    +0.000 A 
ATOM     16  C   UNL     1       2.280   8.445  17.529  0.00  0.00    +0.000 A 
ATOM     17  C   UNL     1       3.202   7.448  17.959  0.00  0.00    +0.000 A 
ATOM     18  C   UNL     1       2.960   7.038  19.255  0.00  0.00    +0.000 A 
ATOM     19  S   UNL     1       1.798   8.035  20.013  0.00  0.00    +0.000 S 
ENDBRANCH  12  18
ENDBRANCH   1  13
BRANCH   2  20
ATOM     20  S   UNL     1       0.840   3.323  20.219  0.00  0.00    +0.000 S 
ATOM     21  H   UNL     1       1.731   2.601  20.915  0.00  0.00    +0.000 HD
ENDBRANCH   2  20
TORSDOF 4
ENDMDL
MODEL 6
REMARK VINA RESULT:      -6.2      0.225      1.103
REMARK  Name = 
REMARK  5 active torsions:
REMARK  status: ('A' for Active; 'I' for Inactive)
REMARK    1  A    between atoms: C_1  and  C_2
REMARK    2  A    between atoms: C_5  and  C_6
REMARK    3  A    between atoms: N_7  and  N_8
REMARK    4  A    between atoms: C_9  and  S_10
REMARK    5  A    between atoms: C_13  and  C_14
REMARK                            x       y       z     vdW  Elec       q    Type
REMARK                         _______ _______ _______ _____ _____    ______ ____
ROOT
ATOM      1  N   UNL     1       3.555   4.585  19.608  0.00  0.00    +0.000 N 
ATOM      2  C   UNL     1       3.331   3.228  19.513  0.00  0.00    +0.000 A 
ATOM      3  N   UNL     1       2.081   2.972  19.215  0.00  0.00    +0.000 NA
ATOM      4  N   UNL     1       1.458   4.176  19.028  0.00  0.00    +0.000 NA
ATOM      5  C   UNL     1       2.345   5.147  19.191  0.00  0.00    +0.000 A 
ENDROOT
BRANCH   5   6
ATOM      6  C   UNL     1       2.046   6.573  19.038  0.00  0.00    +0.000 A 
ATOM      7  C   UNL     1       1.649   7.303  20.171  0.00  0.00    +0.000 A 
ATOM      8  C   UNL     1       1.555   8.693  20.119  0.00  0.00    +0.000 A 
ATOM      9  C   UNL     1       1.836   9.365  18.932  0.00  0.00    +0.000 A 
ATOM     10  C   UNL     1       2.148   8.645  17.780  0.00  0.00    +0.000 A 
ATOM     11  C   UNL     1       2.231   7.251  17.827  0.00  0.00    +0.000 A 
ENDBRANCH   5   6
BRANCH   1  13
ATOM     12  C   UNL     1       5.629   5.403  18.925  0.00  0.00    +0.000 C 
ATOM     13  N   UNL     1       4.787   5.145  19.880  0.00  0.00    +0.000 NA
BRANCH  12  18
ATOM     14  C   UNL     1       5.927   4.030  13.830  0.00  0.00    +0.000 C 
ATOM     15  C   UNL     1       5.629   4.742  15.104  0.00  0.00    +0.000 A 
ATOM     16  C   UNL     1       5.296   6.068  15.281  0.00  0.00    +0.000 A 
ATOM     17  C   UNL     1       5.182   6.408  16.660  0.00  0.00    +0.000 A 
ATOM     18  C   UNL     1       5.515   5.354  17.487  0.00  0.00    +0.000 A 
ATOM     19  S   UNL     1       5.711   3.909  16.599  0.00  0.00    +0.000 S 
ENDBRANCH  12  18
ENDBRANCH   1  13
BRANCH   2  20
ATOM     20  S   UNL     1       4.567   2.046  19.796  0.00  0.00    +0.000 S 
ATOM     21  H   UNL     1       4.340   1.880  21.108  0.00  0.00    +0.000 HD
ENDBRANCH   2  20
TORSDOF 4
ENDMDL
MODEL 7
REMARK VINA RESULT:      -6.2      3.261      6.299
REMARK  Name = 
REMARK  5 active torsions:
REMARK  status: ('A' for Active; 'I' for Inactive)
REMARK    1  A    between atoms: C_1  and  C_2
REMARK    2  A    between atoms: C_5  and  C_6
REMARK    3  A    between atoms: N_7  and  N_8
REMARK    4  A    between atoms: C_9  and  S_10
REMARK    5  A    between atoms: C_13  and  C_14
REMARK                            x       y       z     vdW  Elec       q    Type
REMARK                         _______ _______ _______ _____ _____    ______ ____
ROOT
ATOM      1  N   UNL     1       6.439   5.482  16.845  0.00  0.00    +0.000 N 
ATOM      2  C   UNL     1       7.196   5.301  17.983  0.00  0.00    +0.000 A 
ATOM      3  N   UNL     1       8.111   4.380  17.805  0.00  0.00    +0.000 NA
ATOM      4  N   UNL     1       8.028   3.978  16.499  0.00  0.00    +0.000 NA
ATOM      5  C   UNL     1       7.080   4.680  15.895  0.00  0.00    +0.000 A 
ENDROOT
BRANCH   5   6
ATOM      6  C   UNL     1       6.727   4.545  14.479  0.00  0.00    +0.000 A 
ATOM      7  C   UNL     1       7.605   5.065  13.514  0.00  0.00    +0.000 A 
ATOM      8  C   UNL     1       7.417   4.781  12.162  0.00  0.00    +0.000 A 
ATOM      9  C   UNL     1       6.341   3.994  11.759  0.00  0.00    +0.000 A 
ATOM     10  C   UNL     1       5.415   3.544  12.700  0.00  0.00    +0.000 A 
ATOM     11  C   UNL     1       5.595   3.837  14.055  0.00  0.00    +0.000 A 
ENDBRANCH   5   6
BRANCH   1  13
ATOM     12  C   UNL     1       4.207   6.113  17.083  0.00  0.00    +0.000 C 
ATOM     13  N   UNL     1       5.423   6.409  16.734  0.00  0.00    +0.000 NA
BRANCH  12  18
ATOM     14  C   UNL     1       2.358   2.685  20.654  0.00  0.00    +0.000 C 
ATOM     15  C   UNL     1       2.762   3.346  19.383  0.00  0.00    +0.000 A 
ATOM     16  C   UNL     1       3.016   2.759  18.162  0.00  0.00    +0.000 A 
ATOM     17  C   UNL     1       3.475   3.707  17.202  0.00  0.00    +0.000 A 
ATOM     18  C   UNL     1       3.637   4.965  17.746  0.00  0.00    +0.000 A 
ATOM     19  S   UNL     1       2.994   5.043  19.327  0.00  0.00    +0.000 S 
ENDBRANCH  12  18
ENDBRANCH   1  13
BRANCH   2  20
ATOM     20  S   UNL     1       6.913   6.176  19.452  0.00  0.00    +0.000 S 
ATOM     21  H   UNL     1       6.491   5.135  20.186  0.00  0.00    +0.000 HD
ENDBRANCH   2  20
TORSDOF 4
ENDMDL
MODEL 8
REMARK VINA RESULT:      -6.2      2.774      5.497
REMARK  Name = 
REMARK  5 active torsions:
REMARK  status: ('A' for Active; 'I' for Inactive)
REMARK    1  A    between atoms: C_1  and  C_2
REMARK    2  A    between atoms: C_5  and  C_6
REMARK    3  A    between atoms: N_7  and  N_8
REMARK    4  A    between atoms: C_9  and  S_10
REMARK    5  A    between atoms: C_13  and  C_14
REMARK                            x       y       z     vdW  Elec       q    Type
REMARK                         _______ _______ _______ _____ _____    ______ ____
ROOT
ATOM      1  N   UNL     1       5.468   5.621  18.080  0.00  0.00    +0.000 N 
ATOM      2  C   UNL     1       6.664   6.121  18.550  0.00  0.00    +0.000 A 
ATOM      3  N   UNL     1       7.024   5.527  19.662  0.00  0.00    +0.000 NA
ATOM      4  N   UNL     1       6.097   4.552  19.915  0.00  0.00    +0.000 NA
ATOM      5  C   UNL     1       5.201   4.551  18.939  0.00  0.00    +0.000 A 
ENDROOT
BRANCH   5   6
ATOM      6  C   UNL     1       4.072   3.620  18.856  0.00  0.00    +0.000 A 
ATOM      7  C   UNL     1       3.360   3.318  20.029  0.00  0.00    +0.000 A 
ATOM      8  C   UNL     1       2.163   2.607  19.966  0.00  0.00    +0.000 A 
ATOM      9  C   UNL     1       1.676   2.173  18.736  0.00  0.00    +0.000 A 
ATOM     10  C   UNL     1       2.416   2.392  17.575  0.00  0.00    +0.000 A 
ATOM     11  C   UNL     1       3.623   3.095  17.637  0.00  0.00    +0.000 A 
ENDBRANCH   5   6
BRANCH   1  13
ATOM     12  C   UNL     1       3.735   6.679  16.934  0.00  0.00    +0.000 C 
ATOM     13  N   UNL     1       4.865   6.038  16.911  0.00  0.00    +0.000 NA
BRANCH  12  18
ATOM     14  C   UNL     1       1.044   9.865  20.179  0.00  0.00    +0.000 C 
ATOM     15  C   UNL     1       1.679   8.678  19.544  0.00  0.00    +0.000 A 
ATOM     16  C   UNL     1       2.000   7.471  20.127  0.00  0.00    +0.000 A 
ATOM     17  C   UNL     1       2.690   6.611  19.224  0.00  0.00    +0.000 A 
ATOM     18  C   UNL     1       2.946   7.223  18.013  0.00  0.00    +0.000 A 
ATOM     19  S   UNL     1       2.133   8.720  17.893  0.00  0.00    +0.000 S 
ENDBRANCH  12  18
ENDBRANCH   1  13
BRANCH   2  20
ATOM     20  S   UNL     1       7.528   7.398  17.760  0.00  0.00    +0.000 S 
ATOM     21  H   UNL     1       6.717   7.515  16.698  0.00  0.00    +0.000 HD
ENDBRANCH   2  20
TORSDOF 4
ENDMDL
MODEL 9
REMARK VINA RESULT:      -6.1      3.048      6.209
REMARK  Name = 
REMARK  5 active torsions:
REMARK  status: ('A' for Active; 'I' for Inactive)
REMARK    1  A    between atoms: C_1  and  C_2
REMARK    2  A    between atoms: C_5  and  C_6
REMARK    3  A    between atoms: N_7  and  N_8
REMARK    4  A    between atoms: C_9  and  S_10
REMARK    5  A    between atoms: C_13  and  C_14
REMARK                            x       y       z     vdW  Elec       q    Type
REMARK                         _______ _______ _______ _____ _____    ______ ____
ROOT
ATOM      1  N   UNL     1       6.671   5.664  16.679  0.00  0.00    +0.000 N 
ATOM      2  C   UNL     1       7.431   5.427  17.806  0.00  0.00    +0.000 A 
ATOM      3  N   UNL     1       8.148   4.339  17.675  0.00  0.00    +0.000 NA
ATOM      4  N   UNL     1       7.933   3.865  16.409  0.00  0.00    +0.000 NA
ATOM      5  C   UNL     1       7.107   4.687  15.779  0.00  0.00    +0.000 A 
ENDROOT
BRANCH   5   6
ATOM      6  C   UNL     1       6.672   4.517  14.390  0.00  0.00    +0.000 A 
ATOM      7  C   UNL     1       7.553   4.884  13.359  0.00  0.00    +0.000 A 
ATOM      8  C   UNL     1       7.269   4.552  12.036  0.00  0.00    +0.000 A 
ATOM      9  C   UNL     1       6.095   3.870  11.726  0.00  0.00    +0.000 A 
ATOM     10  C   UNL     1       5.173   3.576  12.730  0.00  0.00    +0.000 A 
ATOM     11  C   UNL     1       5.451   3.919  14.057  0.00  0.00    +0.000 A 
ENDBRANCH   5   6
BRANCH   1  13
ATOM     12  C   UNL     1       4.617   6.733  16.957  0.00  0.00    +0.000 C 
ATOM     13  N   UNL     1       5.843   6.757  16.525  0.00  0.00    +0.000 NA
BRANCH  12  18
ATOM     14  C   UNL     1       1.715   2.645  18.628  0.00  0.00    +0.000 C 
ATOM     15  C   UNL     1       2.541   3.883  18.569  0.00  0.00    +0.000 A 
ATOM     16  C   UNL     1       2.633   4.890  19.506  0.00  0.00    +0.000 A 
ATOM     17  C   UNL     1       3.452   5.964  19.052  0.00  0.00    +0.000 A 
ATOM     18  C   UNL     1       3.885   5.779  17.755  0.00  0.00    +0.000 A 
ATOM     19  S   UNL     1       3.514   4.208  17.197  0.00  0.00    +0.000 S 
ENDBRANCH  12  18
ENDBRANCH   1  13
BRANCH   2  20
ATOM     20  S   UNL     1       7.383   6.446  19.207  0.00  0.00    +0.000 S 
ATOM     21  H   UNL     1       8.316   5.795  19.917  0.00  0.00    +0.000 HD
ENDBRANCH   2  20
TORSDOF 4
ENDMDL
