MODEL 1
REMARK VINA RESULT:     -10.0      0.000      0.000
REMARK  Name = 
REMARK  6 active torsions:
REMARK  status: ('A' for Active; 'I' for Inactive)
REMARK    1  A    between atoms: C_1  and  C_2
REMARK    2  A    between atoms: C_5  and  N_6
REMARK    3  A    between atoms: C_7  and  C_9
REMARK    4  A    between atoms: N_12  and  S_13
REMARK    5  A    between atoms: S_13  and  C_16
REMARK    6  A    between atoms: C_30  and  C_31
REMARK                            x       y       z     vdW  Elec       q    Type
REMARK                         _______ _______ _______ _____ _____    ______ ____
ROOT
ATOM      1  C   UNL     1       7.810   6.008  17.974  0.00  0.00    +0.000 C 
ATOM      2  C   UNL     1       7.119   5.282  16.800  0.00  0.00    +0.000 C 
ATOM      3  C   UNL     1       5.599   5.148  16.931  0.00  0.00    +0.000 C 
ATOM      4  N   UNL     1       5.253   4.530  18.244  0.00  0.00    +0.000 NA
ATOM      5  C   UNL     1       5.743   5.401  19.359  0.00  0.00    +0.000 C 
ATOM      6  C   UNL     1       7.268   5.515  19.318  0.00  0.00    +0.000 C 
ENDROOT
BRANCH   1   8
ATOM      7  N   UNL     1       8.564   8.243  18.704  0.00  0.00    +0.000 N 
ATOM      8  C   UNL     1       7.720   7.536  17.845  0.00  0.00    +0.000 C 
ATOM      9  O   UNL     1       6.936   8.029  17.039  0.00  0.00    +0.000 OA
ATOM     10  H   UNL     1       9.117   7.707  19.362  0.00  0.00    +0.000 HD
BRANCH   7  15
ATOM     11  C   UNL     1       9.562  13.938  18.729  0.00  0.00    +0.000 C 
ATOM     12  C   UNL     1       9.306  12.455  18.766  0.00  0.00    +0.000 A 
ATOM     13  C   UNL     1       8.642  11.861  17.691  0.00  0.00    +0.000 A 
ATOM     14  C   UNL     1       8.384  10.486  17.668  0.00  0.00    +0.000 A 
ATOM     15  C   UNL     1       8.781   9.657  18.714  0.00  0.00    +0.000 A 
ATOM     16  C   UNL     1       9.453  10.250  19.802  0.00  0.00    +0.000 A 
ATOM     17  C   UNL     1       9.713  11.644  19.841  0.00  0.00    +0.000 A 
ATOM     18  C   UNL     1      10.417  12.260  21.025  0.00  0.00    +0.000 C 
ENDBRANCH   7  15
ENDBRANCH   1   8
BRANCH   4  19
ATOM     19  S   UNL     1       3.568   4.159  18.423  0.00  0.00    +0.000 S 
ATOM     20  O   UNL     1       3.015   3.937  17.105  0.00  0.00    +0.000 OA
ATOM     21  O   UNL     1       3.456   3.155  19.460  0.00  0.00    +0.000 OA
BRANCH  19  22
ATOM     22  C   UNL     1       2.831   5.663  19.030  0.00  0.00    +0.000 A 
ATOM     23  C   UNL     1       2.264   5.700  20.311  0.00  0.00    +0.000 A 
ATOM     24  C   UNL     1       1.636   6.866  20.761  0.00  0.00    +0.000 A 
ATOM     25  C   UNL     1       1.589   7.988  19.932  0.00  0.00    +0.000 A 
ATOM     26  N   UNL     1       0.979   9.163  20.387  0.00  0.00    +0.000 N 
ATOM     27  C   UNL     1       0.910  10.316  19.646  0.00  0.00    +0.000 A 
ATOM     28  O   UNL     1       0.386  11.342  20.067  0.00  0.00    +0.000 OA
ATOM     29  C   UNL     1       1.506  10.268  18.288  0.00  0.00    +0.000 A 
ATOM     30  C   UNL     1       2.082   9.153  17.812  0.00  0.00    +0.000 A 
ATOM     31  C   UNL     1       2.148   7.950  18.643  0.00  0.00    +0.000 A 
ATOM     32  C   UNL     1       2.759   6.777  18.185  0.00  0.00    +0.000 A 
ATOM     33  H   UNL     1       0.567   9.208  21.306  0.00  0.00    +0.000 HD
ENDBRANCH  19  22
ENDBRANCH   4  19
TORSDOF 4
ENDMDL
MODEL 2
REMARK VINA RESULT:      -9.7      0.763      1.424
REMARK  Name = 
REMARK  6 active torsions:
REMARK  status: ('A' for Active; 'I' for Inactive)
REMARK    1  A    between atoms: C_1  and  C_2
REMARK    2  A    between atoms: C_5  and  N_6
REMARK    3  A    between atoms: C_7  and  C_9
REMARK    4  A    between atoms: N_12  and  S_13
REMARK    5  A    between atoms: S_13  and  C_16
REMARK    6  A    between atoms: C_30  and  C_31
REMARK                            x       y       z     vdW  Elec       q    Type
REMARK                         _______ _______ _______ _____ _____    ______ ____
ROOT
ATOM      1  C   UNL     1       7.838   6.226  17.937  0.00  0.00    +0.000 C 
ATOM      2  C   UNL     1       7.065   5.608  16.754  0.00  0.00    +0.000 C 
ATOM      3  C   UNL     1       5.547   5.537  16.943  0.00  0.00    +0.000 C 
ATOM      4  N   UNL     1       5.225   4.855  18.231  0.00  0.00    +0.000 NA
ATOM      5  C   UNL     1       5.802   5.630  19.373  0.00  0.00    +0.000 C 
ATOM      6  C   UNL     1       7.329   5.676  19.272  0.00  0.00    +0.000 C 
ENDROOT
BRANCH   1   8
ATOM      7  N   UNL     1       8.692   8.374  18.805  0.00  0.00    +0.000 N 
ATOM      8  C   UNL     1       7.818   7.761  17.905  0.00  0.00    +0.000 C 
ATOM      9  O   UNL     1       7.059   8.339  17.134  0.00  0.00    +0.000 OA
ATOM     10  H   UNL     1       9.219   7.772  19.428  0.00  0.00    +0.000 HD
BRANCH   7  15
ATOM     11  C   UNL     1       9.945  14.001  19.239  0.00  0.00    +0.000 C 
ATOM     12  C   UNL     1       9.605  12.537  19.168  0.00  0.00    +0.000 A 
ATOM     13  C   UNL     1       9.399  11.955  17.915  0.00  0.00    +0.000 A 
ATOM     14  C   UNL     1       9.087  10.597  17.788  0.00  0.00    +0.000 A 
ATOM     15  C   UNL     1       8.974   9.773  18.905  0.00  0.00    +0.000 A 
ATOM     16  C   UNL     1       9.181  10.352  20.172  0.00  0.00    +0.000 A 
ATOM     17  C   UNL     1       9.490  11.730  20.315  0.00  0.00    +0.000 A 
ATOM     18  C   UNL     1       9.689  12.334  21.683  0.00  0.00    +0.000 C 
ENDBRANCH   7  15
ENDBRANCH   1   8
BRANCH   4  19
ATOM     19  S   UNL     1       3.533   4.551  18.462  0.00  0.00    +0.000 S 
ATOM     20  O   UNL     1       2.997   4.030  17.223  0.00  0.00    +0.000 OA
ATOM     21  O   UNL     1       3.391   3.822  19.704  0.00  0.00    +0.000 OA
BRANCH  19  22
ATOM     22  C   UNL     1       2.806   6.163  18.683  0.00  0.00    +0.000 A 
ATOM     23  C   UNL     1       2.821   7.090  17.632  0.00  0.00    +0.000 A 
ATOM     24  C   UNL     1       2.301   8.373  17.828  0.00  0.00    +0.000 A 
ATOM     25  C   UNL     1       1.762   8.716  19.069  0.00  0.00    +0.000 A 
ATOM     26  N   UNL     1       1.222   9.994  19.263  0.00  0.00    +0.000 N 
ATOM     27  C   UNL     1       0.651  10.404  20.442  0.00  0.00    +0.000 A 
ATOM     28  O   UNL     1       0.169  11.521  20.590  0.00  0.00    +0.000 OA
ATOM     29  C   UNL     1       0.646   9.420  21.553  0.00  0.00    +0.000 A 
ATOM     30  C   UNL     1       1.172   8.194  21.409  0.00  0.00    +0.000 A 
ATOM     31  C   UNL     1       1.755   7.792  20.128  0.00  0.00    +0.000 A 
ATOM     32  C   UNL     1       2.293   6.514  19.937  0.00  0.00    +0.000 A 
ATOM     33  H   UNL     1       1.223  10.673  18.518  0.00  0.00    +0.000 HD
ENDBRANCH  19  22
ENDBRANCH   4  19
TORSDOF 4
ENDMDL
MODEL 3
REMARK VINA RESULT:      -9.3      0.980      1.850
REMARK  Name = 
REMARK  6 active torsions:
REMARK  status: ('A' for Active; 'I' for Inactive)
REMARK    1  A    between atoms: C_1  and  C_2
REMARK    2  A    between atoms: C_5  and  N_6
REMARK    3  A    between atoms: C_7  and  C_9
REMARK    4  A    between atoms: N_12  and  S_13
REMARK    5  A    between atoms: S_13  and  C_16
REMARK    6  A    between atoms: C_30  and  C_31
REMARK                            x       y       z     vdW  Elec       q    Type
REMARK                         _______ _______ _______ _____ _____    ______ ____
ROOT
ATOM      1  C   UNL     1       7.855   6.536  17.718  0.00  0.00    +0.000 C 
ATOM      2  C   UNL     1       6.927   6.121  16.557  0.00  0.00    +0.000 C 
ATOM      3  C   UNL     1       5.445   6.010  16.926  0.00  0.00    +0.000 C 
ATOM      4  N   UNL     1       5.280   5.119  18.111  0.00  0.00    +0.000 NA
ATOM      5  C   UNL     1       6.011   5.694  19.284  0.00  0.00    +0.000 C 
ATOM      6  C   UNL     1       7.512   5.765  18.996  0.00  0.00    +0.000 C 
ENDROOT
BRANCH   1   8
ATOM      7  N   UNL     1       8.819   8.506  18.852  0.00  0.00    +0.000 N 
ATOM      8  C   UNL     1       7.856   8.054  17.947  0.00  0.00    +0.000 C 
ATOM      9  O   UNL     1       7.037   8.754  17.358  0.00  0.00    +0.000 OA
ATOM     10  H   UNL     1       9.392   7.808  19.312  0.00  0.00    +0.000 HD
BRANCH   7  15
ATOM     11  C   UNL     1       9.972  14.047  20.033  0.00  0.00    +0.000 C 
ATOM     12  C   UNL     1       9.696  12.608  19.690  0.00  0.00    +0.000 A 
ATOM     13  C   UNL     1       9.310  11.735  20.709  0.00  0.00    +0.000 A 
ATOM     14  C   UNL     1       9.033  10.389  20.446  0.00  0.00    +0.000 A 
ATOM     15  C   UNL     1       9.130   9.868  19.158  0.00  0.00    +0.000 A 
ATOM     16  C   UNL     1       9.518  10.743  18.124  0.00  0.00    +0.000 A 
ATOM     17  C   UNL     1       9.810  12.108  18.379  0.00  0.00    +0.000 A 
ATOM     18  C   UNL     1      10.242  13.022  17.260  0.00  0.00    +0.000 C 
ENDBRANCH   7  15
ENDBRANCH   1   8
BRANCH   4  19
ATOM     19  S   UNL     1       3.626   4.771  18.504  0.00  0.00    +0.000 S 
ATOM     20  O   UNL     1       3.006   4.172  17.342  0.00  0.00    +0.000 OA
ATOM     21  O   UNL     1       3.619   4.100  19.786  0.00  0.00    +0.000 OA
BRANCH  19  22
ATOM     22  C   UNL     1       2.862   6.367  18.713  0.00  0.00    +0.000 A 
ATOM     23  C   UNL     1       2.861   7.289  17.658  0.00  0.00    +0.000 A 
ATOM     24  C   UNL     1       2.310   8.561  17.845  0.00  0.00    +0.000 A 
ATOM     25  C   UNL     1       1.756   8.898  19.081  0.00  0.00    +0.000 A 
ATOM     26  N   UNL     1       1.186  10.163  19.266  0.00  0.00    +0.000 N 
ATOM     27  C   UNL     1       0.600  10.565  20.440  0.00  0.00    +0.000 A 
ATOM     28  O   UNL     1       0.091  11.672  20.579  0.00  0.00    +0.000 OA
ATOM     29  C   UNL     1       0.610   9.587  21.556  0.00  0.00    +0.000 A 
ATOM     30  C   UNL     1       1.165   8.372  21.420  0.00  0.00    +0.000 A 
ATOM     31  C   UNL     1       1.765   7.978  20.144  0.00  0.00    +0.000 A 
ATOM     32  C   UNL     1       2.334   6.712  19.963  0.00  0.00    +0.000 A 
ATOM     33  H   UNL     1       1.175  10.839  18.518  0.00  0.00    +0.000 HD
ENDBRANCH  19  22
ENDBRANCH   4  19
TORSDOF 4
ENDMDL
MODEL 4
REMARK VINA RESULT:      -9.2      0.606      1.202
REMARK  Name = 
REMARK  6 active torsions:
REMARK  status: ('A' for Active; 'I' for Inactive)
REMARK    1  A    between atoms: C_1  and  C_2
REMARK    2  A    between atoms: C_5  and  N_6
REMARK    3  A    between atoms: C_7  and  C_9
REMARK    4  A    between atoms: N_12  and  S_13
REMARK    5  A    between atoms: S_13  and  C_16
REMARK    6  A    between atoms: C_30  and  C_31
REMARK                            x       y       z     vdW  Elec       q    Type
REMARK                         _______ _______ _______ _____ _____    ______ ____
ROOT
ATOM      1  C   UNL     1       7.929   6.368  17.811  0.00  0.00    +0.000 C 
ATOM      2  C   UNL     1       7.115   5.903  16.586  0.00  0.00    +0.000 C 
ATOM      3  C   UNL     1       5.616   5.716  16.841  0.00  0.00    +0.000 C 
ATOM      4  N   UNL     1       5.408   4.821  18.016  0.00  0.00    +0.000 NA
ATOM      5  C   UNL     1       6.016   5.437  19.237  0.00  0.00    +0.000 C 
ATOM      6  C   UNL     1       7.529   5.585  19.064  0.00  0.00    +0.000 C 
ENDROOT
BRANCH   1   8
ATOM      7  N   UNL     1       8.785   8.409  18.907  0.00  0.00    +0.000 N 
ATOM      8  C   UNL     1       7.833   7.885  18.029  0.00  0.00    +0.000 C 
ATOM      9  O   UNL     1       6.956   8.524  17.455  0.00  0.00    +0.000 OA
ATOM     10  H   UNL     1       9.415   7.755  19.357  0.00  0.00    +0.000 HD
BRANCH   7  15
ATOM     11  C   UNL     1       9.590  14.023  20.029  0.00  0.00    +0.000 C 
ATOM     12  C   UNL     1       9.400  12.567  19.698  0.00  0.00    +0.000 A 
ATOM     13  C   UNL     1       9.190  11.663  20.742  0.00  0.00    +0.000 A 
ATOM     14  C   UNL     1       9.001  10.299  20.492  0.00  0.00    +0.000 A 
ATOM     15  C   UNL     1       9.012   9.791  19.196  0.00  0.00    +0.000 A 
ATOM     16  C   UNL     1       9.222  10.698  18.138  0.00  0.00    +0.000 A 
ATOM     17  C   UNL     1       9.424  12.082  18.377  0.00  0.00    +0.000 A 
ATOM     18  C   UNL     1       9.666  13.031  17.231  0.00  0.00    +0.000 C 
ENDBRANCH   7  15
ENDBRANCH   1   8
BRANCH   4  19
ATOM     19  S   UNL     1       3.749   4.388  18.284  0.00  0.00    +0.000 S 
ATOM     20  O   UNL     1       3.135   4.147  16.997  0.00  0.00    +0.000 OA
ATOM     21  O   UNL     1       3.728   3.381  19.324  0.00  0.00    +0.000 OA
BRANCH  19  22
ATOM     22  C   UNL     1       2.992   5.865  18.933  0.00  0.00    +0.000 A 
ATOM     23  C   UNL     1       2.481   5.877  20.238  0.00  0.00    +0.000 A 
ATOM     24  C   UNL     1       1.837   7.020  20.722  0.00  0.00    +0.000 A 
ATOM     25  C   UNL     1       1.716   8.144  19.903  0.00  0.00    +0.000 A 
ATOM     26  N   UNL     1       1.089   9.297  20.392  0.00  0.00    +0.000 N 
ATOM     27  C   UNL     1       0.950  10.450  19.662  0.00  0.00    +0.000 A 
ATOM     28  O   UNL     1       0.412  11.456  20.111  0.00  0.00    +0.000 OA
ATOM     29  C   UNL     1       1.486  10.428  18.278  0.00  0.00    +0.000 A 
ATOM     30  C   UNL     1       2.075   9.334  17.770  0.00  0.00    +0.000 A 
ATOM     31  C   UNL     1       2.217   8.130  18.590  0.00  0.00    +0.000 A 
ATOM     32  C   UNL     1       2.845   6.980  18.098  0.00  0.00    +0.000 A 
ATOM     33  H   UNL     1       0.718   9.324  21.328  0.00  0.00    +0.000 HD
ENDBRANCH  19  22
ENDBRANCH   4  19
TORSDOF 4
ENDMDL
MODEL 5
REMARK VINA RESULT:      -8.7      1.314      2.178
REMARK  Name = 
REMARK  6 active torsions:
REMARK  status: ('A' for Active; 'I' for Inactive)
REMARK    1  A    between atoms: C_1  and  C_2
REMARK    2  A    between atoms: C_5  and  N_6
REMARK    3  A    between atoms: C_7  and  C_9
REMARK    4  A    between atoms: N_12  and  S_13
REMARK    5  A    between atoms: S_13  and  C_16
REMARK    6  A    between atoms: C_30  and  C_31
REMARK                            x       y       z     vdW  Elec       q    Type
REMARK                         _______ _______ _______ _____ _____    ______ ____
ROOT
ATOM      1  C   UNL     1       7.018   6.080  17.005  0.00  0.00    +0.000 C 
ATOM      2  C   UNL     1       5.716   6.687  16.442  0.00  0.00    +0.000 C 
ATOM      3  C   UNL     1       4.519   6.640  17.397  0.00  0.00    +0.000 C 
ATOM      4  N   UNL     1       4.312   5.247  17.887  0.00  0.00    +0.000 NA
ATOM      5  C   UNL     1       5.524   4.788  18.636  0.00  0.00    +0.000 C 
ATOM      6  C   UNL     1       6.742   4.750  17.710  0.00  0.00    +0.000 C 
ENDROOT
BRANCH   1   8
ATOM      7  N   UNL     1       7.859   8.365  17.413  0.00  0.00    +0.000 N 
ATOM      8  C   UNL     1       7.773   7.063  17.911  0.00  0.00    +0.000 C 
ATOM      9  O   UNL     1       8.249   6.665  18.970  0.00  0.00    +0.000 OA
ATOM     10  H   UNL     1       7.471   8.540  16.494  0.00  0.00    +0.000 HD
BRANCH   7  15
ATOM     11  C   UNL     1       9.884  13.011  20.196  0.00  0.00    +0.000 C 
ATOM     12  C   UNL     1       9.355  11.825  19.435  0.00  0.00    +0.000 A 
ATOM     13  C   UNL     1       9.567  10.545  19.953  0.00  0.00    +0.000 A 
ATOM     14  C   UNL     1       9.092   9.408  19.291  0.00  0.00    +0.000 A 
ATOM     15  C   UNL     1       8.388   9.507  18.094  0.00  0.00    +0.000 A 
ATOM     16  C   UNL     1       8.170  10.795  17.566  0.00  0.00    +0.000 A 
ATOM     17  C   UNL     1       8.654  11.956  18.222  0.00  0.00    +0.000 A 
ATOM     18  C   UNL     1       8.425  13.324  17.629  0.00  0.00    +0.000 C 
ENDBRANCH   7  15
ENDBRANCH   1   8
BRANCH   4  19
ATOM     19  S   UNL     1       2.870   5.039  18.828  0.00  0.00    +0.000 S 
ATOM     20  O   UNL     1       1.899   4.340  18.014  0.00  0.00    +0.000 OA
ATOM     21  O   UNL     1       3.269   4.527  20.122  0.00  0.00    +0.000 OA
BRANCH  19  22
ATOM     22  C   UNL     1       2.235   6.688  19.060  0.00  0.00    +0.000 A 
ATOM     23  C   UNL     1       2.161   7.571  17.974  0.00  0.00    +0.000 A 
ATOM     24  C   UNL     1       1.716   8.882  18.172  0.00  0.00    +0.000 A 
ATOM     25  C   UNL     1       1.340   9.297  19.450  0.00  0.00    +0.000 A 
ATOM     26  N   UNL     1       0.874  10.603  19.649  0.00  0.00    +0.000 N 
ATOM     27  C   UNL     1       0.463  11.084  20.867  0.00  0.00    +0.000 A 
ATOM     28  O   UNL     1       0.043  12.225  21.019  0.00  0.00    +0.000 OA
ATOM     29  C   UNL     1       0.552  10.146  22.014  0.00  0.00    +0.000 A 
ATOM     30  C   UNL     1       1.011   8.894  21.864  0.00  0.00    +0.000 A 
ATOM     31  C   UNL     1       1.424   8.417  20.543  0.00  0.00    +0.000 A 
ATOM     32  C   UNL     1       1.888   7.111  20.349  0.00  0.00    +0.000 A 
ATOM     33  H   UNL     1       0.813  11.251  18.879  0.00  0.00    +0.000 HD
ENDBRANCH  19  22
ENDBRANCH   4  19
TORSDOF 4
ENDMDL
MODEL 6
REMARK VINA RESULT:      -8.7      1.034      1.559
REMARK  Name = 
REMARK  6 active torsions:
REMARK  status: ('A' for Active; 'I' for Inactive)
REMARK    1  A    between atoms: C_1  and  C_2
REMARK    2  A    between atoms: C_5  and  N_6
REMARK    3  A    between atoms: C_7  and  C_9
REMARK    4  A    between atoms: N_12  and  S_13
REMARK    5  A    between atoms: S_13  and  C_16
REMARK    6  A    between atoms: C_30  and  C_31
REMARK                            x       y       z     vdW  Elec       q    Type
REMARK                         _______ _______ _______ _____ _____    ______ ____
ROOT
ATOM      1  C   UNL     1       7.099   6.118  16.850  0.00  0.00    +0.000 C 
ATOM      2  C   UNL     1       5.747   6.657  16.337  0.00  0.00    +0.000 C 
ATOM      3  C   UNL     1       4.564   6.435  17.284  0.00  0.00    +0.000 C 
ATOM      4  N   UNL     1       4.478   4.994  17.662  0.00  0.00    +0.000 NA
ATOM      5  C   UNL     1       5.729   4.580  18.372  0.00  0.00    +0.000 C 
ATOM      6  C   UNL     1       6.939   4.718  17.446  0.00  0.00    +0.000 C 
ENDROOT
BRANCH   1   8
ATOM      7  N   UNL     1       7.958   8.381  17.341  0.00  0.00    +0.000 N 
ATOM      8  C   UNL     1       7.775   7.086  17.832  0.00  0.00    +0.000 C 
ATOM      9  O   UNL     1       8.114   6.683  18.941  0.00  0.00    +0.000 OA
ATOM     10  H   UNL     1       7.684   8.559  16.382  0.00  0.00    +0.000 HD
BRANCH   7  15
ATOM     11  C   UNL     1       9.793  12.982  20.321  0.00  0.00    +0.000 C 
ATOM     12  C   UNL     1       9.317  11.808  19.509  0.00  0.00    +0.000 A 
ATOM     13  C   UNL     1       9.487  10.521  20.024  0.00  0.00    +0.000 A 
ATOM     14  C   UNL     1       9.057   9.394  19.316  0.00  0.00    +0.000 A 
ATOM     15  C   UNL     1       8.441   9.511  18.072  0.00  0.00    +0.000 A 
ATOM     16  C   UNL     1       8.266  10.806  17.546  0.00  0.00    +0.000 A 
ATOM     17  C   UNL     1       8.705  11.957  18.250  0.00  0.00    +0.000 A 
ATOM     18  C   UNL     1       8.524  13.333  17.660  0.00  0.00    +0.000 C 
ENDBRANCH   7  15
ENDBRANCH   1   8
BRANCH   4  19
ATOM     19  S   UNL     1       3.064   4.593  18.583  0.00  0.00    +0.000 S 
ATOM     20  O   UNL     1       2.058   4.096  17.669  0.00  0.00    +0.000 OA
ATOM     21  O   UNL     1       3.497   3.805  19.718  0.00  0.00    +0.000 OA
BRANCH  19  22
ATOM     22  C   UNL     1       2.459   6.153  19.194  0.00  0.00    +0.000 A 
ATOM     23  C   UNL     1       2.011   6.263  20.517  0.00  0.00    +0.000 A 
ATOM     24  C   UNL     1       1.484   7.475  20.975  0.00  0.00    +0.000 A 
ATOM     25  C   UNL     1       1.419   8.569  20.111  0.00  0.00    +0.000 A 
ATOM     26  N   UNL     1       0.911   9.790  20.573  0.00  0.00    +0.000 N 
ATOM     27  C   UNL     1       0.833  10.920  19.797  0.00  0.00    +0.000 A 
ATOM     28  O   UNL     1       0.400  11.985  20.222  0.00  0.00    +0.000 OA
ATOM     29  C   UNL     1       1.303  10.794  18.395  0.00  0.00    +0.000 A 
ATOM     30  C   UNL     1       1.778   9.635  17.914  0.00  0.00    +0.000 A 
ATOM     31  C   UNL     1       1.858   8.459  18.781  0.00  0.00    +0.000 A 
ATOM     32  C   UNL     1       2.367   7.241  18.317  0.00  0.00    +0.000 A 
ATOM     33  H   UNL     1       0.585   9.888  21.521  0.00  0.00    +0.000 HD
ENDBRANCH  19  22
ENDBRANCH   4  19
TORSDOF 4
ENDMDL
MODEL 7
REMARK VINA RESULT:      -8.5      5.081     10.010
REMARK  Name = 
REMARK  6 active torsions:
REMARK  status: ('A' for Active; 'I' for Inactive)
REMARK    1  A    between atoms: C_1  and  C_2
REMARK    2  A    between atoms: C_5  and  N_6
REMARK    3  A    between atoms: C_7  and  C_9
REMARK    4  A    between atoms: N_12  and  S_13
REMARK    5  A    between atoms: S_13  and  C_16
REMARK    6  A    between atoms: C_30  and  C_31
REMARK                            x       y       z     vdW  Elec       q    Type
REMARK                         _______ _______ _______ _____ _____    ______ ____
ROOT
ATOM      1  C   UNL     1      -0.315  12.627  18.990  0.00  0.00    +0.000 C 
ATOM      2  C   UNL     1      -0.814  11.226  18.577  0.00  0.00    +0.000 C 
ATOM      3  C   UNL     1      -0.726  10.162  19.676  0.00  0.00    +0.000 C 
ATOM      4  N   UNL     1       0.658  10.116  20.230  0.00  0.00    +0.000 NA
ATOM      5  C   UNL     1       1.008  11.440  20.835  0.00  0.00    +0.000 C 
ATOM      6  C   UNL     1       1.002  12.534  19.765  0.00  0.00    +0.000 C 
ENDROOT
BRANCH   1   8
ATOM      7  N   UNL     1      -2.490  12.667  20.159  0.00  0.00    +0.000 N 
ATOM      8  C   UNL     1      -1.380  13.418  19.764  0.00  0.00    +0.000 C 
ATOM      9  O   UNL     1      -1.211  14.615  19.972  0.00  0.00    +0.000 OA
ATOM     10  H   UNL     1      -2.526  11.698  19.867  0.00  0.00    +0.000 HD
BRANCH   7  15
ATOM     11  C   UNL     1      -6.756  14.514  23.596  0.00  0.00    +0.000 C 
ATOM     12  C   UNL     1      -5.640  13.999  22.727  0.00  0.00    +0.000 A 
ATOM     13  C   UNL     1      -5.566  14.431  21.402  0.00  0.00    +0.000 A 
ATOM     14  C   UNL     1      -4.547  13.990  20.551  0.00  0.00    +0.000 A 
ATOM     15  C   UNL     1      -3.565  13.107  20.994  0.00  0.00    +0.000 A 
ATOM     16  C   UNL     1      -3.633  12.667  22.331  0.00  0.00    +0.000 A 
ATOM     17  C   UNL     1      -4.666  13.100  23.201  0.00  0.00    +0.000 A 
ATOM     18  C   UNL     1      -4.730  12.602  24.623  0.00  0.00    +0.000 C 
ENDBRANCH   7  15
ENDBRANCH   1   8
BRANCH   4  19
ATOM     19  S   UNL     1       0.923   8.819  21.352  0.00  0.00    +0.000 S 
ATOM     20  O   UNL     1       1.946   9.235  22.286  0.00  0.00    +0.000 OA
ATOM     21  O   UNL     1      -0.376   8.376  21.814  0.00  0.00    +0.000 OA
BRANCH  19  22
ATOM     22  C   UNL     1       1.636   7.510  20.376  0.00  0.00    +0.000 A 
ATOM     23  C   UNL     1       2.244   7.802  19.147  0.00  0.00    +0.000 A 
ATOM     24  C   UNL     1       2.752   6.765  18.358  0.00  0.00    +0.000 A 
ATOM     25  C   UNL     1       2.657   5.447  18.807  0.00  0.00    +0.000 A 
ATOM     26  N   UNL     1       3.183   4.408  18.029  0.00  0.00    +0.000 N 
ATOM     27  C   UNL     1       3.152   3.088  18.407  0.00  0.00    +0.000 A 
ATOM     28  O   UNL     1       3.632   2.193  17.720  0.00  0.00    +0.000 OA
ATOM     29  C   UNL     1       2.500   2.786  19.705  0.00  0.00    +0.000 A 
ATOM     30  C   UNL     1       1.969   3.754  20.467  0.00  0.00    +0.000 A 
ATOM     31  C   UNL     1       2.038   5.150  20.033  0.00  0.00    +0.000 A 
ATOM     32  C   UNL     1       1.513   6.186  20.814  0.00  0.00    +0.000 A 
ATOM     33  H   UNL     1       3.624   4.599  17.143  0.00  0.00    +0.000 HD
ENDBRANCH  19  22
ENDBRANCH   4  19
TORSDOF 4
ENDMDL
MODEL 8
REMARK VINA RESULT:      -8.4      5.070     10.384
REMARK  Name = 
REMARK  6 active torsions:
REMARK  status: ('A' for Active; 'I' for Inactive)
REMARK    1  A    between atoms: C_1  and  C_2
REMARK    2  A    between atoms: C_5  and  N_6
REMARK    3  A    between atoms: C_7  and  C_9
REMARK    4  A    between atoms: N_12  and  S_13
REMARK    5  A    between atoms: S_13  and  C_16
REMARK    6  A    between atoms: C_30  and  C_31
REMARK                            x       y       z     vdW  Elec       q    Type
REMARK                         _______ _______ _______ _____ _____    ______ ____
ROOT
ATOM      1  C   UNL     1      -0.457  12.603  19.067  0.00  0.00    +0.000 C 
ATOM      2  C   UNL     1      -0.784  11.190  18.543  0.00  0.00    +0.000 C 
ATOM      3  C   UNL     1      -0.751  10.085  19.604  0.00  0.00    +0.000 C 
ATOM      4  N   UNL     1       0.551  10.117  20.331  0.00  0.00    +0.000 NA
ATOM      5  C   UNL     1       0.713  11.435  21.023  0.00  0.00    +0.000 C 
ATOM      6  C   UNL     1       0.755  12.573  20.002  0.00  0.00    +0.000 C 
ENDROOT
BRANCH   1   8
ATOM      7  N   UNL     1      -2.819  12.480  19.776  0.00  0.00    +0.000 N 
ATOM      8  C   UNL     1      -1.671  13.275  19.724  0.00  0.00    +0.000 C 
ATOM      9  O   UNL     1      -1.574  14.426  20.138  0.00  0.00    +0.000 OA
ATOM     10  H   UNL     1      -2.774  11.566  19.341  0.00  0.00    +0.000 HD
BRANCH   7  15
ATOM     11  C   UNL     1      -7.830  13.651  22.411  0.00  0.00    +0.000 C 
ATOM     12  C   UNL     1      -6.539  13.368  21.690  0.00  0.00    +0.000 A 
ATOM     13  C   UNL     1      -5.405  13.050  22.441  0.00  0.00    +0.000 A 
ATOM     14  C   UNL     1      -4.181  12.771  21.824  0.00  0.00    +0.000 A 
ATOM     15  C   UNL     1      -4.047  12.796  20.438  0.00  0.00    +0.000 A 
ATOM     16  C   UNL     1      -5.187  13.115  19.674  0.00  0.00    +0.000 A 
ATOM     17  C   UNL     1      -6.432  13.408  20.288  0.00  0.00    +0.000 A 
ATOM     18  C   UNL     1      -7.635  13.765  19.451  0.00  0.00    +0.000 C 
ENDBRANCH   7  15
ENDBRANCH   1   8
BRANCH   4  19
ATOM     19  S   UNL     1       0.775   8.793  21.430  0.00  0.00    +0.000 S 
ATOM     20  O   UNL     1       1.742   9.197  22.428  0.00  0.00    +0.000 OA
ATOM     21  O   UNL     1      -0.539   8.320  21.809  0.00  0.00    +0.000 OA
BRANCH  19  22
ATOM     22  C   UNL     1       1.559   7.522  20.458  0.00  0.00    +0.000 A 
ATOM     23  C   UNL     1       2.240   7.858  19.280  0.00  0.00    +0.000 A 
ATOM     24  C   UNL     1       2.804   6.851  18.491  0.00  0.00    +0.000 A 
ATOM     25  C   UNL     1       2.692   5.518  18.890  0.00  0.00    +0.000 A 
ATOM     26  N   UNL     1       3.274   4.508  18.113  0.00  0.00    +0.000 N 
ATOM     27  C   UNL     1       3.231   3.177  18.444  0.00  0.00    +0.000 A 
ATOM     28  O   UNL     1       3.759   2.308  17.760  0.00  0.00    +0.000 OA
ATOM     29  C   UNL     1       2.501   2.828  19.689  0.00  0.00    +0.000 A 
ATOM     30  C   UNL     1       1.916   3.767  20.447  0.00  0.00    +0.000 A 
ATOM     31  C   UNL     1       2.001   5.177  20.065  0.00  0.00    +0.000 A 
ATOM     32  C   UNL     1       1.419   6.183  20.844  0.00  0.00    +0.000 A 
ATOM     33  H   UNL     1       3.769   4.732  17.263  0.00  0.00    +0.000 HD
ENDBRANCH  19  22
ENDBRANCH   4  19
TORSDOF 4
ENDMDL
MODEL 9
REMARK VINA RESULT:      -8.4      4.505      9.819
REMARK  Name = 
REMARK  6 active torsions:
REMARK  status: ('A' for Active; 'I' for Inactive)
REMARK    1  A    between atoms: C_1  and  C_2
REMARK    2  A    between atoms: C_5  and  N_6
REMARK    3  A    between atoms: C_7  and  C_9
REMARK    4  A    between atoms: N_12  and  S_13
REMARK    5  A    between atoms: S_13  and  C_16
REMARK    6  A    between atoms: C_30  and  C_31
REMARK                            x       y       z     vdW  Elec       q    Type
REMARK                         _______ _______ _______ _____ _____    ______ ____
ROOT
ATOM      1  C   UNL     1      -0.454  12.315  18.938  0.00  0.00    +0.000 C 
ATOM      2  C   UNL     1      -1.018  10.927  18.569  0.00  0.00    +0.000 C 
ATOM      3  C   UNL     1      -0.912   9.874  19.677  0.00  0.00    +0.000 C 
ATOM      4  N   UNL     1       0.495   9.787  20.164  0.00  0.00    +0.000 NA
ATOM      5  C   UNL     1       0.917  11.106  20.733  0.00  0.00    +0.000 C 
ATOM      6  C   UNL     1       0.896  12.186  19.649  0.00  0.00    +0.000 C 
ENDROOT
BRANCH   1   8
ATOM      7  N   UNL     1      -2.598  12.460  20.153  0.00  0.00    +0.000 N 
ATOM      8  C   UNL     1      -1.453  13.150  19.751  0.00  0.00    +0.000 C 
ATOM      9  O   UNL     1      -1.207  14.330  19.981  0.00  0.00    +0.000 OA
ATOM     10  H   UNL     1      -2.699  11.501  19.840  0.00  0.00    +0.000 HD
BRANCH   7  15
ATOM     11  C   UNL     1      -6.676  14.488  23.714  0.00  0.00    +0.000 C 
ATOM     12  C   UNL     1      -5.609  13.926  22.814  0.00  0.00    +0.000 A 
ATOM     13  C   UNL     1      -5.584  14.320  21.474  0.00  0.00    +0.000 A 
ATOM     14  C   UNL     1      -4.610  13.835  20.594  0.00  0.00    +0.000 A 
ATOM     15  C   UNL     1      -3.628  12.945  21.019  0.00  0.00    +0.000 A 
ATOM     16  C   UNL     1      -3.646  12.544  22.370  0.00  0.00    +0.000 A 
ATOM     17  C   UNL     1      -4.633  13.021  23.271  0.00  0.00    +0.000 A 
ATOM     18  C   UNL     1      -4.645  12.564  24.708  0.00  0.00    +0.000 C 
ENDBRANCH   7  15
ENDBRANCH   1   8
BRANCH   4  19
ATOM     19  S   UNL     1       0.770   8.495  21.290  0.00  0.00    +0.000 S 
ATOM     20  O   UNL     1       1.691   8.969  22.300  0.00  0.00    +0.000 OA
ATOM     21  O   UNL     1      -0.524   7.955  21.651  0.00  0.00    +0.000 OA
BRANCH  19  22
ATOM     22  C   UNL     1       1.644   7.255  20.356  0.00  0.00    +0.000 A 
ATOM     23  C   UNL     1       1.601   5.913  20.758  0.00  0.00    +0.000 A 
ATOM     24  C   UNL     1       2.335   4.953  20.055  0.00  0.00    +0.000 A 
ATOM     25  C   UNL     1       3.098   5.338  18.952  0.00  0.00    +0.000 A 
ATOM     26  N   UNL     1       3.818   4.376  18.233  0.00  0.00    +0.000 N 
ATOM     27  C   UNL     1       4.573   4.666  17.125  0.00  0.00    +0.000 A 
ATOM     28  O   UNL     1       5.185   3.807  16.498  0.00  0.00    +0.000 OA
ATOM     29  C   UNL     1       4.621   6.090  16.709  0.00  0.00    +0.000 A 
ATOM     30  C   UNL     1       3.959   7.041  17.385  0.00  0.00    +0.000 A 
ATOM     31  C   UNL     1       3.152   6.685  18.553  0.00  0.00    +0.000 A 
ATOM     32  C   UNL     1       2.433   7.650  19.268  0.00  0.00    +0.000 A 
ATOM     33  H   UNL     1       3.798   3.406  18.507  0.00  0.00    +0.000 HD
ENDBRANCH  19  22
ENDBRANCH   4  19
TORSDOF 4
ENDMDL
