MODEL 1
REMARK VINA RESULT:      -9.0      0.000      0.000
REMARK  Name = 
REMARK  4 active torsions:
REMARK  status: ('A' for Active; 'I' for Inactive)
REMARK    1  A    between atoms: C_4  and  C_5
REMARK    2  A    between atoms: C_8  and  C_9
REMARK    3  A    between atoms: C_20  and  C_21
REMARK    4  A    between atoms: C_24  and  C_25
REMARK                            x       y       z     vdW  Elec       q    Type
REMARK                         _______ _______ _______ _____ _____    ______ ____
ROOT
ATOM      1  O   UNL     1       1.384   7.382  21.314  0.00  0.00    +0.000 OA
ATOM      2  C   UNL     1       1.463   8.126  20.340  0.00  0.00    +0.000 C 
ATOM      3  C   UNL     1       0.899   9.515  20.367  0.00  0.00    +0.000 C 
ATOM      4  C   UNL     1       0.661  10.029  21.589  0.00  0.00    +0.000 C 
ATOM      5  C   UNL     1       0.647  10.244  19.078  0.00  0.00    +0.000 C 
ATOM      6  C   UNL     1       0.675   9.326  17.866  0.00  0.00    +0.000 C 
ATOM      7  C   UNL     1       1.980   8.545  17.842  0.00  0.00    +0.000 C 
ATOM      8  C   UNL     1       2.135   7.697  19.071  0.00  0.00    +0.000 C 
ATOM      9  C   UNL     1       2.844   6.554  19.127  0.00  0.00    +0.000 C 
ENDROOT
BRANCH   4  10
ATOM     10  C   UNL     1       0.141  11.374  21.832  0.00  0.00    +0.000 A 
ATOM     11  C   UNL     1       0.708  12.467  21.168  0.00  0.00    +0.000 A 
ATOM     12  C   UNL     1       0.194  13.752  21.366  0.00  0.00    +0.000 A 
ATOM     13  C   UNL     1      -0.895  13.966  22.226  0.00  0.00    +0.000 A 
ATOM     14  C   UNL     1      -1.446  12.868  22.905  0.00  0.00    +0.000 A 
ATOM     15  C   UNL     1      -0.925  11.591  22.708  0.00  0.00    +0.000 A 
ATOM     16  F   UNL     1      -1.470  10.564  23.379  0.00  0.00    +0.000 F 
BRANCH  13  17
ATOM     17  C   UNL     1      -1.482  15.342  22.417  0.00  0.00    +0.000 C 
ATOM     18  F   UNL     1      -2.838  15.376  22.290  0.00  0.00    +0.000 F 
ATOM     19  F   UNL     1      -1.210  15.855  23.649  0.00  0.00    +0.000 F 
ATOM     20  F   UNL     1      -0.999  16.243  21.520  0.00  0.00    +0.000 F 
ENDBRANCH  13  17
ENDBRANCH   4  10
BRANCH   9  21
ATOM     21  C   UNL     1       3.633   6.025  18.015  0.00  0.00    +0.000 A 
ATOM     22  C   UNL     1       4.574   6.850  17.388  0.00  0.00    +0.000 A 
ATOM     23  C   UNL     1       5.351   6.357  16.336  0.00  0.00    +0.000 A 
ATOM     24  C   UNL     1       5.201   5.034  15.894  0.00  0.00    +0.000 A 
ATOM     25  C   UNL     1       4.239   4.219  16.510  0.00  0.00    +0.000 A 
ATOM     26  C   UNL     1       3.467   4.716  17.557  0.00  0.00    +0.000 A 
ATOM     27  F   UNL     1       2.550   3.913  18.118  0.00  0.00    +0.000 F 
BRANCH  24  28
ATOM     28  C   UNL     1       6.062   4.479  14.785  0.00  0.00    +0.000 C 
ATOM     29  F   UNL     1       7.057   5.323  14.397  0.00  0.00    +0.000 F 
ATOM     30  F   UNL     1       6.675   3.316  15.139  0.00  0.00    +0.000 F 
ATOM     31  F   UNL     1       5.348   4.202  13.661  0.00  0.00    +0.000 F 
ENDBRANCH  24  28
ENDBRANCH   9  21
TORSDOF 4
ENDMDL
MODEL 2
REMARK VINA RESULT:      -8.8      2.733      3.418
REMARK  Name = 
REMARK  4 active torsions:
REMARK  status: ('A' for Active; 'I' for Inactive)
REMARK    1  A    between atoms: C_4  and  C_5
REMARK    2  A    between atoms: C_8  and  C_9
REMARK    3  A    between atoms: C_20  and  C_21
REMARK    4  A    between atoms: C_24  and  C_25
REMARK                            x       y       z     vdW  Elec       q    Type
REMARK                         _______ _______ _______ _____ _____    ______ ____
ROOT
ATOM      1  O   UNL     1       2.107   9.985  17.657  0.00  0.00    +0.000 OA
ATOM      2  C   UNL     1       1.605   9.466  18.651  0.00  0.00    +0.000 C 
ATOM      3  C   UNL     1       0.660  10.221  19.535  0.00  0.00    +0.000 C 
ATOM      4  C   UNL     1       0.099  11.319  18.995  0.00  0.00    +0.000 C 
ATOM      5  C   UNL     1       0.384   9.727  20.927  0.00  0.00    +0.000 C 
ATOM      6  C   UNL     1       1.390   8.687  21.395  0.00  0.00    +0.000 C 
ATOM      7  C   UNL     1       1.464   7.553  20.384  0.00  0.00    +0.000 C 
ATOM      8  C   UNL     1       1.899   8.048  19.035  0.00  0.00    +0.000 C 
ATOM      9  C   UNL     1       2.550   7.303  18.121  0.00  0.00    +0.000 C 
ENDROOT
BRANCH   4  10
ATOM     10  C   UNL     1      -0.869  12.175  19.680  0.00  0.00    +0.000 A 
ATOM     11  C   UNL     1      -0.418  13.212  20.502  0.00  0.00    +0.000 A 
ATOM     12  C   UNL     1      -1.335  14.059  21.132  0.00  0.00    +0.000 A 
ATOM     13  C   UNL     1      -2.716  13.886  20.947  0.00  0.00    +0.000 A 
ATOM     14  C   UNL     1      -3.163  12.831  20.138  0.00  0.00    +0.000 A 
ATOM     15  C   UNL     1      -2.244  11.987  19.518  0.00  0.00    +0.000 A 
ATOM     16  F   UNL     1      -2.705  10.983  18.757  0.00  0.00    +0.000 F 
BRANCH  13  17
ATOM     17  C   UNL     1      -3.713  14.817  21.591  0.00  0.00    +0.000 C 
ATOM     18  F   UNL     1      -3.157  15.972  22.053  0.00  0.00    +0.000 F 
ATOM     19  F   UNL     1      -4.698  15.196  20.731  0.00  0.00    +0.000 F 
ATOM     20  F   UNL     1      -4.341  14.252  22.657  0.00  0.00    +0.000 F 
ENDBRANCH  13  17
ENDBRANCH   4  10
BRANCH   9  21
ATOM     21  C   UNL     1       2.847   5.881  18.285  0.00  0.00    +0.000 A 
ATOM     22  C   UNL     1       4.032   5.497  18.925  0.00  0.00    +0.000 A 
ATOM     23  C   UNL     1       4.325   4.142  19.108  0.00  0.00    +0.000 A 
ATOM     24  C   UNL     1       3.441   3.151  18.656  0.00  0.00    +0.000 A 
ATOM     25  C   UNL     1       2.267   3.541  17.995  0.00  0.00    +0.000 A 
ATOM     26  C   UNL     1       1.981   4.892  17.814  0.00  0.00    +0.000 A 
ATOM     27  F   UNL     1       0.854   5.230  17.169  0.00  0.00    +0.000 F 
BRANCH  24  28
ATOM     28  C   UNL     1       3.728   1.686  18.883  0.00  0.00    +0.000 C 
ATOM     29  F   UNL     1       4.729   1.463  19.780  0.00  0.00    +0.000 F 
ATOM     30  F   UNL     1       2.644   1.015  19.359  0.00  0.00    +0.000 F 
ATOM     31  F   UNL     1       4.100   1.046  17.743  0.00  0.00    +0.000 F 
ENDBRANCH  24  28
ENDBRANCH   9  21
TORSDOF 4
ENDMDL
MODEL 3
REMARK VINA RESULT:      -8.8      0.971      1.451
REMARK  Name = 
REMARK  4 active torsions:
REMARK  status: ('A' for Active; 'I' for Inactive)
REMARK    1  A    between atoms: C_4  and  C_5
REMARK    2  A    between atoms: C_8  and  C_9
REMARK    3  A    between atoms: C_20  and  C_21
REMARK    4  A    between atoms: C_24  and  C_25
REMARK                            x       y       z     vdW  Elec       q    Type
REMARK                         _______ _______ _______ _____ _____    ______ ____
ROOT
ATOM      1  O   UNL     1       1.356   7.780  21.309  0.00  0.00    +0.000 OA
ATOM      2  C   UNL     1       1.389   8.440  20.274  0.00  0.00    +0.000 C 
ATOM      3  C   UNL     1       0.791   9.812  20.200  0.00  0.00    +0.000 C 
ATOM      4  C   UNL     1       0.576  10.423  21.380  0.00  0.00    +0.000 C 
ATOM      5  C   UNL     1       0.484  10.422  18.862  0.00  0.00    +0.000 C 
ATOM      6  C   UNL     1       0.499   9.405  17.732  0.00  0.00    +0.000 C 
ATOM      7  C   UNL     1       1.823   8.655  17.734  0.00  0.00    +0.000 C 
ATOM      8  C   UNL     1       2.034   7.919  19.026  0.00  0.00    +0.000 C 
ATOM      9  C   UNL     1       2.773   6.801  19.156  0.00  0.00    +0.000 C 
ENDROOT
BRANCH   4  10
ATOM     10  C   UNL     1       0.029  11.773  21.525  0.00  0.00    +0.000 A 
ATOM     11  C   UNL     1      -1.286  11.944  21.969  0.00  0.00    +0.000 A 
ATOM     12  C   UNL     1      -1.806  13.229  22.146  0.00  0.00    +0.000 A 
ATOM     13  C   UNL     1      -1.020  14.364  21.885  0.00  0.00    +0.000 A 
ATOM     14  C   UNL     1       0.292  14.185  21.420  0.00  0.00    +0.000 A 
ATOM     15  C   UNL     1       0.802  12.901  21.240  0.00  0.00    +0.000 A 
ATOM     16  F   UNL     1       2.057  12.766  20.786  0.00  0.00    +0.000 F 
BRANCH  13  17
ATOM     17  C   UNL     1      -1.558  15.755  22.109  0.00  0.00    +0.000 C 
ATOM     18  F   UNL     1      -1.037  16.681  21.257  0.00  0.00    +0.000 F 
ATOM     19  F   UNL     1      -2.908  15.821  21.951  0.00  0.00    +0.000 F 
ATOM     20  F   UNL     1      -1.303  16.216  23.363  0.00  0.00    +0.000 F 
ENDBRANCH  13  17
ENDBRANCH   4  10
BRANCH   9  21
ATOM     21  C   UNL     1       3.543   6.196  18.069  0.00  0.00    +0.000 A 
ATOM     22  C   UNL     1       4.466   6.978  17.366  0.00  0.00    +0.000 A 
ATOM     23  C   UNL     1       5.225   6.414  16.336  0.00  0.00    +0.000 A 
ATOM     24  C   UNL     1       5.074   5.062  15.993  0.00  0.00    +0.000 A 
ATOM     25  C   UNL     1       4.129   4.289  16.686  0.00  0.00    +0.000 A 
ATOM     26  C   UNL     1       3.375   4.857  17.710  0.00  0.00    +0.000 A 
ATOM     27  F   UNL     1       2.475   4.093  18.345  0.00  0.00    +0.000 F 
BRANCH  24  28
ATOM     28  C   UNL     1       5.915   4.432  14.909  0.00  0.00    +0.000 C 
ATOM     29  F   UNL     1       7.045   5.136  14.623  0.00  0.00    +0.000 F 
ATOM     30  F   UNL     1       6.331   3.179  15.241  0.00  0.00    +0.000 F 
ATOM     31  F   UNL     1       5.243   4.309  13.734  0.00  0.00    +0.000 F 
ENDBRANCH  24  28
ENDBRANCH   9  21
TORSDOF 4
ENDMDL
MODEL 4
REMARK VINA RESULT:      -8.8      2.729      3.389
REMARK  Name = 
REMARK  4 active torsions:
REMARK  status: ('A' for Active; 'I' for Inactive)
REMARK    1  A    between atoms: C_4  and  C_5
REMARK    2  A    between atoms: C_8  and  C_9
REMARK    3  A    between atoms: C_20  and  C_21
REMARK    4  A    between atoms: C_24  and  C_25
REMARK                            x       y       z     vdW  Elec       q    Type
REMARK                         _______ _______ _______ _____ _____    ______ ____
ROOT
ATOM      1  O   UNL     1       2.118   9.970  17.605  0.00  0.00    +0.000 OA
ATOM      2  C   UNL     1       1.618   9.458  18.603  0.00  0.00    +0.000 C 
ATOM      3  C   UNL     1       0.676  10.220  19.485  0.00  0.00    +0.000 C 
ATOM      4  C   UNL     1       0.116  11.316  18.939  0.00  0.00    +0.000 C 
ATOM      5  C   UNL     1       0.402   9.736  20.881  0.00  0.00    +0.000 C 
ATOM      6  C   UNL     1       1.408   8.697  21.353  0.00  0.00    +0.000 C 
ATOM      7  C   UNL     1       1.477   7.556  20.349  0.00  0.00    +0.000 C 
ATOM      8  C   UNL     1       1.910   8.042  18.996  0.00  0.00    +0.000 C 
ATOM      9  C   UNL     1       2.557   7.290  18.085  0.00  0.00    +0.000 C 
ENDROOT
BRANCH   4  10
ATOM     10  C   UNL     1      -0.850  12.178  19.621  0.00  0.00    +0.000 A 
ATOM     11  C   UNL     1      -2.219  11.950  19.456  0.00  0.00    +0.000 A 
ATOM     12  C   UNL     1      -3.150  12.745  20.132  0.00  0.00    +0.000 A 
ATOM     13  C   UNL     1      -2.728  13.776  20.986  0.00  0.00    +0.000 A 
ATOM     14  C   UNL     1      -1.352  14.013  21.131  0.00  0.00    +0.000 A 
ATOM     15  C   UNL     1      -0.430  13.221  20.450  0.00  0.00    +0.000 A 
ATOM     16  F   UNL     1       0.878  13.480  20.605  0.00  0.00    +0.000 F 
BRANCH  13  17
ATOM     17  C   UNL     1      -3.722  14.615  21.750  0.00  0.00    +0.000 C 
ATOM     18  F   UNL     1      -4.719  13.885  22.323  0.00  0.00    +0.000 F 
ATOM     19  F   UNL     1      -3.140  15.313  22.764  0.00  0.00    +0.000 F 
ATOM     20  F   UNL     1      -4.338  15.537  20.963  0.00  0.00    +0.000 F 
ENDBRANCH  13  17
ENDBRANCH   4  10
BRANCH   9  21
ATOM     21  C   UNL     1       2.853   5.868  18.257  0.00  0.00    +0.000 A 
ATOM     22  C   UNL     1       4.048   5.486  18.879  0.00  0.00    +0.000 A 
ATOM     23  C   UNL     1       4.340   4.133  19.070  0.00  0.00    +0.000 A 
ATOM     24  C   UNL     1       3.444   3.141  18.644  0.00  0.00    +0.000 A 
ATOM     25  C   UNL     1       2.259   3.529  18.000  0.00  0.00    +0.000 A 
ATOM     26  C   UNL     1       1.974   4.879  17.812  0.00  0.00    +0.000 A 
ATOM     27  F   UNL     1       0.838   5.215  17.184  0.00  0.00    +0.000 F 
BRANCH  24  28
ATOM     28  C   UNL     1       3.730   1.677  18.879  0.00  0.00    +0.000 C 
ATOM     29  F   UNL     1       4.151   1.021  17.762  0.00  0.00    +0.000 F 
ATOM     30  F   UNL     1       4.702   1.484  19.813  0.00  0.00    +0.000 F 
ATOM     31  F   UNL     1       2.639   0.998  19.323  0.00  0.00    +0.000 F 
ENDBRANCH  24  28
ENDBRANCH   9  21
TORSDOF 4
ENDMDL
MODEL 5
REMARK VINA RESULT:      -8.7      2.619      3.469
REMARK  Name = 
REMARK  4 active torsions:
REMARK  status: ('A' for Active; 'I' for Inactive)
REMARK    1  A    between atoms: C_4  and  C_5
REMARK    2  A    between atoms: C_8  and  C_9
REMARK    3  A    between atoms: C_20  and  C_21
REMARK    4  A    between atoms: C_24  and  C_25
REMARK                            x       y       z     vdW  Elec       q    Type
REMARK                         _______ _______ _______ _____ _____    ______ ____
ROOT
ATOM      1  O   UNL     1       2.111  10.003  17.518  0.00  0.00    +0.000 OA
ATOM      2  C   UNL     1       1.619   9.504  18.527  0.00  0.00    +0.000 C 
ATOM      3  C   UNL     1       0.696  10.282  19.415  0.00  0.00    +0.000 C 
ATOM      4  C   UNL     1       0.141  11.380  18.868  0.00  0.00    +0.000 C 
ATOM      5  C   UNL     1       0.435   9.810  20.817  0.00  0.00    +0.000 C 
ATOM      6  C   UNL     1       1.435   8.764  21.284  0.00  0.00    +0.000 C 
ATOM      7  C   UNL     1       1.480   7.616  20.287  0.00  0.00    +0.000 C 
ATOM      8  C   UNL     1       1.901   8.087  18.925  0.00  0.00    +0.000 C 
ATOM      9  C   UNL     1       2.528   7.323  18.012  0.00  0.00    +0.000 C 
ENDROOT
BRANCH   4  10
ATOM     10  C   UNL     1      -0.807  12.257  19.556  0.00  0.00    +0.000 A 
ATOM     11  C   UNL     1      -0.332  13.341  20.301  0.00  0.00    +0.000 A 
ATOM     12  C   UNL     1      -1.231  14.207  20.932  0.00  0.00    +0.000 A 
ATOM     13  C   UNL     1      -2.616  14.006  20.825  0.00  0.00    +0.000 A 
ATOM     14  C   UNL     1      -3.085  12.904  20.093  0.00  0.00    +0.000 A 
ATOM     15  C   UNL     1      -2.184  12.042  19.472  0.00  0.00    +0.000 A 
ATOM     16  F   UNL     1      -2.666  10.994  18.787  0.00  0.00    +0.000 F 
BRANCH  13  17
ATOM     17  C   UNL     1      -3.596  14.956  21.469  0.00  0.00    +0.000 C 
ATOM     18  F   UNL     1      -3.073  15.640  22.525  0.00  0.00    +0.000 F 
ATOM     19  F   UNL     1      -4.050  15.900  20.600  0.00  0.00    +0.000 F 
ATOM     20  F   UNL     1      -4.700  14.321  21.946  0.00  0.00    +0.000 F 
ENDBRANCH  13  17
ENDBRANCH   4  10
BRANCH   9  21
ATOM     21  C   UNL     1       2.810   5.899  18.190  0.00  0.00    +0.000 A 
ATOM     22  C   UNL     1       1.801   4.962  17.937  0.00  0.00    +0.000 A 
ATOM     23  C   UNL     1       2.056   3.595  18.084  0.00  0.00    +0.000 A 
ATOM     24  C   UNL     1       3.322   3.143  18.486  0.00  0.00    +0.000 A 
ATOM     25  C   UNL     1       4.323   4.088  18.762  0.00  0.00    +0.000 A 
ATOM     26  C   UNL     1       4.062   5.448  18.615  0.00  0.00    +0.000 A 
ATOM     27  F   UNL     1       5.038   6.324  18.896  0.00  0.00    +0.000 F 
BRANCH  24  28
ATOM     28  C   UNL     1       3.621   1.669  18.610  0.00  0.00    +0.000 C 
ATOM     29  F   UNL     1       4.561   1.385  19.554  0.00  0.00    +0.000 F 
ATOM     30  F   UNL     1       2.520   0.944  18.950  0.00  0.00    +0.000 F 
ATOM     31  F   UNL     1       4.084   1.132  17.450  0.00  0.00    +0.000 F 
ENDBRANCH  24  28
ENDBRANCH   9  21
TORSDOF 4
ENDMDL
MODEL 6
REMARK VINA RESULT:      -8.7      2.596      3.539
REMARK  Name = 
REMARK  4 active torsions:
REMARK  status: ('A' for Active; 'I' for Inactive)
REMARK    1  A    between atoms: C_4  and  C_5
REMARK    2  A    between atoms: C_8  and  C_9
REMARK    3  A    between atoms: C_20  and  C_21
REMARK    4  A    between atoms: C_24  and  C_25
REMARK                            x       y       z     vdW  Elec       q    Type
REMARK                         _______ _______ _______ _____ _____    ______ ____
ROOT
ATOM      1  O   UNL     1       2.076  10.027  17.480  0.00  0.00    +0.000 OA
ATOM      2  C   UNL     1       1.601   9.540  18.502  0.00  0.00    +0.000 C 
ATOM      3  C   UNL     1       0.694  10.330  19.398  0.00  0.00    +0.000 C 
ATOM      4  C   UNL     1       0.131  11.422  18.848  0.00  0.00    +0.000 C 
ATOM      5  C   UNL     1       0.458   9.874  20.810  0.00  0.00    +0.000 C 
ATOM      6  C   UNL     1       1.465   8.832  21.271  0.00  0.00    +0.000 C 
ATOM      7  C   UNL     1       1.491   7.672  20.287  0.00  0.00    +0.000 C 
ATOM      8  C   UNL     1       1.888   8.128  18.912  0.00  0.00    +0.000 C 
ATOM      9  C   UNL     1       2.499   7.352  17.997  0.00  0.00    +0.000 C 
ENDROOT
BRANCH   4  10
ATOM     10  C   UNL     1      -0.803  12.308  19.542  0.00  0.00    +0.000 A 
ATOM     11  C   UNL     1      -2.171  12.015  19.535  0.00  0.00    +0.000 A 
ATOM     12  C   UNL     1      -3.068  12.835  20.225  0.00  0.00    +0.000 A 
ATOM     13  C   UNL     1      -2.614  13.957  20.937  0.00  0.00    +0.000 A 
ATOM     14  C   UNL     1      -1.243  14.257  20.924  0.00  0.00    +0.000 A 
ATOM     15  C   UNL     1      -0.355  13.439  20.228  0.00  0.00    +0.000 A 
ATOM     16  F   UNL     1       0.948  13.759  20.229  0.00  0.00    +0.000 F 
BRANCH  13  17
ATOM     17  C   UNL     1      -3.568  14.827  21.718  0.00  0.00    +0.000 C 
ATOM     18  F   UNL     1      -2.958  15.570  22.683  0.00  0.00    +0.000 F 
ATOM     19  F   UNL     1      -4.227  15.715  20.924  0.00  0.00    +0.000 F 
ATOM     20  F   UNL     1      -4.529  14.104  22.353  0.00  0.00    +0.000 F 
ENDBRANCH  13  17
ENDBRANCH   4  10
BRANCH   9  21
ATOM     21  C   UNL     1       2.783   5.930  18.187  0.00  0.00    +0.000 A 
ATOM     22  C   UNL     1       1.749   4.998  18.039  0.00  0.00    +0.000 A 
ATOM     23  C   UNL     1       2.003   3.632  18.199  0.00  0.00    +0.000 A 
ATOM     24  C   UNL     1       3.294   3.177  18.508  0.00  0.00    +0.000 A 
ATOM     25  C   UNL     1       4.322   4.117  18.678  0.00  0.00    +0.000 A 
ATOM     26  C   UNL     1       4.061   5.476  18.520  0.00  0.00    +0.000 A 
ATOM     27  F   UNL     1       5.064   6.348  18.699  0.00  0.00    +0.000 F 
BRANCH  24  28
ATOM     28  C   UNL     1       3.590   1.703  18.644  0.00  0.00    +0.000 C 
ATOM     29  F   UNL     1       4.065   1.138  17.499  0.00  0.00    +0.000 F 
ATOM     30  F   UNL     1       4.524   1.449  19.601  0.00  0.00    +0.000 F 
ATOM     31  F   UNL     1       2.491   0.980  18.988  0.00  0.00    +0.000 F 
ENDBRANCH  24  28
ENDBRANCH   9  21
TORSDOF 4
ENDMDL
MODEL 7
REMARK VINA RESULT:      -8.6      0.891      1.537
REMARK  Name = 
REMARK  4 active torsions:
REMARK  status: ('A' for Active; 'I' for Inactive)
REMARK    1  A    between atoms: C_4  and  C_5
REMARK    2  A    between atoms: C_8  and  C_9
REMARK    3  A    between atoms: C_20  and  C_21
REMARK    4  A    between atoms: C_24  and  C_25
REMARK                            x       y       z     vdW  Elec       q    Type
REMARK                         _______ _______ _______ _____ _____    ______ ____
ROOT
ATOM      1  O   UNL     1       1.480   7.159  21.253  0.00  0.00    +0.000 OA
ATOM      2  C   UNL     1       1.538   7.920  20.291  0.00  0.00    +0.000 C 
ATOM      3  C   UNL     1       0.948   9.296  20.344  0.00  0.00    +0.000 C 
ATOM      4  C   UNL     1       0.708   9.786  21.574  0.00  0.00    +0.000 C 
ATOM      5  C   UNL     1       0.672  10.040  19.068  0.00  0.00    +0.000 C 
ATOM      6  C   UNL     1       0.708   9.141  17.841  0.00  0.00    +0.000 C 
ATOM      7  C   UNL     1       2.029   8.388  17.796  0.00  0.00    +0.000 C 
ATOM      8  C   UNL     1       2.209   7.524  19.011  0.00  0.00    +0.000 C 
ATOM      9  C   UNL     1       2.941   6.394  19.043  0.00  0.00    +0.000 C 
ENDROOT
BRANCH   4  10
ATOM     10  C   UNL     1       0.164  11.117  21.843  0.00  0.00    +0.000 A 
ATOM     11  C   UNL     1       0.688  12.228  21.174  0.00  0.00    +0.000 A 
ATOM     12  C   UNL     1       0.151  13.499  21.396  0.00  0.00    +0.000 A 
ATOM     13  C   UNL     1      -0.921  13.681  22.285  0.00  0.00    +0.000 A 
ATOM     14  C   UNL     1      -1.429  12.565  22.968  0.00  0.00    +0.000 A 
ATOM     15  C   UNL     1      -0.885  11.301  22.747  0.00  0.00    +0.000 A 
ATOM     16  F   UNL     1      -1.389  10.257  23.423  0.00  0.00    +0.000 F 
BRANCH  13  17
ATOM     17  C   UNL     1      -1.534  15.042  22.503  0.00  0.00    +0.000 C 
ATOM     18  F   UNL     1      -1.649  15.380  23.817  0.00  0.00    +0.000 F 
ATOM     19  F   UNL     1      -0.808  16.036  21.923  0.00  0.00    +0.000 F 
ATOM     20  F   UNL     1      -2.787  15.137  21.982  0.00  0.00    +0.000 F 
ENDBRANCH  13  17
ENDBRANCH   4  10
BRANCH   9  21
ATOM     21  C   UNL     1       3.732   5.898  17.918  0.00  0.00    +0.000 A 
ATOM     22  C   UNL     1       3.472   4.620  17.407  0.00  0.00    +0.000 A 
ATOM     23  C   UNL     1       4.204   4.135  16.319  0.00  0.00    +0.000 A 
ATOM     24  C   UNL     1       5.206   4.917  15.726  0.00  0.00    +0.000 A 
ATOM     25  C   UNL     1       5.479   6.187  16.257  0.00  0.00    +0.000 A 
ATOM     26  C   UNL     1       4.747   6.664  17.341  0.00  0.00    +0.000 A 
ATOM     27  F   UNL     1       5.039   7.878  17.831  0.00  0.00    +0.000 F 
BRANCH  24  28
ATOM     28  C   UNL     1       5.977   4.420  14.527  0.00  0.00    +0.000 C 
ATOM     29  F   UNL     1       5.184   4.102  13.466  0.00  0.00    +0.000 F 
ATOM     30  F   UNL     1       6.866   5.342  14.065  0.00  0.00    +0.000 F 
ATOM     31  F   UNL     1       6.701   3.301  14.800  0.00  0.00    +0.000 F 
ENDBRANCH  24  28
ENDBRANCH   9  21
TORSDOF 4
ENDMDL
MODEL 8
REMARK VINA RESULT:      -8.6      2.024     11.074
REMARK  Name = 
REMARK  4 active torsions:
REMARK  status: ('A' for Active; 'I' for Inactive)
REMARK    1  A    between atoms: C_4  and  C_5
REMARK    2  A    between atoms: C_8  and  C_9
REMARK    3  A    between atoms: C_20  and  C_21
REMARK    4  A    between atoms: C_24  and  C_25
REMARK                            x       y       z     vdW  Elec       q    Type
REMARK                         _______ _______ _______ _____ _____    ______ ____
ROOT
ATOM      1  O   UNL     1       1.431   9.636  22.860  0.00  0.00    +0.000 OA
ATOM      2  C   UNL     1       0.804   9.721  21.807  0.00  0.00    +0.000 C 
ATOM      3  C   UNL     1       1.115   8.838  20.637  0.00  0.00    +0.000 C 
ATOM      4  C   UNL     1       1.820   7.725  20.912  0.00  0.00    +0.000 C 
ATOM      5  C   UNL     1       0.634   9.218  19.265  0.00  0.00    +0.000 C 
ATOM      6  C   UNL     1       0.173  10.665  19.182  0.00  0.00    +0.000 C 
ATOM      7  C   UNL     1      -0.870  10.935  20.255  0.00  0.00    +0.000 C 
ATOM      8  C   UNL     1      -0.314  10.703  21.631  0.00  0.00    +0.000 C 
ATOM      9  C   UNL     1      -0.748  11.322  22.745  0.00  0.00    +0.000 C 
ENDROOT
BRANCH   4  10
ATOM     10  C   UNL     1       2.200   6.720  19.918  0.00  0.00    +0.000 A 
ATOM     11  C   UNL     1       3.039   7.078  18.858  0.00  0.00    +0.000 A 
ATOM     12  C   UNL     1       3.438   6.117  17.923  0.00  0.00    +0.000 A 
ATOM     13  C   UNL     1       3.009   4.785  18.035  0.00  0.00    +0.000 A 
ATOM     14  C   UNL     1       2.151   4.437  19.090  0.00  0.00    +0.000 A 
ATOM     15  C   UNL     1       1.752   5.401  20.014  0.00  0.00    +0.000 A 
ATOM     16  F   UNL     1       0.925   5.036  21.006  0.00  0.00    +0.000 F 
BRANCH  13  17
ATOM     17  C   UNL     1       3.464   3.732  17.055  0.00  0.00    +0.000 C 
ATOM     18  F   UNL     1       2.443   3.169  16.352  0.00  0.00    +0.000 F 
ATOM     19  F   UNL     1       4.327   4.228  16.127  0.00  0.00    +0.000 F 
ATOM     20  F   UNL     1       4.114   2.703  17.662  0.00  0.00    +0.000 F 
ENDBRANCH  13  17
ENDBRANCH   4  10
BRANCH   9  21
ATOM     21  C   UNL     1      -1.881  12.246  22.780  0.00  0.00    +0.000 A 
ATOM     22  C   UNL     1      -3.059  11.862  23.434  0.00  0.00    +0.000 A 
ATOM     23  C   UNL     1      -4.147  12.738  23.495  0.00  0.00    +0.000 A 
ATOM     24  C   UNL     1      -4.076  14.009  22.905  0.00  0.00    +0.000 A 
ATOM     25  C   UNL     1      -2.902  14.379  22.231  0.00  0.00    +0.000 A 
ATOM     26  C   UNL     1      -1.822  13.501  22.172  0.00  0.00    +0.000 A 
ATOM     27  F   UNL     1      -0.719  13.882  21.512  0.00  0.00    +0.000 F 
BRANCH  24  28
ATOM     28  C   UNL     1      -5.229  14.978  22.998  0.00  0.00    +0.000 C 
ATOM     29  F   UNL     1      -5.391  15.736  21.877  0.00  0.00    +0.000 F 
ATOM     30  F   UNL     1      -6.420  14.348  23.197  0.00  0.00    +0.000 F 
ATOM     31  F   UNL     1      -5.090  15.857  24.026  0.00  0.00    +0.000 F 
ENDBRANCH  24  28
ENDBRANCH   9  21
TORSDOF 4
ENDMDL
MODEL 9
REMARK VINA RESULT:      -8.5      1.997     11.066
REMARK  Name = 
REMARK  4 active torsions:
REMARK  status: ('A' for Active; 'I' for Inactive)
REMARK    1  A    between atoms: C_4  and  C_5
REMARK    2  A    between atoms: C_8  and  C_9
REMARK    3  A    between atoms: C_20  and  C_21
REMARK    4  A    between atoms: C_24  and  C_25
REMARK                            x       y       z     vdW  Elec       q    Type
REMARK                         _______ _______ _______ _____ _____    ______ ____
ROOT
ATOM      1  O   UNL     1       1.457   9.636  22.851  0.00  0.00    +0.000 OA
ATOM      2  C   UNL     1       0.845   9.735  21.791  0.00  0.00    +0.000 C 
ATOM      3  C   UNL     1       1.148   8.842  20.626  0.00  0.00    +0.000 C 
ATOM      4  C   UNL     1       1.822   7.712  20.910  0.00  0.00    +0.000 C 
ATOM      5  C   UNL     1       0.692   9.233  19.248  0.00  0.00    +0.000 C 
ATOM      6  C   UNL     1       0.269  10.690  19.158  0.00  0.00    +0.000 C 
ATOM      7  C   UNL     1      -0.780  10.988  20.219  0.00  0.00    +0.000 C 
ATOM      8  C   UNL     1      -0.246  10.744  21.601  0.00  0.00    +0.000 C 
ATOM      9  C   UNL     1      -0.678  11.375  22.709  0.00  0.00    +0.000 C 
ENDROOT
BRANCH   4  10
ATOM     10  C   UNL     1       2.189   6.697  19.922  0.00  0.00    +0.000 A 
ATOM     11  C   UNL     1       2.911   7.068  18.784  0.00  0.00    +0.000 A 
ATOM     12  C   UNL     1       3.298   6.101  17.851  0.00  0.00    +0.000 A 
ATOM     13  C   UNL     1       2.974   4.748  18.044  0.00  0.00    +0.000 A 
ATOM     14  C   UNL     1       2.231   4.386  19.179  0.00  0.00    +0.000 A 
ATOM     15  C   UNL     1       1.843   5.356  20.100  0.00  0.00    +0.000 A 
ATOM     16  F   UNL     1       1.127   4.976  21.170  0.00  0.00    +0.000 F 
BRANCH  13  17
ATOM     17  C   UNL     1       3.419   3.690  17.065  0.00  0.00    +0.000 C 
ATOM     18  F   UNL     1       4.400   4.113  16.219  0.00  0.00    +0.000 F 
ATOM     19  F   UNL     1       3.914   2.585  17.686  0.00  0.00    +0.000 F 
ATOM     20  F   UNL     1       2.404   3.254  16.272  0.00  0.00    +0.000 F 
ENDBRANCH  13  17
ENDBRANCH   4  10
BRANCH   9  21
ATOM     21  C   UNL     1      -1.788  12.326  22.730  0.00  0.00    +0.000 A 
ATOM     22  C   UNL     1      -3.000  11.954  23.324  0.00  0.00    +0.000 A 
ATOM     23  C   UNL     1      -4.067  12.855  23.370  0.00  0.00    +0.000 A 
ATOM     24  C   UNL     1      -3.941  14.142  22.826  0.00  0.00    +0.000 A 
ATOM     25  C   UNL     1      -2.732  14.502  22.211  0.00  0.00    +0.000 A 
ATOM     26  C   UNL     1      -1.673  13.599  22.166  0.00  0.00    +0.000 A 
ATOM     27  F   UNL     1      -0.535  13.971  21.563  0.00  0.00    +0.000 F 
BRANCH  24  28
ATOM     28  C   UNL     1      -5.073  15.138  22.905  0.00  0.00    +0.000 C 
ATOM     29  F   UNL     1      -5.996  14.834  23.859  0.00  0.00    +0.000 F 
ATOM     30  F   UNL     1      -4.637  16.394  23.195  0.00  0.00    +0.000 F 
ATOM     31  F   UNL     1      -5.762  15.237  21.737  0.00  0.00    +0.000 F 
ENDBRANCH  24  28
ENDBRANCH   9  21
TORSDOF 4
ENDMDL
