MODEL 1
REMARK VINA RESULT:      -6.9      0.000      0.000
REMARK  Name = 
REMARK  12 active torsions:
REMARK  status: ('A' for Active; 'I' for Inactive)
REMARK    1  A    between atoms: C_1  and  O_2
REMARK    2  A    between atoms: O_2  and  C_3
REMARK    3  A    between atoms: C_3  and  C_4
REMARK    4  A    between atoms: C_4  and  N_5
REMARK    5  A    between atoms: N_5  and  C_6
REMARK    6  A    between atoms: N_14  and  C_15
REMARK    7  A    between atoms: C_17  and  C_18
REMARK    8  A    between atoms: C_18  and  O_19
REMARK    9  A    between atoms: O_19  and  S_20
REMARK   10  A    between atoms: S_20  and  N_21
REMARK   11  A    between atoms: C_24  and  O_25
REMARK   12  A    between atoms: C_26  and  O_27
REMARK                            x       y       z     vdW  Elec       q    Type
REMARK                         _______ _______ _______ _____ _____    ______ ____
ROOT
ATOM      1  C   UNL     1       3.315   5.689  19.024  0.00  0.00    +0.000 C 
ATOM      2  O   UNL     1       4.681   5.847  19.464  0.00  0.00    +0.000 OA
ATOM      3  C   UNL     1       5.499   4.831  18.832  0.00  0.00    +0.000 C 
ATOM      4  C   UNL     1       4.525   3.823  18.220  0.00  0.00    +0.000 C 
ATOM      5  C   UNL     1       3.297   4.659  17.895  0.00  0.00    +0.000 C 
ENDROOT
BRANCH   1  14
ATOM      6  C   UNL     1       0.998   9.956  19.273  0.00  0.00    +0.000 A 
ATOM      7  N   UNL     1       0.531   9.758  20.534  0.00  0.00    +0.000 NA
ATOM      8  C   UNL     1       0.810   8.598  21.161  0.00  0.00    +0.000 A 
ATOM      9  N   UNL     1       1.552   7.568  20.710  0.00  0.00    +0.000 NA
ATOM     10  C   UNL     1       1.986   7.794  19.461  0.00  0.00    +0.000 A 
ATOM     11  C   UNL     1       1.764   8.925  18.692  0.00  0.00    +0.000 A 
ATOM     12  N   UNL     1       2.393   8.814  17.467  0.00  0.00    +0.000 NA
ATOM     13  C   UNL     1       2.981   7.637  17.497  0.00  0.00    +0.000 A 
ATOM     14  N   UNL     1       2.756   6.977  18.679  0.00  0.00    +0.000 N 
BRANCH   6  15
ATOM     15  N   UNL     1       0.704  11.132  18.583  0.00  0.00    +0.000 N 
ATOM     16  H   UNL     1       1.540  11.712  18.492  0.00  0.00    +0.000 HD
BRANCH  15  17
ATOM     17  C   UNL     1      -0.467  11.879  19.031  0.00  0.00    +0.000 C 
BRANCH  17  18
ATOM     18  C   UNL     1      -1.587  11.827  17.986  0.00  0.00    +0.000 C 
BRANCH  18  20
ATOM     19  C   UNL     1      -2.376   9.963  16.774  0.00  0.00    +0.000 C 
ATOM     20  O   UNL     1      -2.247  10.557  18.059  0.00  0.00    +0.000 OA
ENDBRANCH  18  20
ENDBRANCH  17  18
ENDBRANCH  15  17
ENDBRANCH   6  15
ENDBRANCH   1  14
BRANCH   4  21
ATOM     21  O   UNL     1       4.131   2.819  19.177  0.00  0.00    +0.000 OA
ATOM     22  H   UNL     1       4.317   1.935  18.809  0.00  0.00    +0.000 HD
ENDBRANCH   4  21
BRANCH   5  23
ATOM     23  O   UNL     1       2.105   3.870  17.909  0.00  0.00    +0.000 OA
ATOM     24  H   UNL     1       1.756   3.884  16.993  0.00  0.00    +0.000 HD
ENDBRANCH   5  23
BRANCH   3  25
ATOM     25  C   UNL     1       6.437   5.473  17.807  0.00  0.00    +0.000 C 
BRANCH  25  26
ATOM     26  O   UNL     1       6.825   4.493  16.847  0.00  0.00    +0.000 OA
BRANCH  26  27
ATOM     27  S   UNL     1       6.605   4.867  15.283  0.00  0.00    +0.000 S 
ATOM     28  O   UNL     1       7.835   5.435  14.793  0.00  0.00    +0.000 OA
ATOM     29  O   UNL     1       5.951   3.754  14.634  0.00  0.00    +0.000 OA
BRANCH  27  30
ATOM     30  N   UNL     1       5.496   6.110  15.360  0.00  0.00    +0.000 NA
ATOM     31  H   UNL     1       5.487   6.657  14.504  0.00  0.00    +0.000 HD
ATOM     32  H   UNL     1       5.600   6.651  16.214  0.00  0.00    +0.000 HD
ENDBRANCH  27  30
ENDBRANCH  26  27
ENDBRANCH  25  26
ENDBRANCH   3  25
TORSDOF 11
ENDMDL
MODEL 2
REMARK VINA RESULT:      -6.9      2.027      2.491
REMARK  Name = 
REMARK  12 active torsions:
REMARK  status: ('A' for Active; 'I' for Inactive)
REMARK    1  A    between atoms: C_1  and  O_2
REMARK    2  A    between atoms: O_2  and  C_3
REMARK    3  A    between atoms: C_3  and  C_4
REMARK    4  A    between atoms: C_4  and  N_5
REMARK    5  A    between atoms: N_5  and  C_6
REMARK    6  A    between atoms: N_14  and  C_15
REMARK    7  A    between atoms: C_17  and  C_18
REMARK    8  A    between atoms: C_18  and  O_19
REMARK    9  A    between atoms: O_19  and  S_20
REMARK   10  A    between atoms: S_20  and  N_21
REMARK   11  A    between atoms: C_24  and  O_25
REMARK   12  A    between atoms: C_26  and  O_27
REMARK                            x       y       z     vdW  Elec       q    Type
REMARK                         _______ _______ _______ _____ _____    ______ ____
ROOT
ATOM      1  C   UNL     1       3.043   5.663  19.691  0.00  0.00    +0.000 C 
ATOM      2  O   UNL     1       4.428   5.428  19.359  0.00  0.00    +0.000 OA
ATOM      3  C   UNL     1       4.582   4.051  18.935  0.00  0.00    +0.000 C 
ATOM      4  C   UNL     1       3.285   3.340  19.321  0.00  0.00    +0.000 C 
ATOM      5  C   UNL     1       2.237   4.440  19.255  0.00  0.00    +0.000 C 
ENDROOT
BRANCH   1  14
ATOM      6  C   UNL     1       1.048  10.061  19.129  0.00  0.00    +0.000 A 
ATOM      7  N   UNL     1       0.497  10.096  20.371  0.00  0.00    +0.000 NA
ATOM      8  C   UNL     1       0.650   9.032  21.185  0.00  0.00    +0.000 A 
ATOM      9  N   UNL     1       1.335   7.897  20.947  0.00  0.00    +0.000 NA
ATOM     10  C   UNL     1       1.856   7.894  19.711  0.00  0.00    +0.000 A 
ATOM     11  C   UNL     1       1.764   8.902  18.765  0.00  0.00    +0.000 A 
ATOM     12  N   UNL     1       2.451   8.559  17.617  0.00  0.00    +0.000 NA
ATOM     13  C   UNL     1       2.945   7.365  17.866  0.00  0.00    +0.000 A 
ATOM     14  N   UNL     1       2.603   6.916  19.116  0.00  0.00    +0.000 N 
BRANCH   6  15
ATOM     15  N   UNL     1       0.884  11.131  18.249  0.00  0.00    +0.000 N 
ATOM     16  H   UNL     1       1.320  10.924  17.348  0.00  0.00    +0.000 HD
BRANCH  15  17
ATOM     17  C   UNL     1       1.221  12.456  18.759  0.00  0.00    +0.000 C 
BRANCH  17  18
ATOM     18  C   UNL     1       2.584  12.920  18.231  0.00  0.00    +0.000 C 
BRANCH  18  20
ATOM     19  C   UNL     1       2.149  14.410  20.007  0.00  0.00    +0.000 C 
ATOM     20  O   UNL     1       3.139  13.888  19.131  0.00  0.00    +0.000 OA
ENDBRANCH  18  20
ENDBRANCH  17  18
ENDBRANCH  15  17
ENDBRANCH   6  15
ENDBRANCH   1  14
BRANCH   4  21
ATOM     21  O   UNL     1       3.329   2.859  20.680  0.00  0.00    +0.000 OA
ATOM     22  H   UNL     1       3.623   1.929  20.681  0.00  0.00    +0.000 HD
ENDBRANCH   4  21
BRANCH   5  23
ATOM     23  O   UNL     1       1.143   4.178  20.137  0.00  0.00    +0.000 OA
ATOM     24  H   UNL     1       0.760   5.051  20.366  0.00  0.00    +0.000 HD
ENDBRANCH   5  23
BRANCH   3  25
ATOM     25  C   UNL     1       4.887   3.993  17.435  0.00  0.00    +0.000 C 
BRANCH  25  26
ATOM     26  O   UNL     1       5.575   5.180  17.050  0.00  0.00    +0.000 OA
BRANCH  26  27
ATOM     27  S   UNL     1       6.946   4.995  16.202  0.00  0.00    +0.000 S 
ATOM     28  O   UNL     1       6.666   4.094  15.112  0.00  0.00    +0.000 OA
ATOM     29  O   UNL     1       7.539   6.296  15.999  0.00  0.00    +0.000 OA
BRANCH  27  30
ATOM     30  N   UNL     1       7.924   4.170  17.271  0.00  0.00    +0.000 NA
ATOM     31  H   UNL     1       7.532   3.265  17.516  0.00  0.00    +0.000 HD
ATOM     32  H   UNL     1       8.188   4.752  18.062  0.00  0.00    +0.000 HD
ENDBRANCH  27  30
ENDBRANCH  26  27
ENDBRANCH  25  26
ENDBRANCH   3  25
TORSDOF 11
ENDMDL
MODEL 3
REMARK VINA RESULT:      -6.9      1.024      1.219
REMARK  Name = 
REMARK  12 active torsions:
REMARK  status: ('A' for Active; 'I' for Inactive)
REMARK    1  A    between atoms: C_1  and  O_2
REMARK    2  A    between atoms: O_2  and  C_3
REMARK    3  A    between atoms: C_3  and  C_4
REMARK    4  A    between atoms: C_4  and  N_5
REMARK    5  A    between atoms: N_5  and  C_6
REMARK    6  A    between atoms: N_14  and  C_15
REMARK    7  A    between atoms: C_17  and  C_18
REMARK    8  A    between atoms: C_18  and  O_19
REMARK    9  A    between atoms: O_19  and  S_20
REMARK   10  A    between atoms: S_20  and  N_21
REMARK   11  A    between atoms: C_24  and  O_25
REMARK   12  A    between atoms: C_26  and  O_27
REMARK                            x       y       z     vdW  Elec       q    Type
REMARK                         _______ _______ _______ _____ _____    ______ ____
ROOT
ATOM      1  C   UNL     1       3.175   5.856  19.349  0.00  0.00    +0.000 C 
ATOM      2  O   UNL     1       4.478   5.678  18.752  0.00  0.00    +0.000 OA
ATOM      3  C   UNL     1       4.591   4.317  18.268  0.00  0.00    +0.000 C 
ATOM      4  C   UNL     1       3.414   3.552  18.874  0.00  0.00    +0.000 C 
ATOM      5  C   UNL     1       2.339   4.615  19.041  0.00  0.00    +0.000 C 
ENDROOT
BRANCH   1  14
ATOM      6  C   UNL     1       0.822  10.109  19.273  0.00  0.00    +0.000 A 
ATOM      7  N   UNL     1       0.385  10.021  20.557  0.00  0.00    +0.000 NA
ATOM      8  C   UNL     1       0.689   8.923  21.277  0.00  0.00    +0.000 A 
ATOM      9  N   UNL     1       1.431   7.863  20.903  0.00  0.00    +0.000 NA
ATOM     10  C   UNL     1       1.836   7.980  19.629  0.00  0.00    +0.000 A 
ATOM     11  C   UNL     1       1.585   9.037  18.768  0.00  0.00    +0.000 A 
ATOM     12  N   UNL     1       2.187   8.823  17.544  0.00  0.00    +0.000 NA
ATOM     13  C   UNL     1       2.788   7.658  17.664  0.00  0.00    +0.000 A 
ATOM     14  N   UNL     1       2.596   7.104  18.904  0.00  0.00    +0.000 N 
BRANCH   6  15
ATOM     15  N   UNL     1       0.501  11.217  18.489  0.00  0.00    +0.000 N 
ATOM     16  H   UNL     1       1.151  11.985  18.671  0.00  0.00    +0.000 HD
BRANCH  15  17
ATOM     17  C   UNL     1      -0.897  11.637  18.488  0.00  0.00    +0.000 C 
BRANCH  17  18
ATOM     18  C   UNL     1      -1.811  10.509  17.995  0.00  0.00    +0.000 C 
BRANCH  18  20
ATOM     19  C   UNL     1      -3.296  10.783  16.183  0.00  0.00    +0.000 C 
ATOM     20  O   UNL     1      -1.942  10.592  16.570  0.00  0.00    +0.000 OA
ENDBRANCH  18  20
ENDBRANCH  17  18
ENDBRANCH  15  17
ENDBRANCH   6  15
ENDBRANCH   1  14
BRANCH   4  21
ATOM     21  O   UNL     1       3.733   3.043  20.185  0.00  0.00    +0.000 OA
ATOM     22  H   UNL     1       3.594   3.748  20.845  0.00  0.00    +0.000 HD
ENDBRANCH   4  21
BRANCH   5  23
ATOM     23  O   UNL     1       1.443   4.294  20.107  0.00  0.00    +0.000 OA
ATOM     24  H   UNL     1       1.530   5.016  20.765  0.00  0.00    +0.000 HD
ENDBRANCH   5  23
BRANCH   3  25
ATOM     25  C   UNL     1       4.604   4.303  16.737  0.00  0.00    +0.000 C 
BRANCH  25  26
ATOM     26  O   UNL     1       5.927   4.035  16.281  0.00  0.00    +0.000 OA
BRANCH  26  27
ATOM     27  S   UNL     1       6.914   5.310  16.093  0.00  0.00    +0.000 S 
ATOM     28  O   UNL     1       7.685   5.447  17.303  0.00  0.00    +0.000 OA
ATOM     29  O   UNL     1       7.527   5.226  14.788  0.00  0.00    +0.000 OA
BRANCH  27  30
ATOM     30  N   UNL     1       5.847   6.591  16.053  0.00  0.00    +0.000 NA
ATOM     31  H   UNL     1       5.151   6.520  16.790  0.00  0.00    +0.000 HD
ATOM     32  H   UNL     1       5.470   6.735  15.120  0.00  0.00    +0.000 HD
ENDBRANCH  27  30
ENDBRANCH  26  27
ENDBRANCH  25  26
ENDBRANCH   3  25
TORSDOF 11
ENDMDL
MODEL 4
REMARK VINA RESULT:      -6.8      1.444      1.524
REMARK  Name = 
REMARK  12 active torsions:
REMARK  status: ('A' for Active; 'I' for Inactive)
REMARK    1  A    between atoms: C_1  and  O_2
REMARK    2  A    between atoms: O_2  and  C_3
REMARK    3  A    between atoms: C_3  and  C_4
REMARK    4  A    between atoms: C_4  and  N_5
REMARK    5  A    between atoms: N_5  and  C_6
REMARK    6  A    between atoms: N_14  and  C_15
REMARK    7  A    between atoms: C_17  and  C_18
REMARK    8  A    between atoms: C_18  and  O_19
REMARK    9  A    between atoms: O_19  and  S_20
REMARK   10  A    between atoms: S_20  and  N_21
REMARK   11  A    between atoms: C_24  and  O_25
REMARK   12  A    between atoms: C_26  and  O_27
REMARK                            x       y       z     vdW  Elec       q    Type
REMARK                         _______ _______ _______ _____ _____    ______ ____
ROOT
ATOM      1  C   UNL     1       3.071   5.626  19.661  0.00  0.00    +0.000 C 
ATOM      2  O   UNL     1       4.489   5.472  19.434  0.00  0.00    +0.000 OA
ATOM      3  C   UNL     1       4.746   4.127  18.961  0.00  0.00    +0.000 C 
ATOM      4  C   UNL     1       3.459   3.338  19.206  0.00  0.00    +0.000 C 
ATOM      5  C   UNL     1       2.365   4.391  19.104  0.00  0.00    +0.000 C 
ENDROOT
BRANCH   1  14
ATOM      6  C   UNL     1       1.058  10.026  19.193  0.00  0.00    +0.000 A 
ATOM      7  N   UNL     1       0.536  10.047  20.448  0.00  0.00    +0.000 NA
ATOM      8  C   UNL     1       0.710   8.975  21.247  0.00  0.00    +0.000 A 
ATOM      9  N   UNL     1       1.391   7.844  20.981  0.00  0.00    +0.000 NA
ATOM     10  C   UNL     1       1.882   7.855  19.733  0.00  0.00    +0.000 A 
ATOM     11  C   UNL     1       1.767   8.873  18.801  0.00  0.00    +0.000 A 
ATOM     12  N   UNL     1       2.427   8.544  17.633  0.00  0.00    +0.000 NA
ATOM     13  C   UNL     1       2.929   7.347  17.857  0.00  0.00    +0.000 A 
ATOM     14  N   UNL     1       2.617   6.884  19.110  0.00  0.00    +0.000 N 
BRANCH   6  15
ATOM     15  N   UNL     1       0.871  11.106  18.329  0.00  0.00    +0.000 N 
ATOM     16  H   UNL     1       1.688  11.227  17.727  0.00  0.00    +0.000 HD
BRANCH  15  17
ATOM     17  C   UNL     1       0.411  12.354  18.930  0.00  0.00    +0.000 C 
BRANCH  17  18
ATOM     18  C   UNL     1      -0.822  12.896  18.198  0.00  0.00    +0.000 C 
BRANCH  18  20
ATOM     19  C   UNL     1      -2.164  12.365  20.064  0.00  0.00    +0.000 C 
ATOM     20  O   UNL     1      -1.991  12.209  18.662  0.00  0.00    +0.000 OA
ENDBRANCH  18  20
ENDBRANCH  17  18
ENDBRANCH  15  17
ENDBRANCH   6  15
ENDBRANCH   1  14
BRANCH   4  21
ATOM     21  O   UNL     1       3.419   2.792  20.540  0.00  0.00    +0.000 OA
ATOM     22  H   UNL     1       2.585   2.301  20.660  0.00  0.00    +0.000 HD
ENDBRANCH   4  21
BRANCH   5  23
ATOM     23  O   UNL     1       1.219   4.034  19.880  0.00  0.00    +0.000 OA
ATOM     24  H   UNL     1       0.942   3.146  19.569  0.00  0.00    +0.000 HD
ENDBRANCH   5  23
BRANCH   3  25
ATOM     25  C   UNL     1       5.172   4.158  17.490  0.00  0.00    +0.000 C 
BRANCH  25  26
ATOM     26  O   UNL     1       5.681   5.452  17.177  0.00  0.00    +0.000 OA
BRANCH  26  27
ATOM     27  S   UNL     1       7.149   5.519  16.487  0.00  0.00    +0.000 S 
ATOM     28  O   UNL     1       7.637   6.867  16.630  0.00  0.00    +0.000 OA
ATOM     29  O   UNL     1       7.909   4.368  16.916  0.00  0.00    +0.000 OA
BRANCH  27  30
ATOM     30  N   UNL     1       6.799   5.301  14.871  0.00  0.00    +0.000 NA
ATOM     31  H   UNL     1       6.933   6.157  14.341  0.00  0.00    +0.000 HD
ATOM     32  H   UNL     1       5.896   4.853  14.741  0.00  0.00    +0.000 HD
ENDBRANCH  27  30
ENDBRANCH  26  27
ENDBRANCH  25  26
ENDBRANCH   3  25
TORSDOF 11
ENDMDL
MODEL 5
REMARK VINA RESULT:      -6.8      0.966      1.366
REMARK  Name = 
REMARK  12 active torsions:
REMARK  status: ('A' for Active; 'I' for Inactive)
REMARK    1  A    between atoms: C_1  and  O_2
REMARK    2  A    between atoms: O_2  and  C_3
REMARK    3  A    between atoms: C_3  and  C_4
REMARK    4  A    between atoms: C_4  and  N_5
REMARK    5  A    between atoms: N_5  and  C_6
REMARK    6  A    between atoms: N_14  and  C_15
REMARK    7  A    between atoms: C_17  and  C_18
REMARK    8  A    between atoms: C_18  and  O_19
REMARK    9  A    between atoms: O_19  and  S_20
REMARK   10  A    between atoms: S_20  and  N_21
REMARK   11  A    between atoms: C_24  and  O_25
REMARK   12  A    between atoms: C_26  and  O_27
REMARK                            x       y       z     vdW  Elec       q    Type
REMARK                         _______ _______ _______ _____ _____    ______ ____
ROOT
ATOM      1  C   UNL     1       3.569   5.518  18.947  0.00  0.00    +0.000 C 
ATOM      2  O   UNL     1       4.943   5.724  19.338  0.00  0.00    +0.000 OA
ATOM      3  C   UNL     1       5.771   4.730  18.685  0.00  0.00    +0.000 C 
ATOM      4  C   UNL     1       4.811   3.687  18.114  0.00  0.00    +0.000 C 
ATOM      5  C   UNL     1       3.545   4.480  17.827  0.00  0.00    +0.000 C 
ENDROOT
BRANCH   1  14
ATOM      6  C   UNL     1       1.068   9.678  19.232  0.00  0.00    +0.000 A 
ATOM      7  N   UNL     1       0.605   9.446  20.488  0.00  0.00    +0.000 NA
ATOM      8  C   UNL     1       0.931   8.293  21.104  0.00  0.00    +0.000 A 
ATOM      9  N   UNL     1       1.718   7.300  20.645  0.00  0.00    +0.000 NA
ATOM     10  C   UNL     1       2.148   7.559  19.401  0.00  0.00    +0.000 A 
ATOM     11  C   UNL     1       1.880   8.687  18.643  0.00  0.00    +0.000 A 
ATOM     12  N   UNL     1       2.518   8.617  17.420  0.00  0.00    +0.000 NA
ATOM     13  C   UNL     1       3.157   7.466  17.440  0.00  0.00    +0.000 A 
ATOM     14  N   UNL     1       2.955   6.785  18.614  0.00  0.00    +0.000 N 
BRANCH   6  15
ATOM     15  N   UNL     1       0.726  10.848  18.553  0.00  0.00    +0.000 N 
ATOM     16  H   UNL     1       1.298  11.630  18.878  0.00  0.00    +0.000 HD
BRANCH  15  17
ATOM     17  C   UNL     1      -0.696  11.169  18.476  0.00  0.00    +0.000 C 
BRANCH  17  18
ATOM     18  C   UNL     1      -0.972  12.579  19.011  0.00  0.00    +0.000 C 
BRANCH  18  20
ATOM     19  C   UNL     1      -0.198  14.803  18.869  0.00  0.00    +0.000 C 
ATOM     20  O   UNL     1      -0.246  13.535  18.228  0.00  0.00    +0.000 OA
ENDBRANCH  18  20
ENDBRANCH  17  18
ENDBRANCH  15  17
ENDBRANCH   6  15
ENDBRANCH   1  14
BRANCH   4  21
ATOM     21  O   UNL     1       4.483   2.678  19.091  0.00  0.00    +0.000 OA
ATOM     22  H   UNL     1       4.191   3.112  19.914  0.00  0.00    +0.000 HD
ENDBRANCH   4  21
BRANCH   5  23
ATOM     23  O   UNL     1       2.381   3.652  17.888  0.00  0.00    +0.000 OA
ATOM     24  H   UNL     1       2.261   3.280  16.989  0.00  0.00    +0.000 HD
ENDBRANCH   5  23
BRANCH   3  25
ATOM     25  C   UNL     1       6.652   5.395  17.623  0.00  0.00    +0.000 C 
BRANCH  25  26
ATOM     26  O   UNL     1       7.012   4.428  16.640  0.00  0.00    +0.000 OA
BRANCH  26  27
ATOM     27  S   UNL     1       6.739   4.817  15.088  0.00  0.00    +0.000 S 
ATOM     28  O   UNL     1       7.913   5.490  14.594  0.00  0.00    +0.000 OA
ATOM     29  O   UNL     1       6.164   3.671  14.423  0.00  0.00    +0.000 OA
BRANCH  27  30
ATOM     30  N   UNL     1       5.538   5.968  15.210  0.00  0.00    +0.000 NA
ATOM     31  H   UNL     1       4.614   5.553  15.132  0.00  0.00    +0.000 HD
ATOM     32  H   UNL     1       5.710   6.755  14.590  0.00  0.00    +0.000 HD
ENDBRANCH  27  30
ENDBRANCH  26  27
ENDBRANCH  25  26
ENDBRANCH   3  25
TORSDOF 11
ENDMDL
MODEL 6
REMARK VINA RESULT:      -6.8      1.151      1.302
REMARK  Name = 
REMARK  12 active torsions:
REMARK  status: ('A' for Active; 'I' for Inactive)
REMARK    1  A    between atoms: C_1  and  O_2
REMARK    2  A    between atoms: O_2  and  C_3
REMARK    3  A    between atoms: C_3  and  C_4
REMARK    4  A    between atoms: C_4  and  N_5
REMARK    5  A    between atoms: N_5  and  C_6
REMARK    6  A    between atoms: N_14  and  C_15
REMARK    7  A    between atoms: C_17  and  C_18
REMARK    8  A    between atoms: C_18  and  O_19
REMARK    9  A    between atoms: O_19  and  S_20
REMARK   10  A    between atoms: S_20  and  N_21
REMARK   11  A    between atoms: C_24  and  O_25
REMARK   12  A    between atoms: C_26  and  O_27
REMARK                            x       y       z     vdW  Elec       q    Type
REMARK                         _______ _______ _______ _____ _____    ______ ____
ROOT
ATOM      1  C   UNL     1       3.275   6.117  19.194  0.00  0.00    +0.000 C 
ATOM      2  O   UNL     1       4.556   6.105  18.528  0.00  0.00    +0.000 OA
ATOM      3  C   UNL     1       4.770   4.797  17.943  0.00  0.00    +0.000 C 
ATOM      4  C   UNL     1       3.702   3.884  18.544  0.00  0.00    +0.000 C 
ATOM      5  C   UNL     1       2.543   4.825  18.834  0.00  0.00    +0.000 C 
ENDROOT
BRANCH   1  14
ATOM      6  C   UNL     1       0.481  10.083  19.513  0.00  0.00    +0.000 A 
ATOM      7  N   UNL     1       0.072   9.832  20.784  0.00  0.00    +0.000 NA
ATOM      8  C   UNL     1       0.500   8.712  21.401  0.00  0.00    +0.000 A 
ATOM      9  N   UNL     1       1.346   7.776  20.929  0.00  0.00    +0.000 NA
ATOM     10  C   UNL     1       1.720   8.051  19.670  0.00  0.00    +0.000 A 
ATOM     11  C   UNL     1       1.347   9.148  18.910  0.00  0.00    +0.000 A 
ATOM     12  N   UNL     1       1.954   9.112  17.669  0.00  0.00    +0.000 NA
ATOM     13  C   UNL     1       2.677   8.012  17.681  0.00  0.00    +0.000 A 
ATOM     14  N   UNL     1       2.560   7.331  18.866  0.00  0.00    +0.000 N 
BRANCH   6  15
ATOM     15  N   UNL     1       0.034  11.216  18.834  0.00  0.00    +0.000 N 
ATOM     16  H   UNL     1       0.304  12.064  19.336  0.00  0.00    +0.000 HD
BRANCH  15  17
ATOM     17  C   UNL     1      -1.364  11.219  18.413  0.00  0.00    +0.000 C 
BRANCH  17  18
ATOM     18  C   UNL     1      -1.587  10.271  17.231  0.00  0.00    +0.000 C 
BRANCH  18  20
ATOM     19  C   UNL     1      -3.187  10.164  15.501  0.00  0.00    +0.000 C 
ATOM     20  O   UNL     1      -2.982  10.235  16.905  0.00  0.00    +0.000 OA
ENDBRANCH  18  20
ENDBRANCH  17  18
ENDBRANCH  15  17
ENDBRANCH   6  15
ENDBRANCH   1  14
BRANCH   4  21
ATOM     21  O   UNL     1       4.133   3.320  19.799  0.00  0.00    +0.000 OA
ATOM     22  H   UNL     1       4.561   4.016  20.333  0.00  0.00    +0.000 HD
ENDBRANCH   4  21
BRANCH   5  23
ATOM     23  O   UNL     1       1.736   4.349  19.914  0.00  0.00    +0.000 OA
ATOM     24  H   UNL     1       0.856   4.767  19.804  0.00  0.00    +0.000 HD
ENDBRANCH   5  23
BRANCH   3  25
ATOM     25  C   UNL     1       4.705   4.888  16.415  0.00  0.00    +0.000 C 
BRANCH  25  26
ATOM     26  O   UNL     1       5.816   5.645  15.943  0.00  0.00    +0.000 OA
BRANCH  26  27
ATOM     27  S   UNL     1       7.077   4.811  15.350  0.00  0.00    +0.000 S 
ATOM     28  O   UNL     1       7.649   5.588  14.280  0.00  0.00    +0.000 OA
ATOM     29  O   UNL     1       7.863   4.320  16.459  0.00  0.00    +0.000 OA
BRANCH  27  30
ATOM     30  N   UNL     1       6.340   3.491  14.648  0.00  0.00    +0.000 NA
ATOM     31  H   UNL     1       5.476   3.750  14.179  0.00  0.00    +0.000 HD
ATOM     32  H   UNL     1       6.258   2.716  15.301  0.00  0.00    +0.000 HD
ENDBRANCH  27  30
ENDBRANCH  26  27
ENDBRANCH  25  26
ENDBRANCH   3  25
TORSDOF 11
ENDMDL
MODEL 7
REMARK VINA RESULT:      -6.8      1.055      1.228
REMARK  Name = 
REMARK  12 active torsions:
REMARK  status: ('A' for Active; 'I' for Inactive)
REMARK    1  A    between atoms: C_1  and  O_2
REMARK    2  A    between atoms: O_2  and  C_3
REMARK    3  A    between atoms: C_3  and  C_4
REMARK    4  A    between atoms: C_4  and  N_5
REMARK    5  A    between atoms: N_5  and  C_6
REMARK    6  A    between atoms: N_14  and  C_15
REMARK    7  A    between atoms: C_17  and  C_18
REMARK    8  A    between atoms: C_18  and  O_19
REMARK    9  A    between atoms: O_19  and  S_20
REMARK   10  A    between atoms: S_20  and  N_21
REMARK   11  A    between atoms: C_24  and  O_25
REMARK   12  A    between atoms: C_26  and  O_27
REMARK                            x       y       z     vdW  Elec       q    Type
REMARK                         _______ _______ _______ _____ _____    ______ ____
ROOT
ATOM      1  C   UNL     1       3.358   5.598  19.450  0.00  0.00    +0.000 C 
ATOM      2  O   UNL     1       4.680   5.398  18.905  0.00  0.00    +0.000 OA
ATOM      3  C   UNL     1       4.804   4.022  18.467  0.00  0.00    +0.000 C 
ATOM      4  C   UNL     1       3.604   3.279  19.056  0.00  0.00    +0.000 C 
ATOM      5  C   UNL     1       2.528   4.350  19.152  0.00  0.00    +0.000 C 
ENDROOT
BRANCH   1  14
ATOM      6  C   UNL     1       0.974   9.824  19.145  0.00  0.00    +0.000 A 
ATOM      7  N   UNL     1       0.449   9.750  20.396  0.00  0.00    +0.000 NA
ATOM      8  C   UNL     1       0.713   8.666  21.153  0.00  0.00    +0.000 A 
ATOM      9  N   UNL     1       1.489   7.608  20.847  0.00  0.00    +0.000 NA
ATOM     10  C   UNL     1       1.981   7.712  19.603  0.00  0.00    +0.000 A 
ATOM     11  C   UNL     1       1.781   8.753  18.711  0.00  0.00    +0.000 A 
ATOM     12  N   UNL     1       2.470   8.528  17.535  0.00  0.00    +0.000 NA
ATOM     13  C   UNL     1       3.072   7.371  17.715  0.00  0.00    +0.000 A 
ATOM     14  N   UNL     1       2.798   6.833  18.947  0.00  0.00    +0.000 N 
BRANCH   6  15
ATOM     15  N   UNL     1       0.698  10.918  18.323  0.00  0.00    +0.000 N 
ATOM     16  H   UNL     1       1.562  11.297  17.931  0.00  0.00    +0.000 HD
BRANCH  15  17
ATOM     17  C   UNL     1      -0.183  11.944  18.872  0.00  0.00    +0.000 C 
BRANCH  17  18
ATOM     18  C   UNL     1      -1.595  11.830  18.286  0.00  0.00    +0.000 C 
BRANCH  18  20
ATOM     19  C   UNL     1      -2.811   9.947  17.548  0.00  0.00    +0.000 C 
ATOM     20  O   UNL     1      -1.640  10.732  17.365  0.00  0.00    +0.000 OA
ENDBRANCH  18  20
ENDBRANCH  17  18
ENDBRANCH  15  17
ENDBRANCH   6  15
ENDBRANCH   1  14
BRANCH   4  21
ATOM     21  O   UNL     1       3.876   2.811  20.392  0.00  0.00    +0.000 OA
ATOM     22  H   UNL     1       4.281   3.532  20.909  0.00  0.00    +0.000 HD
ENDBRANCH   4  21
BRANCH   5  23
ATOM     23  O   UNL     1       1.595   4.066  20.196  0.00  0.00    +0.000 OA
ATOM     24  H   UNL     1       0.742   4.463  19.918  0.00  0.00    +0.000 HD
ENDBRANCH   5  23
BRANCH   3  25
ATOM     25  C   UNL     1       4.870   3.960  16.938  0.00  0.00    +0.000 C 
BRANCH  25  26
ATOM     26  O   UNL     1       6.201   4.241  16.514  0.00  0.00    +0.000 OA
BRANCH  26  27
ATOM     27  S   UNL     1       6.373   5.105  15.151  0.00  0.00    +0.000 S 
ATOM     28  O   UNL     1       5.409   6.175  15.188  0.00  0.00    +0.000 OA
ATOM     29  O   UNL     1       7.782   5.338  14.931  0.00  0.00    +0.000 OA
BRANCH  27  30
ATOM     30  N   UNL     1       5.864   4.035  13.978  0.00  0.00    +0.000 NA
ATOM     31  H   UNL     1       5.273   3.306  14.368  0.00  0.00    +0.000 HD
ATOM     32  H   UNL     1       6.640   3.702  13.412  0.00  0.00    +0.000 HD
ENDBRANCH  27  30
ENDBRANCH  26  27
ENDBRANCH  25  26
ENDBRANCH   3  25
TORSDOF 11
ENDMDL
MODEL 8
REMARK VINA RESULT:      -6.8      1.902      2.409
REMARK  Name = 
REMARK  12 active torsions:
REMARK  status: ('A' for Active; 'I' for Inactive)
REMARK    1  A    between atoms: C_1  and  O_2
REMARK    2  A    between atoms: O_2  and  C_3
REMARK    3  A    between atoms: C_3  and  C_4
REMARK    4  A    between atoms: C_4  and  N_5
REMARK    5  A    between atoms: N_5  and  C_6
REMARK    6  A    between atoms: N_14  and  C_15
REMARK    7  A    between atoms: C_17  and  C_18
REMARK    8  A    between atoms: C_18  and  O_19
REMARK    9  A    between atoms: O_19  and  S_20
REMARK   10  A    between atoms: S_20  and  N_21
REMARK   11  A    between atoms: C_24  and  O_25
REMARK   12  A    between atoms: C_26  and  O_27
REMARK                            x       y       z     vdW  Elec       q    Type
REMARK                         _______ _______ _______ _____ _____    ______ ____
ROOT
ATOM      1  C   UNL     1       3.172   5.855  19.355  0.00  0.00    +0.000 C 
ATOM      2  O   UNL     1       4.482   5.654  18.784  0.00  0.00    +0.000 OA
ATOM      3  C   UNL     1       4.583   4.289  18.310  0.00  0.00    +0.000 C 
ATOM      4  C   UNL     1       3.385   3.545  18.899  0.00  0.00    +0.000 C 
ATOM      5  C   UNL     1       2.323   4.625  19.039  0.00  0.00    +0.000 C 
ENDROOT
BRANCH   1  14
ATOM      6  C   UNL     1       0.886  10.144  19.211  0.00  0.00    +0.000 A 
ATOM      7  N   UNL     1       0.427  10.071  20.488  0.00  0.00    +0.000 NA
ATOM      8  C   UNL     1       0.702   8.974  21.221  0.00  0.00    +0.000 A 
ATOM      9  N   UNL     1       1.433   7.900  20.866  0.00  0.00    +0.000 NA
ATOM     10  C   UNL     1       1.861   8.002  19.598  0.00  0.00    +0.000 A 
ATOM     11  C   UNL     1       1.640   9.056  18.727  0.00  0.00    +0.000 A 
ATOM     12  N   UNL     1       2.259   8.825  17.514  0.00  0.00    +0.000 NA
ATOM     13  C   UNL     1       2.840   7.651  17.652  0.00  0.00    +0.000 A 
ATOM     14  N   UNL     1       2.618   7.109  18.893  0.00  0.00    +0.000 N 
BRANCH   6  15
ATOM     15  N   UNL     1       0.595  11.251  18.414  0.00  0.00    +0.000 N 
ATOM     16  H   UNL     1       0.758  11.035  17.429  0.00  0.00    +0.000 HD
BRANCH  15  17
ATOM     17  C   UNL     1       1.175  12.526  18.826  0.00  0.00    +0.000 C 
BRANCH  17  18
ATOM     18  C   UNL     1       2.557  12.732  18.196  0.00  0.00    +0.000 C 
BRANCH  18  20
ATOM     19  C   UNL     1       3.845  14.608  18.820  0.00  0.00    +0.000 C 
ATOM     20  O   UNL     1       2.787  14.133  17.999  0.00  0.00    +0.000 OA
ENDBRANCH  18  20
ENDBRANCH  17  18
ENDBRANCH  15  17
ENDBRANCH   6  15
ENDBRANCH   1  14
BRANCH   4  21
ATOM     21  O   UNL     1       3.672   3.040  20.219  0.00  0.00    +0.000 OA
ATOM     22  H   UNL     1       4.051   2.144  20.143  0.00  0.00    +0.000 HD
ENDBRANCH   4  21
BRANCH   5  23
ATOM     23  O   UNL     1       1.403   4.325  20.091  0.00  0.00    +0.000 OA
ATOM     24  H   UNL     1       1.185   3.372  20.002  0.00  0.00    +0.000 HD
ENDBRANCH   5  23
BRANCH   3  25
ATOM     25  C   UNL     1       4.624   4.265  16.779  0.00  0.00    +0.000 C 
BRANCH  25  26
ATOM     26  O   UNL     1       5.963   4.037  16.349  0.00  0.00    +0.000 OA
BRANCH  26  27
ATOM     27  S   UNL     1       6.877   5.346  16.059  0.00  0.00    +0.000 S 
ATOM     28  O   UNL     1       7.640   5.618  17.250  0.00  0.00    +0.000 OA
ATOM     29  O   UNL     1       7.492   5.197  14.760  0.00  0.00    +0.000 OA
BRANCH  27  30
ATOM     30  N   UNL     1       5.740   6.559  15.926  0.00  0.00    +0.000 NA
ATOM     31  H   UNL     1       5.603   6.839  14.959  0.00  0.00    +0.000 HD
ATOM     32  H   UNL     1       5.928   7.321  16.572  0.00  0.00    +0.000 HD
ENDBRANCH  27  30
ENDBRANCH  26  27
ENDBRANCH  25  26
ENDBRANCH   3  25
TORSDOF 11
ENDMDL
MODEL 9
REMARK VINA RESULT:      -6.7      1.331      1.601
REMARK  Name = 
REMARK  12 active torsions:
REMARK  status: ('A' for Active; 'I' for Inactive)
REMARK    1  A    between atoms: C_1  and  O_2
REMARK    2  A    between atoms: O_2  and  C_3
REMARK    3  A    between atoms: C_3  and  C_4
REMARK    4  A    between atoms: C_4  and  N_5
REMARK    5  A    between atoms: N_5  and  C_6
REMARK    6  A    between atoms: N_14  and  C_15
REMARK    7  A    between atoms: C_17  and  C_18
REMARK    8  A    between atoms: C_18  and  O_19
REMARK    9  A    between atoms: O_19  and  S_20
REMARK   10  A    between atoms: S_20  and  N_21
REMARK   11  A    between atoms: C_24  and  O_25
REMARK   12  A    between atoms: C_26  and  O_27
REMARK                            x       y       z     vdW  Elec       q    Type
REMARK                         _______ _______ _______ _____ _____    ______ ____
ROOT
ATOM      1  C   UNL     1       3.054   5.650  19.628  0.00  0.00    +0.000 C 
ATOM      2  O   UNL     1       4.404   5.382  19.194  0.00  0.00    +0.000 OA
ATOM      3  C   UNL     1       4.494   4.001  18.765  0.00  0.00    +0.000 C 
ATOM      4  C   UNL     1       3.213   3.322  19.250  0.00  0.00    +0.000 C 
ATOM      5  C   UNL     1       2.189   4.447  19.258  0.00  0.00    +0.000 C 
ENDROOT
BRANCH   1  14
ATOM      6  C   UNL     1       1.042  10.054  19.177  0.00  0.00    +0.000 A 
ATOM      7  N   UNL     1       0.513  10.066  20.429  0.00  0.00    +0.000 NA
ATOM      8  C   UNL     1       0.683   8.989  21.221  0.00  0.00    +0.000 A 
ATOM      9  N   UNL     1       1.365   7.859  20.953  0.00  0.00    +0.000 NA
ATOM     10  C   UNL     1       1.864   7.879  19.707  0.00  0.00    +0.000 A 
ATOM     11  C   UNL     1       1.754   8.903  18.781  0.00  0.00    +0.000 A 
ATOM     12  N   UNL     1       2.421   8.581  17.615  0.00  0.00    +0.000 NA
ATOM     13  C   UNL     1       2.922   7.384  17.834  0.00  0.00    +0.000 A 
ATOM     14  N   UNL     1       2.603   6.912  19.083  0.00  0.00    +0.000 N 
BRANCH   6  15
ATOM     15  N   UNL     1       0.861  11.139  18.319  0.00  0.00    +0.000 N 
ATOM     16  H   UNL     1       1.753  11.423  17.909  0.00  0.00    +0.000 HD
BRANCH  15  17
ATOM     17  C   UNL     1       0.084  12.261  18.837  0.00  0.00    +0.000 C 
BRANCH  17  18
ATOM     18  C   UNL     1      -1.304  12.316  18.187  0.00  0.00    +0.000 C 
BRANCH  18  20
ATOM     19  C   UNL     1      -2.595  12.569  20.145  0.00  0.00    +0.000 C 
ATOM     20  O   UNL     1      -2.263  11.710  19.063  0.00  0.00    +0.000 OA
ENDBRANCH  18  20
ENDBRANCH  17  18
ENDBRANCH  15  17
ENDBRANCH   6  15
ENDBRANCH   1  14
BRANCH   4  21
ATOM     21  O   UNL     1       3.347   2.842  20.603  0.00  0.00    +0.000 OA
ATOM     22  H   UNL     1       3.670   3.568  21.169  0.00  0.00    +0.000 HD
ENDBRANCH   4  21
BRANCH   5  23
ATOM     23  O   UNL     1       1.158   4.212  20.220  0.00  0.00    +0.000 OA
ATOM     24  H   UNL     1       0.423   4.819  19.988  0.00  0.00    +0.000 HD
ENDBRANCH   5  23
BRANCH   3  25
ATOM     25  C   UNL     1       4.684   3.933  17.247  0.00  0.00    +0.000 C 
BRANCH  25  26
ATOM     26  O   UNL     1       5.827   4.702  16.882  0.00  0.00    +0.000 OA
BRANCH  26  27
ATOM     27  S   UNL     1       5.868   5.289  15.369  0.00  0.00    +0.000 S 
ATOM     28  O   UNL     1       5.352   4.268  14.492  0.00  0.00    +0.000 OA
ATOM     29  O   UNL     1       5.344   6.635  15.386  0.00  0.00    +0.000 OA
BRANCH  27  30
ATOM     30  N   UNL     1       7.504   5.402  15.070  0.00  0.00    +0.000 NA
ATOM     31  H   UNL     1       7.845   4.599  14.549  0.00  0.00    +0.000 HD
ATOM     32  H   UNL     1       8.026   5.617  15.916  0.00  0.00    +0.000 HD
ENDBRANCH  27  30
ENDBRANCH  26  27
ENDBRANCH  25  26
ENDBRANCH   3  25
TORSDOF 11
ENDMDL
