MODEL 1
REMARK VINA RESULT:      -8.3      0.000      0.000
REMARK  Name = 
REMARK  3 active torsions:
REMARK  status: ('A' for Active; 'I' for Inactive)
REMARK    1  A    between atoms: C_1  and  N_2
REMARK    2  A    between atoms: N_5  and  C_6
REMARK    3  A    between atoms: C_8  and  C_9
REMARK                            x       y       z     vdW  Elec       q    Type
REMARK                         _______ _______ _______ _____ _____    ______ ____
ROOT
ATOM      1  C   UNL     1       3.632   5.913  18.900  0.00  0.00    +0.000 A 
ATOM      2  N   UNL     1       3.015   7.088  19.138  0.00  0.00    +0.000 NA
ATOM      3  C   UNL     1       2.064   7.105  20.093  0.00  0.00    +0.000 A 
ATOM      4  N   UNL     1       1.689   6.037  20.820  0.00  0.00    +0.000 NA
ATOM      5  C   UNL     1       2.329   4.888  20.608  0.00  0.00    +0.000 A 
ATOM      6  C   UNL     1       1.990   3.784  21.385  0.00  0.00    +0.000 A 
ATOM      7  C   UNL     1       2.637   2.552  21.246  0.00  0.00    +0.000 A 
ATOM      8  C   UNL     1       3.663   2.417  20.328  0.00  0.00    +0.000 A 
ATOM      9  C   UNL     1       4.023   3.515  19.557  0.00  0.00    +0.000 A 
ATOM     10  C   UNL     1       3.341   4.756  19.656  0.00  0.00    +0.000 A 
ENDROOT
BRANCH   1  15
ATOM     11  C   UNL     1       7.189   4.830  14.794  0.00  0.00    +0.000 C 
ATOM     12  N   UNL     1       6.647   5.649  15.878  0.00  0.00    +0.000 NA
ATOM     13  C   UNL     1       6.739   4.918  17.172  0.00  0.00    +0.000 C 
ATOM     14  C   UNL     1       6.024   5.636  18.354  0.00  0.00    +0.000 C 
ATOM     15  N   UNL     1       4.638   5.863  17.943  0.00  0.00    +0.000 N 
ATOM     16  C   UNL     1       4.551   6.741  16.767  0.00  0.00    +0.000 C 
ATOM     17  C   UNL     1       5.237   6.007  15.588  0.00  0.00    +0.000 C 
ENDBRANCH   1  15
BRANCH   3  18
ATOM     18  C   UNL     1       1.383   8.385  20.402  0.00  0.00    +0.000 A 
ATOM     19  C   UNL     1       0.963   8.710  21.706  0.00  0.00    +0.000 A 
ATOM     20  C   UNL     1       0.310   9.919  21.984  0.00  0.00    +0.000 A 
ATOM     21  C   UNL     1       0.061  10.833  20.965  0.00  0.00    +0.000 A 
ATOM     22  C   UNL     1       0.462  10.542  19.665  0.00  0.00    +0.000 A 
ATOM     23  C   UNL     1       1.114   9.335  19.391  0.00  0.00    +0.000 A 
ENDBRANCH   3  18
TORSDOF 2
ENDMDL
MODEL 2
REMARK VINA RESULT:      -8.3      0.035      1.003
REMARK  Name = 
REMARK  3 active torsions:
REMARK  status: ('A' for Active; 'I' for Inactive)
REMARK    1  A    between atoms: C_1  and  N_2
REMARK    2  A    between atoms: N_5  and  C_6
REMARK    3  A    between atoms: C_8  and  C_9
REMARK                            x       y       z     vdW  Elec       q    Type
REMARK                         _______ _______ _______ _____ _____    ______ ____
ROOT
ATOM      1  C   UNL     1       3.615   5.919  18.914  0.00  0.00    +0.000 A 
ATOM      2  N   UNL     1       2.998   7.094  19.152  0.00  0.00    +0.000 NA
ATOM      3  C   UNL     1       2.042   7.109  20.102  0.00  0.00    +0.000 A 
ATOM      4  N   UNL     1       1.662   6.040  20.824  0.00  0.00    +0.000 NA
ATOM      5  C   UNL     1       2.302   4.891  20.612  0.00  0.00    +0.000 A 
ATOM      6  C   UNL     1       1.957   3.785  21.384  0.00  0.00    +0.000 A 
ATOM      7  C   UNL     1       2.603   2.553  21.246  0.00  0.00    +0.000 A 
ATOM      8  C   UNL     1       3.635   2.419  20.333  0.00  0.00    +0.000 A 
ATOM      9  C   UNL     1       4.000   3.519  19.567  0.00  0.00    +0.000 A 
ATOM     10  C   UNL     1       3.318   4.760  19.666  0.00  0.00    +0.000 A 
ENDROOT
BRANCH   1  15
ATOM     11  C   UNL     1       7.186   4.851  14.816  0.00  0.00    +0.000 C 
ATOM     12  N   UNL     1       6.646   5.661  15.908  0.00  0.00    +0.000 NA
ATOM     13  C   UNL     1       6.722   4.912  17.192  0.00  0.00    +0.000 C 
ATOM     14  C   UNL     1       6.008   5.623  18.379  0.00  0.00    +0.000 C 
ATOM     15  N   UNL     1       4.627   5.870  17.963  0.00  0.00    +0.000 N 
ATOM     16  C   UNL     1       4.557   6.765  16.798  0.00  0.00    +0.000 C 
ATOM     17  C   UNL     1       5.242   6.038  15.614  0.00  0.00    +0.000 C 
ENDBRANCH   1  15
BRANCH   3  18
ATOM     18  C   UNL     1       1.360   8.389  20.410  0.00  0.00    +0.000 A 
ATOM     19  C   UNL     1       1.093   9.349  19.415  0.00  0.00    +0.000 A 
ATOM     20  C   UNL     1       0.457  10.561  19.720  0.00  0.00    +0.000 A 
ATOM     21  C   UNL     1       0.073  10.843  21.027  0.00  0.00    +0.000 A 
ATOM     22  C   UNL     1       0.323   9.915  22.034  0.00  0.00    +0.000 A 
ATOM     23  C   UNL     1       0.957   8.707  21.726  0.00  0.00    +0.000 A 
ENDBRANCH   3  18
TORSDOF 2
ENDMDL
MODEL 3
REMARK VINA RESULT:      -8.0      0.940      1.284
REMARK  Name = 
REMARK  3 active torsions:
REMARK  status: ('A' for Active; 'I' for Inactive)
REMARK    1  A    between atoms: C_1  and  N_2
REMARK    2  A    between atoms: N_5  and  C_6
REMARK    3  A    between atoms: C_8  and  C_9
REMARK                            x       y       z     vdW  Elec       q    Type
REMARK                         _______ _______ _______ _____ _____    ______ ____
ROOT
ATOM      1  C   UNL     1       3.756   5.327  18.577  0.00  0.00    +0.000 A 
ATOM      2  N   UNL     1       3.228   6.568  18.586  0.00  0.00    +0.000 NA
ATOM      3  C   UNL     1       2.315   6.845  19.539  0.00  0.00    +0.000 A 
ATOM      4  N   UNL     1       1.895   5.974  20.474  0.00  0.00    +0.000 NA
ATOM      5  C   UNL     1       2.448   4.763  20.484  0.00  0.00    +0.000 A 
ATOM      6  C   UNL     1       2.063   3.864  21.475  0.00  0.00    +0.000 A 
ATOM      7  C   UNL     1       2.620   2.585  21.574  0.00  0.00    +0.000 A 
ATOM      8  C   UNL     1       3.601   2.194  20.680  0.00  0.00    +0.000 A 
ATOM      9  C   UNL     1       4.006   3.087  19.696  0.00  0.00    +0.000 A 
ATOM     10  C   UNL     1       3.414   4.369  19.557  0.00  0.00    +0.000 A 
ENDROOT
BRANCH   1  15
ATOM     11  C   UNL     1       7.356   4.991  14.381  0.00  0.00    +0.000 C 
ATOM     12  N   UNL     1       6.728   4.511  15.612  0.00  0.00    +0.000 NA
ATOM     13  C   UNL     1       5.277   4.260  15.387  0.00  0.00    +0.000 C 
ATOM     14  C   UNL     1       4.488   3.920  16.685  0.00  0.00    +0.000 C 
ATOM     15  N   UNL     1       4.721   5.014  17.629  0.00  0.00    +0.000 N 
ATOM     16  C   UNL     1       6.142   5.135  17.988  0.00  0.00    +0.000 C 
ATOM     17  C   UNL     1       6.916   5.505  16.697  0.00  0.00    +0.000 C 
ENDBRANCH   1  15
BRANCH   3  18
ATOM     18  C   UNL     1       1.733   8.208  19.597  0.00  0.00    +0.000 A 
ATOM     19  C   UNL     1       1.158   8.722  20.775  0.00  0.00    +0.000 A 
ATOM     20  C   UNL     1       0.602  10.008  20.816  0.00  0.00    +0.000 A 
ATOM     21  C   UNL     1       0.605  10.811  19.679  0.00  0.00    +0.000 A 
ATOM     22  C   UNL     1       1.165  10.332  18.499  0.00  0.00    +0.000 A 
ATOM     23  C   UNL     1       1.720   9.049  18.462  0.00  0.00    +0.000 A 
ENDBRANCH   3  18
TORSDOF 2
ENDMDL
MODEL 4
REMARK VINA RESULT:      -8.0      0.945      1.622
REMARK  Name = 
REMARK  3 active torsions:
REMARK  status: ('A' for Active; 'I' for Inactive)
REMARK    1  A    between atoms: C_1  and  N_2
REMARK    2  A    between atoms: N_5  and  C_6
REMARK    3  A    between atoms: C_8  and  C_9
REMARK                            x       y       z     vdW  Elec       q    Type
REMARK                         _______ _______ _______ _____ _____    ______ ____
ROOT
ATOM      1  C   UNL     1       3.765   5.342  18.554  0.00  0.00    +0.000 A 
ATOM      2  N   UNL     1       3.237   6.583  18.561  0.00  0.00    +0.000 NA
ATOM      3  C   UNL     1       2.327   6.863  19.515  0.00  0.00    +0.000 A 
ATOM      4  N   UNL     1       1.910   5.994  20.455  0.00  0.00    +0.000 NA
ATOM      5  C   UNL     1       2.463   4.783  20.467  0.00  0.00    +0.000 A 
ATOM      6  C   UNL     1       2.082   3.886  21.461  0.00  0.00    +0.000 A 
ATOM      7  C   UNL     1       2.640   2.608  21.562  0.00  0.00    +0.000 A 
ATOM      8  C   UNL     1       3.619   2.215  20.666  0.00  0.00    +0.000 A 
ATOM      9  C   UNL     1       4.021   3.105  19.678  0.00  0.00    +0.000 A 
ATOM     10  C   UNL     1       3.427   4.387  19.538  0.00  0.00    +0.000 A 
ENDROOT
BRANCH   1  15
ATOM     11  C   UNL     1       7.348   4.993  14.344  0.00  0.00    +0.000 C 
ATOM     12  N   UNL     1       6.728   4.519  15.581  0.00  0.00    +0.000 NA
ATOM     13  C   UNL     1       5.277   4.259  15.365  0.00  0.00    +0.000 C 
ATOM     14  C   UNL     1       4.496   3.925  16.668  0.00  0.00    +0.000 C 
ATOM     15  N   UNL     1       4.728   5.026  17.603  0.00  0.00    +0.000 N 
ATOM     16  C   UNL     1       6.150   5.157  17.955  0.00  0.00    +0.000 C 
ATOM     17  C   UNL     1       6.916   5.521  16.659  0.00  0.00    +0.000 C 
ENDBRANCH   1  15
BRANCH   3  18
ATOM     18  C   UNL     1       1.744   8.225  19.572  0.00  0.00    +0.000 A 
ATOM     19  C   UNL     1       1.730   9.076  18.450  0.00  0.00    +0.000 A 
ATOM     20  C   UNL     1       1.186  10.366  18.517  0.00  0.00    +0.000 A 
ATOM     21  C   UNL     1       0.643  10.837  19.708  0.00  0.00    +0.000 A 
ATOM     22  C   UNL     1       0.641  10.021  20.836  0.00  0.00    +0.000 A 
ATOM     23  C   UNL     1       1.184   8.734  20.764  0.00  0.00    +0.000 A 
ENDBRANCH   3  18
TORSDOF 2
ENDMDL
MODEL 5
REMARK VINA RESULT:      -7.9      1.503      6.410
REMARK  Name = 
REMARK  3 active torsions:
REMARK  status: ('A' for Active; 'I' for Inactive)
REMARK    1  A    between atoms: C_1  and  N_2
REMARK    2  A    between atoms: N_5  and  C_6
REMARK    3  A    between atoms: C_8  and  C_9
REMARK                            x       y       z     vdW  Elec       q    Type
REMARK                         _______ _______ _______ _____ _____    ______ ____
ROOT
ATOM      1  C   UNL     1       2.858   6.073  18.500  0.00  0.00    +0.000 A 
ATOM      2  N   UNL     1       3.772   6.039  17.510  0.00  0.00    +0.000 NA
ATOM      3  C   UNL     1       4.300   4.838  17.198  0.00  0.00    +0.000 A 
ATOM      4  N   UNL     1       3.981   3.679  17.802  0.00  0.00    +0.000 NA
ATOM      5  C   UNL     1       3.049   3.714  18.753  0.00  0.00    +0.000 A 
ATOM      6  C   UNL     1       2.668   2.518  19.356  0.00  0.00    +0.000 A 
ATOM      7  C   UNL     1       1.675   2.465  20.338  0.00  0.00    +0.000 A 
ATOM      8  C   UNL     1       1.023   3.626  20.717  0.00  0.00    +0.000 A 
ATOM      9  C   UNL     1       1.382   4.824  20.112  0.00  0.00    +0.000 A 
ATOM     10  C   UNL     1       2.422   4.896  19.149  0.00  0.00    +0.000 A 
ENDROOT
BRANCH   1  15
ATOM     11  C   UNL     1      -0.380  10.421  19.642  0.00  0.00    +0.000 C 
ATOM     12  N   UNL     1       0.909   9.737  19.533  0.00  0.00    +0.000 NA
ATOM     13  C   UNL     1       1.160   9.330  18.123  0.00  0.00    +0.000 C 
ATOM     14  C   UNL     1       2.423   8.439  17.940  0.00  0.00    +0.000 C 
ATOM     15  N   UNL     1       2.269   7.288  18.831  0.00  0.00    +0.000 N 
ATOM     16  C   UNL     1       2.207   7.691  20.243  0.00  0.00    +0.000 C 
ATOM     17  C   UNL     1       0.932   8.552  20.424  0.00  0.00    +0.000 C 
ENDBRANCH   1  15
BRANCH   3  18
ATOM     18  C   UNL     1       5.290   4.756  16.096  0.00  0.00    +0.000 A 
ATOM     19  C   UNL     1       6.585   5.295  16.217  0.00  0.00    +0.000 A 
ATOM     20  C   UNL     1       7.509   5.222  15.165  0.00  0.00    +0.000 A 
ATOM     21  C   UNL     1       7.159   4.608  13.966  0.00  0.00    +0.000 A 
ATOM     22  C   UNL     1       5.886   4.066  13.814  0.00  0.00    +0.000 A 
ATOM     23  C   UNL     1       4.968   4.140  14.866  0.00  0.00    +0.000 A 
ENDBRANCH   3  18
TORSDOF 2
ENDMDL
MODEL 6
REMARK VINA RESULT:      -7.9      1.500      6.441
REMARK  Name = 
REMARK  3 active torsions:
REMARK  status: ('A' for Active; 'I' for Inactive)
REMARK    1  A    between atoms: C_1  and  N_2
REMARK    2  A    between atoms: N_5  and  C_6
REMARK    3  A    between atoms: C_8  and  C_9
REMARK                            x       y       z     vdW  Elec       q    Type
REMARK                         _______ _______ _______ _____ _____    ______ ____
ROOT
ATOM      1  C   UNL     1       2.840   6.061  18.512  0.00  0.00    +0.000 A 
ATOM      2  N   UNL     1       3.749   6.029  17.517  0.00  0.00    +0.000 NA
ATOM      3  C   UNL     1       4.283   4.831  17.205  0.00  0.00    +0.000 A 
ATOM      4  N   UNL     1       3.974   3.672  17.815  0.00  0.00    +0.000 NA
ATOM      5  C   UNL     1       3.046   3.704  18.770  0.00  0.00    +0.000 A 
ATOM      6  C   UNL     1       2.676   2.508  19.379  0.00  0.00    +0.000 A 
ATOM      7  C   UNL     1       1.688   2.452  20.365  0.00  0.00    +0.000 A 
ATOM      8  C   UNL     1       1.031   3.610  20.745  0.00  0.00    +0.000 A 
ATOM      9  C   UNL     1       1.379   4.808  20.134  0.00  0.00    +0.000 A 
ATOM     10  C   UNL     1       2.415   4.883  19.166  0.00  0.00    +0.000 A 
ENDROOT
BRANCH   1  15
ATOM     11  C   UNL     1      -0.419  10.392  19.657  0.00  0.00    +0.000 C 
ATOM     12  N   UNL     1       0.874   9.717  19.543  0.00  0.00    +0.000 NA
ATOM     13  C   UNL     1       1.119   9.306  18.133  0.00  0.00    +0.000 C 
ATOM     14  C   UNL     1       2.387   8.422  17.946  0.00  0.00    +0.000 C 
ATOM     15  N   UNL     1       2.245   7.273  18.841  0.00  0.00    +0.000 N 
ATOM     16  C   UNL     1       2.189   7.681  20.253  0.00  0.00    +0.000 C 
ATOM     17  C   UNL     1       0.909   8.534  20.438  0.00  0.00    +0.000 C 
ENDBRANCH   1  15
BRANCH   3  18
ATOM     18  C   UNL     1       5.267   4.752  16.099  0.00  0.00    +0.000 A 
ATOM     19  C   UNL     1       4.949   4.164  14.860  0.00  0.00    +0.000 A 
ATOM     20  C   UNL     1       5.891   4.085  13.824  0.00  0.00    +0.000 A 
ATOM     21  C   UNL     1       7.174   4.593  14.003  0.00  0.00    +0.000 A 
ATOM     22  C   UNL     1       7.521   5.181  15.216  0.00  0.00    +0.000 A 
ATOM     23  C   UNL     1       6.578   5.258  16.247  0.00  0.00    +0.000 A 
ENDBRANCH   3  18
TORSDOF 2
ENDMDL
MODEL 7
REMARK VINA RESULT:      -7.3      3.419      7.658
REMARK  Name = 
REMARK  3 active torsions:
REMARK  status: ('A' for Active; 'I' for Inactive)
REMARK    1  A    between atoms: C_1  and  N_2
REMARK    2  A    between atoms: N_5  and  C_6
REMARK    3  A    between atoms: C_8  and  C_9
REMARK                            x       y       z     vdW  Elec       q    Type
REMARK                         _______ _______ _______ _____ _____    ______ ____
ROOT
ATOM      1  C   UNL     1       4.722   4.172  17.261  0.00  0.00    +0.000 A 
ATOM      2  N   UNL     1       4.717   3.854  15.951  0.00  0.00    +0.000 NA
ATOM      3  C   UNL     1       5.749   4.295  15.204  0.00  0.00    +0.000 A 
ATOM      4  N   UNL     1       6.777   5.027  15.672  0.00  0.00    +0.000 NA
ATOM      5  C   UNL     1       6.796   5.304  16.974  0.00  0.00    +0.000 A 
ATOM      6  C   UNL     1       7.876   6.017  17.487  0.00  0.00    +0.000 A 
ATOM      7  C   UNL     1       7.988   6.320  18.847  0.00  0.00    +0.000 A 
ATOM      8  C   UNL     1       7.013   5.885  19.728  0.00  0.00    +0.000 A 
ATOM      9  C   UNL     1       5.937   5.158  19.232  0.00  0.00    +0.000 A 
ATOM     10  C   UNL     1       5.791   4.887  17.847  0.00  0.00    +0.000 A 
ENDROOT
BRANCH   1  15
ATOM     11  C   UNL     1       1.151   2.761  21.254  0.00  0.00    +0.000 C 
ATOM     12  N   UNL     1       1.598   2.845  19.864  0.00  0.00    +0.000 NA
ATOM     13  C   UNL     1       2.870   2.091  19.684  0.00  0.00    +0.000 C 
ATOM     14  C   UNL     1       3.517   2.273  18.280  0.00  0.00    +0.000 C 
ATOM     15  N   UNL     1       3.690   3.711  18.070  0.00  0.00    +0.000 N 
ATOM     16  C   UNL     1       2.405   4.424  18.065  0.00  0.00    +0.000 C 
ATOM     17  C   UNL     1       1.782   4.265  19.475  0.00  0.00    +0.000 C 
ENDBRANCH   1  15
BRANCH   3  18
ATOM     18  C   UNL     1       5.792   3.943  13.764  0.00  0.00    +0.000 A 
ATOM     19  C   UNL     1       6.975   4.043  13.008  0.00  0.00    +0.000 A 
ATOM     20  C   UNL     1       7.001   3.717  11.644  0.00  0.00    +0.000 A 
ATOM     21  C   UNL     1       5.844   3.284  11.004  0.00  0.00    +0.000 A 
ATOM     22  C   UNL     1       4.658   3.175  11.723  0.00  0.00    +0.000 A 
ATOM     23  C   UNL     1       4.636   3.500  13.083  0.00  0.00    +0.000 A 
ENDBRANCH   3  18
TORSDOF 2
ENDMDL
MODEL 8
REMARK VINA RESULT:      -7.3      3.411      7.648
REMARK  Name = 
REMARK  3 active torsions:
REMARK  status: ('A' for Active; 'I' for Inactive)
REMARK    1  A    between atoms: C_1  and  N_2
REMARK    2  A    between atoms: N_5  and  C_6
REMARK    3  A    between atoms: C_8  and  C_9
REMARK                            x       y       z     vdW  Elec       q    Type
REMARK                         _______ _______ _______ _____ _____    ______ ____
ROOT
ATOM      1  C   UNL     1       4.703   4.176  17.268  0.00  0.00    +0.000 A 
ATOM      2  N   UNL     1       4.688   3.857  15.957  0.00  0.00    +0.000 NA
ATOM      3  C   UNL     1       5.715   4.298  15.202  0.00  0.00    +0.000 A 
ATOM      4  N   UNL     1       6.746   5.030  15.662  0.00  0.00    +0.000 NA
ATOM      5  C   UNL     1       6.775   5.308  16.964  0.00  0.00    +0.000 A 
ATOM      6  C   UNL     1       7.859   6.021  17.468  0.00  0.00    +0.000 A 
ATOM      7  C   UNL     1       7.981   6.325  18.827  0.00  0.00    +0.000 A 
ATOM      8  C   UNL     1       7.013   5.890  19.716  0.00  0.00    +0.000 A 
ATOM      9  C   UNL     1       5.934   5.163  19.229  0.00  0.00    +0.000 A 
ATOM     10  C   UNL     1       5.776   4.891  17.845  0.00  0.00    +0.000 A 
ENDROOT
BRANCH   1  15
ATOM     11  C   UNL     1       1.165   2.763  21.289  0.00  0.00    +0.000 C 
ATOM     12  N   UNL     1       1.601   2.849  19.895  0.00  0.00    +0.000 NA
ATOM     13  C   UNL     1       2.869   2.093  19.703  0.00  0.00    +0.000 C 
ATOM     14  C   UNL     1       3.504   2.276  18.293  0.00  0.00    +0.000 C 
ATOM     15  N   UNL     1       3.678   3.714  18.084  0.00  0.00    +0.000 N 
ATOM     16  C   UNL     1       2.394   4.430  18.092  0.00  0.00    +0.000 C 
ATOM     17  C   UNL     1       1.783   4.269  19.507  0.00  0.00    +0.000 C 
ENDBRANCH   1  15
BRANCH   3  18
ATOM     18  C   UNL     1       5.746   3.945  13.762  0.00  0.00    +0.000 A 
ATOM     19  C   UNL     1       4.591   3.529  13.072  0.00  0.00    +0.000 A 
ATOM     20  C   UNL     1       4.635   3.188  11.713  0.00  0.00    +0.000 A 
ATOM     21  C   UNL     1       5.835   3.254  11.011  0.00  0.00    +0.000 A 
ATOM     22  C   UNL     1       6.995   3.660  11.664  0.00  0.00    +0.000 A 
ATOM     23  C   UNL     1       6.947   4.001  13.020  0.00  0.00    +0.000 A 
ENDBRANCH   3  18
TORSDOF 2
ENDMDL
MODEL 9
REMARK VINA RESULT:      -7.1      1.510      2.160
REMARK  Name = 
REMARK  3 active torsions:
REMARK  status: ('A' for Active; 'I' for Inactive)
REMARK    1  A    between atoms: C_1  and  N_2
REMARK    2  A    between atoms: N_5  and  C_6
REMARK    3  A    between atoms: C_8  and  C_9
REMARK                            x       y       z     vdW  Elec       q    Type
REMARK                         _______ _______ _______ _____ _____    ______ ____
ROOT
ATOM      1  C   UNL     1       3.941   5.246  17.452  0.00  0.00    +0.000 A 
ATOM      2  N   UNL     1       3.504   6.493  17.722  0.00  0.00    +0.000 NA
ATOM      3  C   UNL     1       2.468   6.614  18.576  0.00  0.00    +0.000 A 
ATOM      4  N   UNL     1       1.843   5.583  19.175  0.00  0.00    +0.000 NA
ATOM      5  C   UNL     1       2.304   4.357  18.935  0.00  0.00    +0.000 A 
ATOM      6  C   UNL     1       1.704   3.281  19.583  0.00  0.00    +0.000 A 
ATOM      7  C   UNL     1       2.150   1.968  19.411  0.00  0.00    +0.000 A 
ATOM      8  C   UNL     1       3.236   1.714  18.591  0.00  0.00    +0.000 A 
ATOM      9  C   UNL     1       3.855   2.780  17.950  0.00  0.00    +0.000 A 
ATOM     10  C   UNL     1       3.380   4.111  18.081  0.00  0.00    +0.000 A 
ENDROOT
BRANCH   1  15
ATOM     11  C   UNL     1       7.950   5.490  13.638  0.00  0.00    +0.000 C 
ATOM     12  N   UNL     1       7.265   4.894  14.785  0.00  0.00    +0.000 NA
ATOM     13  C   UNL     1       5.883   4.486  14.406  0.00  0.00    +0.000 C 
ATOM     14  C   UNL     1       5.017   4.007  15.607  0.00  0.00    +0.000 C 
ATOM     15  N   UNL     1       5.025   5.083  16.599  0.00  0.00    +0.000 N 
ATOM     16  C   UNL     1       6.379   5.353  17.104  0.00  0.00    +0.000 C 
ATOM     17  C   UNL     1       7.227   5.859  15.910  0.00  0.00    +0.000 C 
ENDBRANCH   1  15
BRANCH   3  18
ATOM     18  C   UNL     1       1.976   7.970  18.917  0.00  0.00    +0.000 A 
ATOM     19  C   UNL     1       1.992   9.025  17.984  0.00  0.00    +0.000 A 
ATOM     20  C   UNL     1       1.535  10.306  18.321  0.00  0.00    +0.000 A 
ATOM     21  C   UNL     1       1.051  10.565  19.599  0.00  0.00    +0.000 A 
ATOM     22  C   UNL     1       1.023   9.545  20.546  0.00  0.00    +0.000 A 
ATOM     23  C   UNL     1       1.479   8.268  20.206  0.00  0.00    +0.000 A 
ENDBRANCH   3  18
TORSDOF 2
ENDMDL
