MODEL 1
REMARK VINA RESULT:      -7.4      0.000      0.000
REMARK  Name = 
REMARK  15 active torsions:
REMARK  status: ('A' for Active; 'I' for Inactive)
REMARK    1  A    between atoms: C_1  and  C_2
REMARK    2  A    between atoms: C_2  and  O_3
REMARK    3  A    between atoms: O_3  and  C_4
REMARK    4  A    between atoms: C_7  and  O_8
REMARK    5  A    between atoms: O_8  and  C_9
REMARK    6  A    between atoms: C_9  and  C_10
REMARK    7  A    between atoms: C_10  and  C_11
REMARK    8  A    between atoms: N_13  and  C_14
REMARK    9  A    between atoms: N_13  and  C_18
REMARK   10  A    between atoms: C_14  and  C_15
REMARK   11  A    between atoms: C_15  and  C_16
REMARK   12  A    between atoms: C_15  and  C_17
REMARK   13  A    between atoms: C_19  and  N_20
REMARK   14  A    between atoms: N_21  and  C_22
REMARK   15  A    between atoms: C_22  and  C_23
REMARK                            x       y       z     vdW  Elec       q    Type
REMARK                         _______ _______ _______ _____ _____    ______ ____
ROOT
ATOM      1  C   UNL     1       0.318  10.696  19.042  0.00  0.00    +0.000 C 
ATOM      2  O   UNL     1      -0.775  10.147  18.872  0.00  0.00    +0.000 OA
ATOM      3  N   UNL     1       0.478  11.690  20.012  0.00  0.00    +0.000 N 
ENDROOT
BRANCH   3   4
ATOM      4  C   UNL     1      -0.655  11.991  20.788  0.00  0.00    +0.000 A 
ATOM      5  C   UNL     1      -1.721  12.648  20.274  0.00  0.00    +0.000 A 
ATOM      6  N   UNL     1      -2.898  12.747  21.013  0.00  0.00    +0.000 N 
ATOM      7  C   UNL     1      -3.041  12.178  22.270  0.00  0.00    +0.000 A 
ATOM      8  O   UNL     1      -4.068  12.224  22.946  0.00  0.00    +0.000 OA
ATOM      9  N   UNL     1      -1.953  11.533  22.775  0.00  0.00    +0.000 N 
ATOM     10  C   UNL     1      -0.722  11.485  22.195  0.00  0.00    +0.000 A 
ATOM     11  O   UNL     1       0.248  11.033  22.792  0.00  0.00    +0.000 OA
ATOM     12  H   UNL     1      -2.032  11.188  23.718  0.00  0.00    +0.000 HD
BRANCH   5  13
ATOM     13  N   UNL     1      -1.673  13.148  18.973  0.00  0.00    +0.000 N 
ATOM     14  H   UNL     1      -2.400  13.836  18.803  0.00  0.00    +0.000 HD
ATOM     15  H   UNL     1      -0.756  13.498  18.718  0.00  0.00    +0.000 HD
ENDBRANCH   5  13
BRANCH   6  16
ATOM     16  C   UNL     1      -4.035  13.508  20.488  0.00  0.00    +0.000 C 
BRANCH  16  17
ATOM     17  C   UNL     1      -5.104  12.679  19.794  0.00  0.00    +0.000 A 
ATOM     18  C   UNL     1      -4.840  12.032  18.577  0.00  0.00    +0.000 A 
ATOM     19  C   UNL     1      -5.774  11.161  18.009  0.00  0.00    +0.000 A 
ATOM     20  C   UNL     1      -6.989  10.928  18.644  0.00  0.00    +0.000 A 
ATOM     21  C   UNL     1      -7.280  11.579  19.841  0.00  0.00    +0.000 A 
ATOM     22  C   UNL     1      -6.345  12.448  20.413  0.00  0.00    +0.000 A 
ENDBRANCH  16  17
ENDBRANCH   6  16
ENDBRANCH   3   4
BRANCH   1  23
ATOM     23  C   UNL     1       1.513  10.287  18.195  0.00  0.00    +0.000 C 
BRANCH  23  24
ATOM     24  C   UNL     1       1.703   8.771  18.196  0.00  0.00    +0.000 C 
BRANCH  24  25
ATOM     25  O   UNL     1       1.938   8.298  19.521  0.00  0.00    +0.000 OA
BRANCH  25  29
ATOM     26  C   UNL     1       2.742   4.226  19.799  0.00  0.00    +0.000 A 
ATOM     27  C   UNL     1       1.996   4.885  20.775  0.00  0.00    +0.000 A 
ATOM     28  C   UNL     1       1.774   6.262  20.679  0.00  0.00    +0.000 A 
ATOM     29  C   UNL     1       2.320   6.989  19.621  0.00  0.00    +0.000 A 
ATOM     30  C   UNL     1       3.117   6.340  18.680  0.00  0.00    +0.000 A 
ATOM     31  C   UNL     1       3.337   4.964  18.775  0.00  0.00    +0.000 A 
BRANCH  26  32
ATOM     32  O   UNL     1       2.820   2.865  19.928  0.00  0.00    +0.000 OA
BRANCH  32  34
ATOM     33  C   UNL     1       0.837   2.276  18.730  0.00  0.00    +0.000 C 
ATOM     34  C   UNL     1       2.343   2.117  18.806  0.00  0.00    +0.000 C 
ENDBRANCH  32  34
ENDBRANCH  26  32
ENDBRANCH  25  29
ENDBRANCH  24  25
ENDBRANCH  23  24
ENDBRANCH   1  23
BRANCH   3  35
ATOM     35  C   UNL     1       1.610  12.639  20.083  0.00  0.00    +0.000 C 
BRANCH  35  36
ATOM     36  C   UNL     1       1.632  13.753  18.998  0.00  0.00    +0.000 C 
ATOM     37  C   UNL     1       1.257  15.150  19.505  0.00  0.00    +0.000 C 
ATOM     38  C   UNL     1       2.952  13.809  18.227  0.00  0.00    +0.000 C 
ENDBRANCH  35  36
ENDBRANCH   3  35
TORSDOF 12
ENDMDL
MODEL 2
REMARK VINA RESULT:      -7.2      3.820      7.360
REMARK  Name = 
REMARK  15 active torsions:
REMARK  status: ('A' for Active; 'I' for Inactive)
REMARK    1  A    between atoms: C_1  and  C_2
REMARK    2  A    between atoms: C_2  and  O_3
REMARK    3  A    between atoms: O_3  and  C_4
REMARK    4  A    between atoms: C_7  and  O_8
REMARK    5  A    between atoms: O_8  and  C_9
REMARK    6  A    between atoms: C_9  and  C_10
REMARK    7  A    between atoms: C_10  and  C_11
REMARK    8  A    between atoms: N_13  and  C_14
REMARK    9  A    between atoms: N_13  and  C_18
REMARK   10  A    between atoms: C_14  and  C_15
REMARK   11  A    between atoms: C_15  and  C_16
REMARK   12  A    between atoms: C_15  and  C_17
REMARK   13  A    between atoms: C_19  and  N_20
REMARK   14  A    between atoms: N_21  and  C_22
REMARK   15  A    between atoms: C_22  and  C_23
REMARK                            x       y       z     vdW  Elec       q    Type
REMARK                         _______ _______ _______ _____ _____    ______ ____
ROOT
ATOM      1  C   UNL     1       4.321   5.126  18.828  0.00  0.00    +0.000 C 
ATOM      2  O   UNL     1       4.984   5.752  19.661  0.00  0.00    +0.000 OA
ATOM      3  N   UNL     1       2.966   5.406  18.632  0.00  0.00    +0.000 N 
ENDROOT
BRANCH   3   4
ATOM      4  C   UNL     1       2.428   6.451  19.404  0.00  0.00    +0.000 A 
ATOM      5  C   UNL     1       2.296   7.707  18.915  0.00  0.00    +0.000 A 
ATOM      6  N   UNL     1       1.577   8.660  19.634  0.00  0.00    +0.000 N 
ATOM      7  C   UNL     1       0.962   8.375  20.844  0.00  0.00    +0.000 A 
ATOM      8  O   UNL     1       0.302   9.180  21.499  0.00  0.00    +0.000 OA
ATOM      9  N   UNL     1       1.118   7.110  21.325  0.00  0.00    +0.000 N 
ATOM     10  C   UNL     1       1.898   6.144  20.770  0.00  0.00    +0.000 A 
ATOM     11  O   UNL     1       2.122   5.090  21.353  0.00  0.00    +0.000 OA
ATOM     12  H   UNL     1       0.737   6.927  22.239  0.00  0.00    +0.000 HD
BRANCH   5  13
ATOM     13  N   UNL     1       2.802   8.023  17.654  0.00  0.00    +0.000 N 
ATOM     14  H   UNL     1       3.568   7.414  17.387  0.00  0.00    +0.000 HD
ATOM     15  H   UNL     1       2.084   8.061  16.938  0.00  0.00    +0.000 HD
ENDBRANCH   5  13
BRANCH   6  16
ATOM     16  C   UNL     1       1.482  10.037  19.140  0.00  0.00    +0.000 C 
BRANCH  16  17
ATOM     17  C   UNL     1       0.116  10.439  18.606  0.00  0.00    +0.000 A 
ATOM     18  C   UNL     1      -0.556   9.641  17.667  0.00  0.00    +0.000 A 
ATOM     19  C   UNL     1      -1.866   9.937  17.279  0.00  0.00    +0.000 A 
ATOM     20  C   UNL     1      -2.522  11.040  17.818  0.00  0.00    +0.000 A 
ATOM     21  C   UNL     1      -1.863  11.858  18.733  0.00  0.00    +0.000 A 
ATOM     22  C   UNL     1      -0.554  11.561  19.125  0.00  0.00    +0.000 A 
ENDBRANCH  16  17
ENDBRANCH   6  16
ENDBRANCH   3   4
BRANCH   1  23
ATOM     23  C   UNL     1       4.981   4.037  17.996  0.00  0.00    +0.000 C 
BRANCH  23  24
ATOM     24  C   UNL     1       5.530   4.597  16.683  0.00  0.00    +0.000 C 
BRANCH  24  25
ATOM     25  O   UNL     1       6.933   4.834  16.790  0.00  0.00    +0.000 OA
BRANCH  25  29
ATOM     26  C   UNL     1       8.360   8.332  18.532  0.00  0.00    +0.000 A 
ATOM     27  C   UNL     1       8.513   7.096  19.159  0.00  0.00    +0.000 A 
ATOM     28  C   UNL     1       7.989   5.941  18.573  0.00  0.00    +0.000 A 
ATOM     29  C   UNL     1       7.287   6.021  17.369  0.00  0.00    +0.000 A 
ATOM     30  C   UNL     1       7.081   7.264  16.775  0.00  0.00    +0.000 A 
ATOM     31  C   UNL     1       7.607   8.418  17.361  0.00  0.00    +0.000 A 
BRANCH  26  32
ATOM     32  O   UNL     1       8.992   9.387  19.134  0.00  0.00    +0.000 OA
BRANCH  32  34
ATOM     33  C   UNL     1       9.362  11.748  19.161  0.00  0.00    +0.000 C 
ATOM     34  C   UNL     1       9.241  10.513  18.288  0.00  0.00    +0.000 C 
ENDBRANCH  32  34
ENDBRANCH  26  32
ENDBRANCH  25  29
ENDBRANCH  24  25
ENDBRANCH  23  24
ENDBRANCH   1  23
BRANCH   3  35
ATOM     35  C   UNL     1       2.005   4.527  17.932  0.00  0.00    +0.000 C 
BRANCH  35  36
ATOM     36  C   UNL     1       1.838   3.097  18.522  0.00  0.00    +0.000 C 
ATOM     37  C   UNL     1       0.421   2.764  19.004  0.00  0.00    +0.000 C 
ATOM     38  C   UNL     1       2.347   2.002  17.584  0.00  0.00    +0.000 C 
ENDBRANCH  35  36
ENDBRANCH   3  35
TORSDOF 12
ENDMDL
MODEL 3
REMARK VINA RESULT:      -7.1      3.717      7.341
REMARK  Name = 
REMARK  15 active torsions:
REMARK  status: ('A' for Active; 'I' for Inactive)
REMARK    1  A    between atoms: C_1  and  C_2
REMARK    2  A    between atoms: C_2  and  O_3
REMARK    3  A    between atoms: O_3  and  C_4
REMARK    4  A    between atoms: C_7  and  O_8
REMARK    5  A    between atoms: O_8  and  C_9
REMARK    6  A    between atoms: C_9  and  C_10
REMARK    7  A    between atoms: C_10  and  C_11
REMARK    8  A    between atoms: N_13  and  C_14
REMARK    9  A    between atoms: N_13  and  C_18
REMARK   10  A    between atoms: C_14  and  C_15
REMARK   11  A    between atoms: C_15  and  C_16
REMARK   12  A    between atoms: C_15  and  C_17
REMARK   13  A    between atoms: C_19  and  N_20
REMARK   14  A    between atoms: N_21  and  C_22
REMARK   15  A    between atoms: C_22  and  C_23
REMARK                            x       y       z     vdW  Elec       q    Type
REMARK                         _______ _______ _______ _____ _____    ______ ____
ROOT
ATOM      1  C   UNL     1       4.018   4.721  18.483  0.00  0.00    +0.000 C 
ATOM      2  O   UNL     1       4.820   5.270  19.246  0.00  0.00    +0.000 OA
ATOM      3  N   UNL     1       2.681   5.126  18.436  0.00  0.00    +0.000 N 
ENDROOT
BRANCH   3   4
ATOM      4  C   UNL     1       2.326   6.201  19.269  0.00  0.00    +0.000 A 
ATOM      5  C   UNL     1       2.161   7.455  18.786  0.00  0.00    +0.000 A 
ATOM      6  N   UNL     1       1.614   8.445  19.600  0.00  0.00    +0.000 N 
ATOM      7  C   UNL     1       1.207   8.200  20.903  0.00  0.00    +0.000 A 
ATOM      8  O   UNL     1       0.701   9.039  21.648  0.00  0.00    +0.000 OA
ATOM      9  N   UNL     1       1.394   6.936  21.374  0.00  0.00    +0.000 N 
ATOM     10  C   UNL     1       2.028   5.931  20.711  0.00  0.00    +0.000 A 
ATOM     11  O   UNL     1       2.308   4.876  21.266  0.00  0.00    +0.000 OA
ATOM     12  H   UNL     1       1.169   6.779  22.343  0.00  0.00    +0.000 HD
BRANCH   5  13
ATOM     13  N   UNL     1       2.453   7.735  17.451  0.00  0.00    +0.000 N 
ATOM     14  H   UNL     1       3.128   8.487  17.360  0.00  0.00    +0.000 HD
ATOM     15  H   UNL     1       2.730   6.913  16.927  0.00  0.00    +0.000 HD
ENDBRANCH   5  13
BRANCH   6  16
ATOM     16  C   UNL     1       1.489   9.819  19.105  0.00  0.00    +0.000 C 
BRANCH  16  17
ATOM     17  C   UNL     1       0.074  10.255  18.758  0.00  0.00    +0.000 A 
ATOM     18  C   UNL     1      -0.525  11.347  19.405  0.00  0.00    +0.000 A 
ATOM     19  C   UNL     1      -1.769  11.833  18.994  0.00  0.00    +0.000 A 
ATOM     20  C   UNL     1      -2.438  11.231  17.933  0.00  0.00    +0.000 A 
ATOM     21  C   UNL     1      -1.872  10.131  17.293  0.00  0.00    +0.000 A 
ATOM     22  C   UNL     1      -0.625   9.646  17.701  0.00  0.00    +0.000 A 
ENDBRANCH  16  17
ENDBRANCH   6  16
ENDBRANCH   3   4
BRANCH   1  23
ATOM     23  C   UNL     1       4.484   3.592  17.576  0.00  0.00    +0.000 C 
BRANCH  23  24
ATOM     24  C   UNL     1       5.026   4.130  16.252  0.00  0.00    +0.000 C 
BRANCH  24  25
ATOM     25  O   UNL     1       6.450   4.047  16.225  0.00  0.00    +0.000 OA
BRANCH  25  29
ATOM     26  C   UNL     1       8.134   7.211  18.338  0.00  0.00    +0.000 A 
ATOM     27  C   UNL     1       7.536   7.408  17.094  0.00  0.00    +0.000 A 
ATOM     28  C   UNL     1       7.014   6.322  16.385  0.00  0.00    +0.000 A 
ATOM     29  C   UNL     1       7.110   5.031  16.908  0.00  0.00    +0.000 A 
ATOM     30  C   UNL     1       7.762   4.828  18.122  0.00  0.00    +0.000 A 
ATOM     31  C   UNL     1       8.283   5.914  18.830  0.00  0.00    +0.000 A 
BRANCH  26  32
ATOM     32  O   UNL     1       8.525   8.346  18.996  0.00  0.00    +0.000 OA
BRANCH  32  34
ATOM     33  C   UNL     1       9.348  10.588  18.898  0.00  0.00    +0.000 C 
ATOM     34  C   UNL     1       8.474   9.549  18.223  0.00  0.00    +0.000 C 
ENDBRANCH  32  34
ENDBRANCH  26  32
ENDBRANCH  25  29
ENDBRANCH  24  25
ENDBRANCH  23  24
ENDBRANCH   1  23
BRANCH   3  35
ATOM     35  C   UNL     1       1.575   4.349  17.835  0.00  0.00    +0.000 C 
BRANCH  35  36
ATOM     36  C   UNL     1       1.216   3.015  18.550  0.00  0.00    +0.000 C 
ATOM     37  C   UNL     1       2.420   2.228  19.081  0.00  0.00    +0.000 C 
ATOM     38  C   UNL     1       0.173   3.192  19.654  0.00  0.00    +0.000 C 
ENDBRANCH  35  36
ENDBRANCH   3  35
TORSDOF 12
ENDMDL
MODEL 4
REMARK VINA RESULT:      -7.1      1.013      1.307
REMARK  Name = 
REMARK  15 active torsions:
REMARK  status: ('A' for Active; 'I' for Inactive)
REMARK    1  A    between atoms: C_1  and  C_2
REMARK    2  A    between atoms: C_2  and  O_3
REMARK    3  A    between atoms: O_3  and  C_4
REMARK    4  A    between atoms: C_7  and  O_8
REMARK    5  A    between atoms: O_8  and  C_9
REMARK    6  A    between atoms: C_9  and  C_10
REMARK    7  A    between atoms: C_10  and  C_11
REMARK    8  A    between atoms: N_13  and  C_14
REMARK    9  A    between atoms: N_13  and  C_18
REMARK   10  A    between atoms: C_14  and  C_15
REMARK   11  A    between atoms: C_15  and  C_16
REMARK   12  A    between atoms: C_15  and  C_17
REMARK   13  A    between atoms: C_19  and  N_20
REMARK   14  A    between atoms: N_21  and  C_22
REMARK   15  A    between atoms: C_22  and  C_23
REMARK                            x       y       z     vdW  Elec       q    Type
REMARK                         _______ _______ _______ _____ _____    ______ ____
ROOT
ATOM      1  C   UNL     1       0.017  10.843  19.497  0.00  0.00    +0.000 C 
ATOM      2  O   UNL     1      -0.875  10.007  19.673  0.00  0.00    +0.000 OA
ATOM      3  N   UNL     1       0.068  12.010  20.264  0.00  0.00    +0.000 N 
ENDROOT
BRANCH   3   4
ATOM      4  C   UNL     1      -0.921  12.149  21.253  0.00  0.00    +0.000 A 
ATOM      5  C   UNL     1      -2.049  12.868  21.039  0.00  0.00    +0.000 A 
ATOM      6  N   UNL     1      -3.091  12.815  21.963  0.00  0.00    +0.000 N 
ATOM      7  C   UNL     1      -3.037  12.031  23.106  0.00  0.00    +0.000 A 
ATOM      8  O   UNL     1      -3.941  11.939  23.935  0.00  0.00    +0.000 OA
ATOM      9  N   UNL     1      -1.889  11.327  23.309  0.00  0.00    +0.000 N 
ATOM     10  C   UNL     1      -0.768  11.402  22.541  0.00  0.00    +0.000 A 
ATOM     11  O   UNL     1       0.280  10.869  22.885  0.00  0.00    +0.000 OA
ATOM     12  H   UNL     1      -1.820  10.820  24.177  0.00  0.00    +0.000 HD
BRANCH   5  13
ATOM     13  N   UNL     1      -2.205  13.590  19.856  0.00  0.00    +0.000 N 
ATOM     14  H   UNL     1      -1.741  13.142  19.073  0.00  0.00    +0.000 HD
ATOM     15  H   UNL     1      -3.175  13.802  19.649  0.00  0.00    +0.000 HD
ENDBRANCH   5  13
BRANCH   6  16
ATOM     16  C   UNL     1      -4.289  13.637  21.769  0.00  0.00    +0.000 C 
BRANCH  16  17
ATOM     17  C   UNL     1      -5.513  12.889  21.263  0.00  0.00    +0.000 A 
ATOM     18  C   UNL     1      -5.502  12.248  20.014  0.00  0.00    +0.000 A 
ATOM     19  C   UNL     1      -6.573  11.448  19.608  0.00  0.00    +0.000 A 
ATOM     20  C   UNL     1      -7.675  11.280  20.441  0.00  0.00    +0.000 A 
ATOM     21  C   UNL     1      -7.714  11.925  21.675  0.00  0.00    +0.000 A 
ATOM     22  C   UNL     1      -6.642  12.724  22.084  0.00  0.00    +0.000 A 
ENDBRANCH  16  17
ENDBRANCH   6  16
ENDBRANCH   3   4
BRANCH   1  23
ATOM     23  C   UNL     1       1.083  10.603  18.439  0.00  0.00    +0.000 C 
BRANCH  23  24
ATOM     24  C   UNL     1       1.343   9.110  18.237  0.00  0.00    +0.000 C 
BRANCH  24  25
ATOM     25  O   UNL     1       1.835   8.523  19.441  0.00  0.00    +0.000 OA
BRANCH  25  29
ATOM     26  C   UNL     1       2.851   4.498  19.162  0.00  0.00    +0.000 A 
ATOM     27  C   UNL     1       2.377   5.045  20.354  0.00  0.00    +0.000 A 
ATOM     28  C   UNL     1       2.082   6.409  20.433  0.00  0.00    +0.000 A 
ATOM     29  C   UNL     1       2.283   7.236  19.327  0.00  0.00    +0.000 A 
ATOM     30  C   UNL     1       2.814   6.701  18.156  0.00  0.00    +0.000 A 
ATOM     31  C   UNL     1       3.108   5.337  18.077  0.00  0.00    +0.000 A 
BRANCH  26  32
ATOM     32  O   UNL     1       3.017   3.139  19.156  0.00  0.00    +0.000 OA
BRANCH  32  34
ATOM     33  C   UNL     1       0.796   2.358  18.742  0.00  0.00    +0.000 C 
ATOM     34  C   UNL     1       2.214   2.430  18.208  0.00  0.00    +0.000 C 
ENDBRANCH  32  34
ENDBRANCH  26  32
ENDBRANCH  25  29
ENDBRANCH  24  25
ENDBRANCH  23  24
ENDBRANCH   1  23
BRANCH   3  35
ATOM     35  C   UNL     1       0.859  13.215  19.934  0.00  0.00    +0.000 C 
BRANCH  35  36
ATOM     36  C   UNL     1       1.846  13.702  21.033  0.00  0.00    +0.000 C 
ATOM     37  C   UNL     1       3.265  13.999  20.535  0.00  0.00    +0.000 C 
ATOM     38  C   UNL     1       1.309  14.890  21.833  0.00  0.00    +0.000 C 
ENDBRANCH  35  36
ENDBRANCH   3  35
TORSDOF 12
ENDMDL
MODEL 5
REMARK VINA RESULT:      -7.1      1.112      1.640
REMARK  Name = 
REMARK  15 active torsions:
REMARK  status: ('A' for Active; 'I' for Inactive)
REMARK    1  A    between atoms: C_1  and  C_2
REMARK    2  A    between atoms: C_2  and  O_3
REMARK    3  A    between atoms: O_3  and  C_4
REMARK    4  A    between atoms: C_7  and  O_8
REMARK    5  A    between atoms: O_8  and  C_9
REMARK    6  A    between atoms: C_9  and  C_10
REMARK    7  A    between atoms: C_10  and  C_11
REMARK    8  A    between atoms: N_13  and  C_14
REMARK    9  A    between atoms: N_13  and  C_18
REMARK   10  A    between atoms: C_14  and  C_15
REMARK   11  A    between atoms: C_15  and  C_16
REMARK   12  A    between atoms: C_15  and  C_17
REMARK   13  A    between atoms: C_19  and  N_20
REMARK   14  A    between atoms: N_21  and  C_22
REMARK   15  A    between atoms: C_22  and  C_23
REMARK                            x       y       z     vdW  Elec       q    Type
REMARK                         _______ _______ _______ _____ _____    ______ ____
ROOT
ATOM      1  C   UNL     1      -0.212  10.919  19.349  0.00  0.00    +0.000 C 
ATOM      2  O   UNL     1      -1.058  10.054  19.596  0.00  0.00    +0.000 OA
ATOM      3  N   UNL     1      -0.153  12.099  20.096  0.00  0.00    +0.000 N 
ENDROOT
BRANCH   3   4
ATOM      4  C   UNL     1      -1.079  12.217  21.148  0.00  0.00    +0.000 A 
ATOM      5  C   UNL     1      -2.248  12.882  21.000  0.00  0.00    +0.000 A 
ATOM      6  N   UNL     1      -3.222  12.804  21.994  0.00  0.00    +0.000 N 
ATOM      7  C   UNL     1      -3.055  12.048  23.145  0.00  0.00    +0.000 A 
ATOM      8  O   UNL     1      -3.896  11.935  24.036  0.00  0.00    +0.000 OA
ATOM      9  N   UNL     1      -1.867  11.397  23.281  0.00  0.00    +0.000 N 
ATOM     10  C   UNL     1      -0.805  11.504  22.435  0.00  0.00    +0.000 A 
ATOM     11  O   UNL     1       0.286  11.024  22.716  0.00  0.00    +0.000 OA
ATOM     12  H   UNL     1      -1.717  10.912  24.150  0.00  0.00    +0.000 HD
BRANCH   5  13
ATOM     13  N   UNL     1      -2.516  13.572  19.817  0.00  0.00    +0.000 N 
ATOM     14  H   UNL     1      -2.856  14.511  19.994  0.00  0.00    +0.000 HD
ATOM     15  H   UNL     1      -1.733  13.570  19.173  0.00  0.00    +0.000 HD
ENDBRANCH   5  13
BRANCH   6  16
ATOM     16  C   UNL     1      -4.465  13.571  21.868  0.00  0.00    +0.000 C 
BRANCH  16  17
ATOM     17  C   UNL     1      -5.681  12.765  21.438  0.00  0.00    +0.000 A 
ATOM     18  C   UNL     1      -5.687  12.058  20.225  0.00  0.00    +0.000 A 
ATOM     19  C   UNL     1      -6.746  11.210  19.893  0.00  0.00    +0.000 A 
ATOM     20  C   UNL     1      -7.821  11.060  20.764  0.00  0.00    +0.000 A 
ATOM     21  C   UNL     1      -7.845  11.770  21.962  0.00  0.00    +0.000 A 
ATOM     22  C   UNL     1      -6.783  12.617  22.297  0.00  0.00    +0.000 A 
ENDBRANCH  16  17
ENDBRANCH   6  16
ENDBRANCH   3   4
BRANCH   1  23
ATOM     23  C   UNL     1       0.788  10.702  18.224  0.00  0.00    +0.000 C 
BRANCH  23  24
ATOM     24  C   UNL     1       1.171   9.228  18.095  0.00  0.00    +0.000 C 
BRANCH  24  25
ATOM     25  O   UNL     1       1.842   8.782  19.272  0.00  0.00    +0.000 OA
BRANCH  25  29
ATOM     26  C   UNL     1       3.173   4.841  19.339  0.00  0.00    +0.000 A 
ATOM     27  C   UNL     1       3.410   5.667  18.241  0.00  0.00    +0.000 A 
ATOM     28  C   UNL     1       2.917   6.974  18.226  0.00  0.00    +0.000 A 
ATOM     29  C   UNL     1       2.163   7.453  19.299  0.00  0.00    +0.000 A 
ATOM     30  C   UNL     1       1.874   6.607  20.367  0.00  0.00    +0.000 A 
ATOM     31  C   UNL     1       2.369   5.300  20.382  0.00  0.00    +0.000 A 
BRANCH  26  32
ATOM     32  O   UNL     1       3.779   3.614  19.302  0.00  0.00    +0.000 OA
BRANCH  32  34
ATOM     33  C   UNL     1       2.764   2.017  17.842  0.00  0.00    +0.000 C 
ATOM     34  C   UNL     1       3.886   3.024  18.003  0.00  0.00    +0.000 C 
ENDBRANCH  32  34
ENDBRANCH  26  32
ENDBRANCH  25  29
ENDBRANCH  24  25
ENDBRANCH  23  24
ENDBRANCH   1  23
BRANCH   3  35
ATOM     35  C   UNL     1       0.568  13.326  19.697  0.00  0.00    +0.000 C 
BRANCH  35  36
ATOM     36  C   UNL     1       1.931  13.574  20.404  0.00  0.00    +0.000 C 
ATOM     37  C   UNL     1       3.067  14.008  19.471  0.00  0.00    +0.000 C 
ATOM     38  C   UNL     1       1.823  14.537  21.587  0.00  0.00    +0.000 C 
ENDBRANCH  35  36
ENDBRANCH   3  35
TORSDOF 12
ENDMDL
MODEL 6
REMARK VINA RESULT:      -7.1      1.863      2.515
REMARK  Name = 
REMARK  15 active torsions:
REMARK  status: ('A' for Active; 'I' for Inactive)
REMARK    1  A    between atoms: C_1  and  C_2
REMARK    2  A    between atoms: C_2  and  O_3
REMARK    3  A    between atoms: O_3  and  C_4
REMARK    4  A    between atoms: C_7  and  O_8
REMARK    5  A    between atoms: O_8  and  C_9
REMARK    6  A    between atoms: C_9  and  C_10
REMARK    7  A    between atoms: C_10  and  C_11
REMARK    8  A    between atoms: N_13  and  C_14
REMARK    9  A    between atoms: N_13  and  C_18
REMARK   10  A    between atoms: C_14  and  C_15
REMARK   11  A    between atoms: C_15  and  C_16
REMARK   12  A    between atoms: C_15  and  C_17
REMARK   13  A    between atoms: C_19  and  N_20
REMARK   14  A    between atoms: N_21  and  C_22
REMARK   15  A    between atoms: C_22  and  C_23
REMARK                            x       y       z     vdW  Elec       q    Type
REMARK                         _______ _______ _______ _____ _____    ______ ____
ROOT
ATOM      1  C   UNL     1       0.146  10.040  18.813  0.00  0.00    +0.000 C 
ATOM      2  O   UNL     1      -0.937   9.472  18.980  0.00  0.00    +0.000 OA
ATOM      3  N   UNL     1       0.486  11.171  19.560  0.00  0.00    +0.000 N 
ENDROOT
BRANCH   3   4
ATOM      4  C   UNL     1      -0.453  11.589  20.519  0.00  0.00    +0.000 A 
ATOM      5  C   UNL     1      -1.556  12.297  20.179  0.00  0.00    +0.000 A 
ATOM      6  N   UNL     1      -2.559  12.515  21.122  0.00  0.00    +0.000 N 
ATOM      7  C   UNL     1      -2.490  12.018  22.415  0.00  0.00    +0.000 A 
ATOM      8  O   UNL     1      -3.361  12.169  23.270  0.00  0.00    +0.000 OA
ATOM      9  N   UNL     1      -1.366  11.320  22.741  0.00  0.00    +0.000 N 
ATOM     10  C   UNL     1      -0.278  11.155  21.941  0.00  0.00    +0.000 A 
ATOM     11  O   UNL     1       0.760  10.662  22.367  0.00  0.00    +0.000 OA
ATOM     12  H   UNL     1      -1.283  11.025  23.700  0.00  0.00    +0.000 HD
BRANCH   5  13
ATOM     13  N   UNL     1      -1.731  12.732  18.865  0.00  0.00    +0.000 N 
ATOM     14  H   UNL     1      -0.853  12.998  18.433  0.00  0.00    +0.000 HD
ATOM     15  H   UNL     1      -2.246  12.069  18.295  0.00  0.00    +0.000 HD
ENDBRANCH   5  13
BRANCH   6  16
ATOM     16  C   UNL     1      -3.726  13.332  20.779  0.00  0.00    +0.000 C 
BRANCH  16  17
ATOM     17  C   UNL     1      -4.979  12.550  20.414  0.00  0.00    +0.000 A 
ATOM     18  C   UNL     1      -6.078  12.501  21.285  0.00  0.00    +0.000 A 
ATOM     19  C   UNL     1      -7.278  11.899  20.894  0.00  0.00    +0.000 A 
ATOM     20  C   UNL     1      -7.395  11.331  19.629  0.00  0.00    +0.000 A 
ATOM     21  C   UNL     1      -6.308  11.350  18.759  0.00  0.00    +0.000 A 
ATOM     22  C   UNL     1      -5.108  11.955  19.147  0.00  0.00    +0.000 A 
ENDBRANCH  16  17
ENDBRANCH   6  16
ENDBRANCH   3   4
BRANCH   1  23
ATOM     23  C   UNL     1       1.134   9.504  17.788  0.00  0.00    +0.000 C 
BRANCH  23  24
ATOM     24  C   UNL     1       2.217   8.653  18.450  0.00  0.00    +0.000 C 
BRANCH  24  25
ATOM     25  O   UNL     1       1.962   7.266  18.236  0.00  0.00    +0.000 OA
BRANCH  25  29
ATOM     26  C   UNL     1       5.042   4.855  16.819  0.00  0.00    +0.000 A 
ATOM     27  C   UNL     1       3.873   4.304  17.342  0.00  0.00    +0.000 A 
ATOM     28  C   UNL     1       2.870   5.134  17.849  0.00  0.00    +0.000 A 
ATOM     29  C   UNL     1       3.044   6.519  17.858  0.00  0.00    +0.000 A 
ATOM     30  C   UNL     1       4.238   7.066  17.393  0.00  0.00    +0.000 A 
ATOM     31  C   UNL     1       5.239   6.234  16.884  0.00  0.00    +0.000 A 
BRANCH  26  32
ATOM     32  O   UNL     1       5.919   3.966  16.258  0.00  0.00    +0.000 OA
BRANCH  32  34
ATOM     33  C   UNL     1       6.056   3.936  13.871  0.00  0.00    +0.000 C 
ATOM     34  C   UNL     1       6.674   4.468  15.151  0.00  0.00    +0.000 C 
ENDBRANCH  32  34
ENDBRANCH  26  32
ENDBRANCH  25  29
ENDBRANCH  24  25
ENDBRANCH  23  24
ENDBRANCH   1  23
BRANCH   3  35
ATOM     35  C   UNL     1       1.572  12.118  19.229  0.00  0.00    +0.000 C 
BRANCH  35  36
ATOM     36  C   UNL     1       1.565  13.461  20.014  0.00  0.00    +0.000 C 
ATOM     37  C   UNL     1       2.789  13.686  20.909  0.00  0.00    +0.000 C 
ATOM     38  C   UNL     1       1.340  14.677  19.114  0.00  0.00    +0.000 C 
ENDBRANCH  35  36
ENDBRANCH   3  35
TORSDOF 12
ENDMDL
MODEL 7
REMARK VINA RESULT:      -7.0      4.428     11.007
REMARK  Name = 
REMARK  15 active torsions:
REMARK  status: ('A' for Active; 'I' for Inactive)
REMARK    1  A    between atoms: C_1  and  C_2
REMARK    2  A    between atoms: C_2  and  O_3
REMARK    3  A    between atoms: O_3  and  C_4
REMARK    4  A    between atoms: C_7  and  O_8
REMARK    5  A    between atoms: O_8  and  C_9
REMARK    6  A    between atoms: C_9  and  C_10
REMARK    7  A    between atoms: C_10  and  C_11
REMARK    8  A    between atoms: N_13  and  C_14
REMARK    9  A    between atoms: N_13  and  C_18
REMARK   10  A    between atoms: C_14  and  C_15
REMARK   11  A    between atoms: C_15  and  C_16
REMARK   12  A    between atoms: C_15  and  C_17
REMARK   13  A    between atoms: C_19  and  N_20
REMARK   14  A    between atoms: N_21  and  C_22
REMARK   15  A    between atoms: C_22  and  C_23
REMARK                            x       y       z     vdW  Elec       q    Type
REMARK                         _______ _______ _______ _____ _____    ______ ____
ROOT
ATOM      1  C   UNL     1       2.873   6.499  19.263  0.00  0.00    +0.000 C 
ATOM      2  O   UNL     1       3.865   7.218  19.419  0.00  0.00    +0.000 OA
ATOM      3  N   UNL     1       2.972   5.276  18.595  0.00  0.00    +0.000 N 
ENDROOT
BRANCH   3   4
ATOM      4  C   UNL     1       4.255   4.908  18.154  0.00  0.00    +0.000 A 
ATOM      5  C   UNL     1       4.849   5.513  17.099  0.00  0.00    +0.000 A 
ATOM      6  N   UNL     1       6.192   5.264  16.822  0.00  0.00    +0.000 N 
ATOM      7  C   UNL     1       6.971   4.421  17.600  0.00  0.00    +0.000 A 
ATOM      8  O   UNL     1       8.164   4.190  17.403  0.00  0.00    +0.000 OA
ATOM      9  N   UNL     1       6.351   3.812  18.648  0.00  0.00    +0.000 N 
ATOM     10  C   UNL     1       5.023   3.887  18.934  0.00  0.00    +0.000 A 
ATOM     11  O   UNL     1       4.512   3.175  19.790  0.00  0.00    +0.000 OA
ATOM     12  H   UNL     1       6.897   3.141  19.166  0.00  0.00    +0.000 HD
BRANCH   5  13
ATOM     13  N   UNL     1       4.146   6.453  16.344  0.00  0.00    +0.000 N 
ATOM     14  H   UNL     1       3.522   7.011  16.917  0.00  0.00    +0.000 HD
ATOM     15  H   UNL     1       4.752   7.032  15.772  0.00  0.00    +0.000 HD
ENDBRANCH   5  13
BRANCH   6  16
ATOM     16  C   UNL     1       6.825   5.868  15.646  0.00  0.00    +0.000 C 
BRANCH  16  17
ATOM     17  C   UNL     1       6.787   5.021  14.384  0.00  0.00    +0.000 A 
ATOM     18  C   UNL     1       5.783   4.060  14.189  0.00  0.00    +0.000 A 
ATOM     19  C   UNL     1       5.666   3.378  12.974  0.00  0.00    +0.000 A 
ATOM     20  C   UNL     1       6.556   3.642  11.937  0.00  0.00    +0.000 A 
ATOM     21  C   UNL     1       7.573   4.576  12.119  0.00  0.00    +0.000 A 
ATOM     22  C   UNL     1       7.689   5.261  13.332  0.00  0.00    +0.000 A 
ENDBRANCH  16  17
ENDBRANCH   6  16
ENDBRANCH   3   4
BRANCH   1  23
ATOM     23  C   UNL     1       1.523   6.941  19.807  0.00  0.00    +0.000 C 
BRANCH  23  24
ATOM     24  C   UNL     1       1.535   8.420  20.195  0.00  0.00    +0.000 C 
BRANCH  24  25
ATOM     25  O   UNL     1       1.031   8.592  21.518  0.00  0.00    +0.000 OA
BRANCH  25  29
ATOM     26  C   UNL     1      -1.519  11.795  22.259  0.00  0.00    +0.000 A 
ATOM     27  C   UNL     1      -1.269  10.828  23.232  0.00  0.00    +0.000 A 
ATOM     28  C   UNL     1      -0.441   9.740  22.944  0.00  0.00    +0.000 A 
ATOM     29  C   UNL     1       0.121   9.602  21.674  0.00  0.00    +0.000 A 
ATOM     30  C   UNL     1      -0.178  10.535  20.685  0.00  0.00    +0.000 A 
ATOM     31  C   UNL     1      -1.005  11.624  20.973  0.00  0.00    +0.000 A 
BRANCH  26  32
ATOM     32  O   UNL     1      -2.261  12.871  22.667  0.00  0.00    +0.000 OA
BRANCH  32  34
ATOM     33  C   UNL     1      -4.545  12.816  21.964  0.00  0.00    +0.000 C 
ATOM     34  C   UNL     1      -3.585  12.566  23.112  0.00  0.00    +0.000 C 
ENDBRANCH  32  34
ENDBRANCH  26  32
ENDBRANCH  25  29
ENDBRANCH  24  25
ENDBRANCH  23  24
ENDBRANCH   1  23
BRANCH   3  35
ATOM     35  C   UNL     1       1.831   4.503  18.057  0.00  0.00    +0.000 C 
BRANCH  35  36
ATOM     36  C   UNL     1       1.115   3.559  19.065  0.00  0.00    +0.000 C 
ATOM     37  C   UNL     1       1.220   2.066  18.730  0.00  0.00    +0.000 C 
ATOM     38  C   UNL     1       1.534   3.805  20.514  0.00  0.00    +0.000 C 
ENDBRANCH  35  36
ENDBRANCH   3  35
TORSDOF 12
ENDMDL
MODEL 8
REMARK VINA RESULT:      -7.0      3.304      6.312
REMARK  Name = 
REMARK  15 active torsions:
REMARK  status: ('A' for Active; 'I' for Inactive)
REMARK    1  A    between atoms: C_1  and  C_2
REMARK    2  A    between atoms: C_2  and  O_3
REMARK    3  A    between atoms: O_3  and  C_4
REMARK    4  A    between atoms: C_7  and  O_8
REMARK    5  A    between atoms: O_8  and  C_9
REMARK    6  A    between atoms: C_9  and  C_10
REMARK    7  A    between atoms: C_10  and  C_11
REMARK    8  A    between atoms: N_13  and  C_14
REMARK    9  A    between atoms: N_13  and  C_18
REMARK   10  A    between atoms: C_14  and  C_15
REMARK   11  A    between atoms: C_15  and  C_16
REMARK   12  A    between atoms: C_15  and  C_17
REMARK   13  A    between atoms: C_19  and  N_20
REMARK   14  A    between atoms: N_21  and  C_22
REMARK   15  A    between atoms: C_22  and  C_23
REMARK                            x       y       z     vdW  Elec       q    Type
REMARK                         _______ _______ _______ _____ _____    ______ ____
ROOT
ATOM      1  C   UNL     1       1.299  10.129  18.796  0.00  0.00    +0.000 C 
ATOM      2  O   UNL     1       2.065  10.814  18.110  0.00  0.00    +0.000 OA
ATOM      3  N   UNL     1       0.255  10.721  19.512  0.00  0.00    +0.000 N 
ENDROOT
BRANCH   3   4
ATOM      4  C   UNL     1       0.115  12.113  19.373  0.00  0.00    +0.000 A 
ATOM      5  C   UNL     1       0.999  12.979  19.922  0.00  0.00    +0.000 A 
ATOM      6  N   UNL     1       0.941  14.332  19.593  0.00  0.00    +0.000 N 
ATOM      7  C   UNL     1       0.012  14.844  18.700  0.00  0.00    +0.000 A 
ATOM      8  O   UNL     1      -0.061  16.026  18.366  0.00  0.00    +0.000 OA
ATOM      9  N   UNL     1      -0.878  13.959  18.170  0.00  0.00    +0.000 N 
ATOM     10  C   UNL     1      -0.988  12.647  18.514  0.00  0.00    +0.000 A 
ATOM     11  O   UNL     1      -1.922  11.960  18.120  0.00  0.00    +0.000 OA
ATOM     12  H   UNL     1      -1.599  14.344  17.582  0.00  0.00    +0.000 HD
BRANCH   5  13
ATOM     13  N   UNL     1       2.023  12.507  20.744  0.00  0.00    +0.000 N 
ATOM     14  H   UNL     1       2.055  11.494  20.768  0.00  0.00    +0.000 HD
ATOM     15  H   UNL     1       2.927  12.907  20.517  0.00  0.00    +0.000 HD
ENDBRANCH   5  13
BRANCH   6  16
ATOM     16  C   UNL     1       1.856  15.284  20.229  0.00  0.00    +0.000 C 
BRANCH  16  17
ATOM     17  C   UNL     1       3.270  15.296  19.669  0.00  0.00    +0.000 A 
ATOM     18  C   UNL     1       4.384  15.327  20.521  0.00  0.00    +0.000 A 
ATOM     19  C   UNL     1       5.680  15.200  20.014  0.00  0.00    +0.000 A 
ATOM     20  C   UNL     1       5.884  15.047  18.646  0.00  0.00    +0.000 A 
ATOM     21  C   UNL     1       4.792  15.037  17.782  0.00  0.00    +0.000 A 
ATOM     22  C   UNL     1       3.494  15.160  18.288  0.00  0.00    +0.000 A 
ENDBRANCH  16  17
ENDBRANCH   6  16
ENDBRANCH   3   4
BRANCH   1  23
ATOM     23  C   UNL     1       1.484   8.621  18.863  0.00  0.00    +0.000 C 
BRANCH  23  24
ATOM     24  C   UNL     1       2.625   8.159  17.957  0.00  0.00    +0.000 C 
BRANCH  24  25
ATOM     25  O   UNL     1       3.283   7.026  18.523  0.00  0.00    +0.000 OA
BRANCH  25  29
ATOM     26  C   UNL     1       5.267   4.430  15.948  0.00  0.00    +0.000 A 
ATOM     27  C   UNL     1       5.558   5.793  15.968  0.00  0.00    +0.000 A 
ATOM     28  C   UNL     1       4.849   6.651  16.813  0.00  0.00    +0.000 A 
ATOM     29  C   UNL     1       3.828   6.152  17.624  0.00  0.00    +0.000 A 
ATOM     30  C   UNL     1       3.496   4.801  17.558  0.00  0.00    +0.000 A 
ATOM     31  C   UNL     1       4.207   3.944  16.714  0.00  0.00    +0.000 A 
BRANCH  26  32
ATOM     32  O   UNL     1       6.081   3.659  15.162  0.00  0.00    +0.000 OA
BRANCH  32  34
ATOM     33  C   UNL     1       5.852   3.534  12.786  0.00  0.00    +0.000 C 
ATOM     34  C   UNL     1       6.506   4.269  13.940  0.00  0.00    +0.000 C 
ENDBRANCH  32  34
ENDBRANCH  26  32
ENDBRANCH  25  29
ENDBRANCH  24  25
ENDBRANCH  23  24
ENDBRANCH   1  23
BRANCH   3  35
ATOM     35  C   UNL     1      -0.499  10.078  20.609  0.00  0.00    +0.000 C 
BRANCH  35  36
ATOM     36  C   UNL     1      -0.041  10.439  22.052  0.00  0.00    +0.000 C 
ATOM     37  C   UNL     1      -1.149  10.988  22.958  0.00  0.00    +0.000 C 
ATOM     38  C   UNL     1       0.691   9.292  22.750  0.00  0.00    +0.000 C 
ENDBRANCH  35  36
ENDBRANCH   3  35
TORSDOF 12
ENDMDL
MODEL 9
REMARK VINA RESULT:      -6.9      2.577      9.115
REMARK  Name = 
REMARK  15 active torsions:
REMARK  status: ('A' for Active; 'I' for Inactive)
REMARK    1  A    between atoms: C_1  and  C_2
REMARK    2  A    between atoms: C_2  and  O_3
REMARK    3  A    between atoms: O_3  and  C_4
REMARK    4  A    between atoms: C_7  and  O_8
REMARK    5  A    between atoms: O_8  and  C_9
REMARK    6  A    between atoms: C_9  and  C_10
REMARK    7  A    between atoms: C_10  and  C_11
REMARK    8  A    between atoms: N_13  and  C_14
REMARK    9  A    between atoms: N_13  and  C_18
REMARK   10  A    between atoms: C_14  and  C_15
REMARK   11  A    between atoms: C_15  and  C_16
REMARK   12  A    between atoms: C_15  and  C_17
REMARK   13  A    between atoms: C_19  and  N_20
REMARK   14  A    between atoms: N_21  and  C_22
REMARK   15  A    between atoms: C_22  and  C_23
REMARK                            x       y       z     vdW  Elec       q    Type
REMARK                         _______ _______ _______ _____ _____    ______ ____
ROOT
ATOM      1  C   UNL     1       0.327  10.740  21.304  0.00  0.00    +0.000 C 
ATOM      2  O   UNL     1       1.500  11.006  21.587  0.00  0.00    +0.000 OA
ATOM      3  N   UNL     1       0.024   9.823  20.294  0.00  0.00    +0.000 N 
ENDROOT
BRANCH   3   4
ATOM      4  C   UNL     1       1.118   9.210  19.660  0.00  0.00    +0.000 A 
ATOM      5  C   UNL     1       1.631   8.035  20.095  0.00  0.00    +0.000 A 
ATOM      6  N   UNL     1       2.577   7.362  19.325  0.00  0.00    +0.000 N 
ATOM      7  C   UNL     1       3.017   7.839  18.099  0.00  0.00    +0.000 A 
ATOM      8  O   UNL     1       3.834   7.267  17.378  0.00  0.00    +0.000 OA
ATOM      9  N   UNL     1       2.500   9.029  17.685  0.00  0.00    +0.000 N 
ATOM     10  C   UNL     1       1.669   9.825  18.411  0.00  0.00    +0.000 A 
ATOM     11  O   UNL     1       1.384  10.958  18.041  0.00  0.00    +0.000 OA
ATOM     12  H   UNL     1       2.877   9.411  16.832  0.00  0.00    +0.000 HD
BRANCH   5  13
ATOM     13  N   UNL     1       1.149   7.454  21.268  0.00  0.00    +0.000 N 
ATOM     14  H   UNL     1       1.898   7.078  21.841  0.00  0.00    +0.000 HD
ATOM     15  H   UNL     1       0.545   8.073  21.797  0.00  0.00    +0.000 HD
ENDBRANCH   5  13
BRANCH   6  16
ATOM     16  C   UNL     1       3.181   6.121  19.819  0.00  0.00    +0.000 C 
BRANCH  16  17
ATOM     17  C   UNL     1       2.410   4.852  19.492  0.00  0.00    +0.000 A 
ATOM     18  C   UNL     1       1.535   4.277  20.427  0.00  0.00    +0.000 A 
ATOM     19  C   UNL     1       0.725   3.193  20.081  0.00  0.00    +0.000 A 
ATOM     20  C   UNL     1       0.781   2.660  18.797  0.00  0.00    +0.000 A 
ATOM     21  C   UNL     1       1.659   3.201  17.861  0.00  0.00    +0.000 A 
ATOM     22  C   UNL     1       2.468   4.289  18.205  0.00  0.00    +0.000 A 
ENDBRANCH  16  17
ENDBRANCH   6  16
ENDBRANCH   3   4
BRANCH   1  23
ATOM     23  C   UNL     1      -0.807  11.409  22.064  0.00  0.00    +0.000 C 
BRANCH  23  24
ATOM     24  C   UNL     1      -0.667  12.931  22.048  0.00  0.00    +0.000 C 
BRANCH  24  25
ATOM     25  O   UNL     1      -1.378  13.509  23.141  0.00  0.00    +0.000 OA
BRANCH  25  29
ATOM     26  C   UNL     1      -5.539  13.518  23.191  0.00  0.00    +0.000 A 
ATOM     27  C   UNL     1      -4.804  12.854  24.172  0.00  0.00    +0.000 A 
ATOM     28  C   UNL     1      -3.408  12.832  24.111  0.00  0.00    +0.000 A 
ATOM     29  C   UNL     1      -2.742  13.452  23.052  0.00  0.00    +0.000 A 
ATOM     30  C   UNL     1      -3.479  14.062  22.039  0.00  0.00    +0.000 A 
ATOM     31  C   UNL     1      -4.875  14.085  22.103  0.00  0.00    +0.000 A 
BRANCH  26  32
ATOM     32  O   UNL     1      -6.892  13.567  23.392  0.00  0.00    +0.000 OA
BRANCH  32  34
ATOM     33  C   UNL     1      -7.851  11.817  22.076  0.00  0.00    +0.000 C 
ATOM     34  C   UNL     1      -7.543  12.296  23.482  0.00  0.00    +0.000 C 
ENDBRANCH  32  34
ENDBRANCH  26  32
ENDBRANCH  25  29
ENDBRANCH  24  25
ENDBRANCH  23  24
ENDBRANCH   1  23
BRANCH   3  35
ATOM     35  C   UNL     1      -1.296   9.676  19.644  0.00  0.00    +0.000 C 
BRANCH  35  36
ATOM     36  C   UNL     1      -1.612  10.692  18.509  0.00  0.00    +0.000 C 
ATOM     37  C   UNL     1      -1.977  10.056  17.162  0.00  0.00    +0.000 C 
ATOM     38  C   UNL     1      -2.668  11.723  18.908  0.00  0.00    +0.000 C 
ENDBRANCH  35  36
ENDBRANCH   3  35
TORSDOF 12
ENDMDL
