MODEL 1
REMARK VINA RESULT:      -7.6      0.000      0.000
REMARK  Name = 
REMARK  8 active torsions:
REMARK  status: ('A' for Active; 'I' for Inactive)
REMARK    1  A    between atoms: C_1  and  C_2
REMARK    2  A    between atoms: C_2  and  S_3
REMARK    3  A    between atoms: S_3  and  C_4
REMARK    4  A    between atoms: C_9  and  C_11
REMARK    5  A    between atoms: C_11  and  C_12
REMARK    6  A    between atoms: C_12  and  N_13
REMARK    7  A    between atoms: N_13  and  S_14
REMARK    8  A    between atoms: S_14  and  C_17
REMARK                            x       y       z     vdW  Elec       q    Type
REMARK                         _______ _______ _______ _____ _____    ______ ____
ROOT
ATOM      1  C   UNL     1       4.742   3.295  19.584  0.00  0.00    +0.000 C 
ENDROOT
BRANCH   1   7
ATOM      2  C   UNL     1       6.970   4.728  14.214  0.00  0.00    +0.000 A 
ATOM      3  N   UNL     1       7.673   5.594  14.912  0.00  0.00    +0.000 NA
ATOM      4  N   UNL     1       7.412   5.491  16.272  0.00  0.00    +0.000 NA
ATOM      5  C   UNL     1       6.500   4.578  16.529  0.00  0.00    +0.000 A 
ATOM      6  N   UNL     1       6.064   4.284  17.805  0.00  0.00    +0.000 N 
ATOM      7  C   UNL     1       4.954   3.521  18.098  0.00  0.00    +0.000 C 
ATOM      8  O   UNL     1       4.198   3.016  17.274  0.00  0.00    +0.000 OA
ATOM      9  S   UNL     1       5.948   3.736  15.152  0.00  0.00    +0.000 S 
ATOM     10  H   UNL     1       6.545   4.797  18.532  0.00  0.00    +0.000 HD
BRANCH   2  11
ATOM     11  S   UNL     1       7.050   4.578  12.477  0.00  0.00    +0.000 S 
BRANCH  11  13
ATOM     12  C   UNL     1       4.723   3.388  11.727  0.00  0.00    +0.000 C 
ATOM     13  C   UNL     1       6.118   3.047  12.223  0.00  0.00    +0.000 C 
ENDBRANCH  11  13
ENDBRANCH   2  11
ENDBRANCH   1   7
BRANCH   1  14
ATOM     14  C   UNL     1       3.870   2.070  19.863  0.00  0.00    +0.000 C 
BRANCH  14  15
ATOM     15  N   UNL     1       2.568   2.146  19.198  0.00  0.00    +0.000 NA
ATOM     16  H   UNL     1       2.267   1.416  18.555  0.00  0.00    +0.000 HD
BRANCH  15  17
ATOM     17  S   UNL     1       1.303   2.967  19.924  0.00  0.00    +0.000 S 
ATOM     18  O   UNL     1       0.123   2.571  19.182  0.00  0.00    +0.000 OA
ATOM     19  O   UNL     1       1.377   2.743  21.350  0.00  0.00    +0.000 OA
BRANCH  17  20
ATOM     20  C   UNL     1       1.600   4.670  19.575  0.00  0.00    +0.000 A 
ATOM     21  C   UNL     1       1.811   5.572  20.629  0.00  0.00    +0.000 A 
ATOM     22  C   UNL     1       2.187   6.891  20.355  0.00  0.00    +0.000 A 
ATOM     23  C   UNL     1       2.357   7.310  19.035  0.00  0.00    +0.000 A 
ATOM     24  C   UNL     1       2.143   6.411  17.990  0.00  0.00    +0.000 A 
ATOM     25  C   UNL     1       1.764   5.095  18.263  0.00  0.00    +0.000 A 
ATOM     26  F   UNL     1       1.569   4.269  17.230  0.00  0.00    +0.000 F 
ENDBRANCH  17  20
ENDBRANCH  15  17
ENDBRANCH  14  15
ENDBRANCH   1  14
TORSDOF 7
ENDMDL
MODEL 2
REMARK VINA RESULT:      -7.4      2.169      2.872
REMARK  Name = 
REMARK  8 active torsions:
REMARK  status: ('A' for Active; 'I' for Inactive)
REMARK    1  A    between atoms: C_1  and  C_2
REMARK    2  A    between atoms: C_2  and  S_3
REMARK    3  A    between atoms: S_3  and  C_4
REMARK    4  A    between atoms: C_9  and  C_11
REMARK    5  A    between atoms: C_11  and  C_12
REMARK    6  A    between atoms: C_12  and  N_13
REMARK    7  A    between atoms: N_13  and  S_14
REMARK    8  A    between atoms: S_14  and  C_17
REMARK                            x       y       z     vdW  Elec       q    Type
REMARK                         _______ _______ _______ _____ _____    ______ ____
ROOT
ATOM      1  C   UNL     1       4.482   3.417  19.521  0.00  0.00    +0.000 C 
ENDROOT
BRANCH   1   7
ATOM      2  C   UNL     1       6.869   4.550  14.147  0.00  0.00    +0.000 A 
ATOM      3  N   UNL     1       7.620   5.385  14.832  0.00  0.00    +0.000 NA
ATOM      4  N   UNL     1       7.336   5.337  16.190  0.00  0.00    +0.000 NA
ATOM      5  C   UNL     1       6.360   4.495  16.458  0.00  0.00    +0.000 A 
ATOM      6  N   UNL     1       5.890   4.266  17.735  0.00  0.00    +0.000 N 
ATOM      7  C   UNL     1       4.727   3.588  18.032  0.00  0.00    +0.000 C 
ATOM      8  O   UNL     1       3.949   3.112  17.211  0.00  0.00    +0.000 OA
ATOM      9  S   UNL     1       5.770   3.655  15.096  0.00  0.00    +0.000 S 
ATOM     10  H   UNL     1       6.395   4.765  18.455  0.00  0.00    +0.000 HD
BRANCH   2  11
ATOM     11  S   UNL     1       6.960   4.348  12.416  0.00  0.00    +0.000 S 
BRANCH  11  13
ATOM     12  C   UNL     1       4.577   3.353  11.565  0.00  0.00    +0.000 C 
ATOM     13  C   UNL     1       5.891   2.905  12.183  0.00  0.00    +0.000 C 
ENDBRANCH  11  13
ENDBRANCH   2  11
ENDBRANCH   1   7
BRANCH   1  14
ATOM     14  C   UNL     1       3.453   4.416  20.054  0.00  0.00    +0.000 C 
BRANCH  14  15
ATOM     15  N   UNL     1       3.716   5.784  19.606  0.00  0.00    +0.000 NA
ATOM     16  H   UNL     1       4.623   6.219  19.762  0.00  0.00    +0.000 HD
BRANCH  15  17
ATOM     17  S   UNL     1       2.886   6.412  18.295  0.00  0.00    +0.000 S 
ATOM     18  O   UNL     1       3.910   6.742  17.324  0.00  0.00    +0.000 OA
ATOM     19  O   UNL     1       1.822   5.494  17.952  0.00  0.00    +0.000 OA
BRANCH  17  20
ATOM     20  C   UNL     1       2.195   7.929  18.871  0.00  0.00    +0.000 A 
ATOM     21  C   UNL     1       2.138   9.039  18.015  0.00  0.00    +0.000 A 
ATOM     22  C   UNL     1       1.465  10.198  18.417  0.00  0.00    +0.000 A 
ATOM     23  C   UNL     1       0.845  10.248  19.666  0.00  0.00    +0.000 A 
ATOM     24  C   UNL     1       0.906   9.143  20.515  0.00  0.00    +0.000 A 
ATOM     25  C   UNL     1       1.581   7.988  20.116  0.00  0.00    +0.000 A 
ATOM     26  F   UNL     1       1.615   6.954  20.963  0.00  0.00    +0.000 F 
ENDBRANCH  17  20
ENDBRANCH  15  17
ENDBRANCH  14  15
ENDBRANCH   1  14
TORSDOF 7
ENDMDL
MODEL 3
REMARK VINA RESULT:      -7.2      2.364      3.023
REMARK  Name = 
REMARK  8 active torsions:
REMARK  status: ('A' for Active; 'I' for Inactive)
REMARK    1  A    between atoms: C_1  and  C_2
REMARK    2  A    between atoms: C_2  and  S_3
REMARK    3  A    between atoms: S_3  and  C_4
REMARK    4  A    between atoms: C_9  and  C_11
REMARK    5  A    between atoms: C_11  and  C_12
REMARK    6  A    between atoms: C_12  and  N_13
REMARK    7  A    between atoms: N_13  and  S_14
REMARK    8  A    between atoms: S_14  and  C_17
REMARK                            x       y       z     vdW  Elec       q    Type
REMARK                         _______ _______ _______ _____ _____    ______ ____
ROOT
ATOM      1  C   UNL     1       5.135   4.055  19.105  0.00  0.00    +0.000 C 
ENDROOT
BRANCH   1   7
ATOM      2  C   UNL     1       6.980   4.454  13.422  0.00  0.00    +0.000 A 
ATOM      3  N   UNL     1       7.705   5.447  13.892  0.00  0.00    +0.000 NA
ATOM      4  N   UNL     1       7.533   5.604  15.262  0.00  0.00    +0.000 NA
ATOM      5  C   UNL     1       6.662   4.747  15.750  0.00  0.00    +0.000 A 
ATOM      6  N   UNL     1       6.316   4.699  17.085  0.00  0.00    +0.000 N 
ATOM      7  C   UNL     1       5.246   3.993  17.592  0.00  0.00    +0.000 C 
ATOM      8  O   UNL     1       4.453   3.329  16.933  0.00  0.00    +0.000 OA
ATOM      9  S   UNL     1       6.045   3.649  14.599  0.00  0.00    +0.000 S 
ATOM     10  H   UNL     1       6.829   5.348  17.665  0.00  0.00    +0.000 HD
BRANCH   2  11
ATOM     11  S   UNL     1       6.953   3.974  11.745  0.00  0.00    +0.000 S 
BRANCH  11  13
ATOM     12  C   UNL     1       4.351   3.295  11.343  0.00  0.00    +0.000 C 
ATOM     13  C   UNL     1       5.676   2.691  11.777  0.00  0.00    +0.000 C 
ENDBRANCH  11  13
ENDBRANCH   2  11
ENDBRANCH   1   7
BRANCH   1  14
ATOM     14  C   UNL     1       4.850   5.472  19.605  0.00  0.00    +0.000 C 
BRANCH  14  15
ATOM     15  N   UNL     1       4.140   6.283  18.614  0.00  0.00    +0.000 NA
ATOM     16  H   UNL     1       4.464   6.331  17.650  0.00  0.00    +0.000 HD
BRANCH  15  17
ATOM     17  S   UNL     1       2.501   6.574  18.789  0.00  0.00    +0.000 S 
ATOM     18  O   UNL     1       2.390   7.399  19.975  0.00  0.00    +0.000 OA
ATOM     19  O   UNL     1       1.987   7.044  17.521  0.00  0.00    +0.000 OA
BRANCH  17  20
ATOM     20  C   UNL     1       1.793   5.004  19.169  0.00  0.00    +0.000 A 
ATOM     21  C   UNL     1       1.472   4.114  18.133  0.00  0.00    +0.000 A 
ATOM     22  C   UNL     1       1.044   2.816  18.434  0.00  0.00    +0.000 A 
ATOM     23  C   UNL     1       0.943   2.404  19.762  0.00  0.00    +0.000 A 
ATOM     24  C   UNL     1       1.260   3.293  20.790  0.00  0.00    +0.000 A 
ATOM     25  C   UNL     1       1.683   4.590  20.490  0.00  0.00    +0.000 A 
ATOM     26  F   UNL     1       1.976   5.407  21.507  0.00  0.00    +0.000 F 
ENDBRANCH  17  20
ENDBRANCH  15  17
ENDBRANCH  14  15
ENDBRANCH   1  14
TORSDOF 7
ENDMDL
MODEL 4
REMARK VINA RESULT:      -7.1      2.292      2.809
REMARK  Name = 
REMARK  8 active torsions:
REMARK  status: ('A' for Active; 'I' for Inactive)
REMARK    1  A    between atoms: C_1  and  C_2
REMARK    2  A    between atoms: C_2  and  S_3
REMARK    3  A    between atoms: S_3  and  C_4
REMARK    4  A    between atoms: C_9  and  C_11
REMARK    5  A    between atoms: C_11  and  C_12
REMARK    6  A    between atoms: C_12  and  N_13
REMARK    7  A    between atoms: N_13  and  S_14
REMARK    8  A    between atoms: S_14  and  C_17
REMARK                            x       y       z     vdW  Elec       q    Type
REMARK                         _______ _______ _______ _____ _____    ______ ____
ROOT
ATOM      1  C   UNL     1       5.742   4.534  18.968  0.00  0.00    +0.000 C 
ENDROOT
BRANCH   1   7
ATOM      2  C   UNL     1       6.962   4.303  13.110  0.00  0.00    +0.000 A 
ATOM      3  N   UNL     1       7.764   5.306  13.398  0.00  0.00    +0.000 NA
ATOM      4  N   UNL     1       7.749   5.602  14.755  0.00  0.00    +0.000 NA
ATOM      5  C   UNL     1       6.911   4.833  15.417  0.00  0.00    +0.000 A 
ATOM      6  N   UNL     1       6.713   4.929  16.779  0.00  0.00    +0.000 N 
ATOM      7  C   UNL     1       5.684   4.320  17.466  0.00  0.00    +0.000 C 
ATOM      8  O   UNL     1       4.803   3.629  16.965  0.00  0.00    +0.000 OA
ATOM      9  S   UNL     1       6.138   3.655  14.456  0.00  0.00    +0.000 S 
ATOM     10  H   UNL     1       7.306   5.610  17.234  0.00  0.00    +0.000 HD
BRANCH   2  11
ATOM     11  S   UNL     1       6.737   3.664  11.503  0.00  0.00    +0.000 S 
BRANCH  11  13
ATOM     12  C   UNL     1       4.055   3.293  11.249  0.00  0.00    +0.000 C 
ATOM     13  C   UNL     1       5.301   2.590  11.760  0.00  0.00    +0.000 C 
ENDBRANCH  11  13
ENDBRANCH   2  11
ENDBRANCH   1   7
BRANCH   1  14
ATOM     14  C   UNL     1       5.043   5.826  19.395  0.00  0.00    +0.000 C 
BRANCH  14  15
ATOM     15  N   UNL     1       4.097   6.309  18.388  0.00  0.00    +0.000 NA
ATOM     16  H   UNL     1       4.265   6.154  17.396  0.00  0.00    +0.000 HD
BRANCH  15  17
ATOM     17  S   UNL     1       2.478   6.488  18.776  0.00  0.00    +0.000 S 
ATOM     18  O   UNL     1       2.464   7.342  19.946  0.00  0.00    +0.000 OA
ATOM     19  O   UNL     1       1.766   6.876  17.579  0.00  0.00    +0.000 OA
BRANCH  17  20
ATOM     20  C   UNL     1       1.948   4.884  19.286  0.00  0.00    +0.000 A 
ATOM     21  C   UNL     1       1.790   4.603  20.651  0.00  0.00    +0.000 A 
ATOM     22  C   UNL     1       1.236   3.383  21.054  0.00  0.00    +0.000 A 
ATOM     23  C   UNL     1       0.835   2.449  20.099  0.00  0.00    +0.000 A 
ATOM     24  C   UNL     1       0.996   2.731  18.743  0.00  0.00    +0.000 A 
ATOM     25  C   UNL     1       1.553   3.947  18.341  0.00  0.00    +0.000 A 
ATOM     26  F   UNL     1       1.690   4.173  17.030  0.00  0.00    +0.000 F 
ENDBRANCH  17  20
ENDBRANCH  15  17
ENDBRANCH  14  15
ENDBRANCH   1  14
TORSDOF 7
ENDMDL
MODEL 5
REMARK VINA RESULT:      -7.0      2.419      3.014
REMARK  Name = 
REMARK  8 active torsions:
REMARK  status: ('A' for Active; 'I' for Inactive)
REMARK    1  A    between atoms: C_1  and  C_2
REMARK    2  A    between atoms: C_2  and  S_3
REMARK    3  A    between atoms: S_3  and  C_4
REMARK    4  A    between atoms: C_9  and  C_11
REMARK    5  A    between atoms: C_11  and  C_12
REMARK    6  A    between atoms: C_12  and  N_13
REMARK    7  A    between atoms: N_13  and  S_14
REMARK    8  A    between atoms: S_14  and  C_17
REMARK                            x       y       z     vdW  Elec       q    Type
REMARK                         _______ _______ _______ _____ _____    ______ ____
ROOT
ATOM      1  C   UNL     1       4.281   5.409  18.809  0.00  0.00    +0.000 C 
ENDROOT
BRANCH   1   7
ATOM      2  C   UNL     1       6.966   4.540  13.527  0.00  0.00    +0.000 A 
ATOM      3  N   UNL     1       7.853   5.378  14.019  0.00  0.00    +0.000 NA
ATOM      4  N   UNL     1       7.535   5.762  15.315  0.00  0.00    +0.000 NA
ATOM      5  C   UNL     1       6.405   5.225  15.723  0.00  0.00    +0.000 A 
ATOM      6  N   UNL     1       5.870   5.451  16.974  0.00  0.00    +0.000 N 
ATOM      7  C   UNL     1       4.588   5.110  17.352  0.00  0.00    +0.000 C 
ATOM      8  O   UNL     1       3.750   4.579  16.631  0.00  0.00    +0.000 OA
ATOM      9  S   UNL     1       5.689   4.165  14.594  0.00  0.00    +0.000 S 
ATOM     10  H   UNL     1       6.449   6.027  17.571  0.00  0.00    +0.000 HD
BRANCH   2  11
ATOM     11  S   UNL     1       7.054   3.852  11.926  0.00  0.00    +0.000 S 
BRANCH  11  13
ATOM     12  C   UNL     1       5.937   1.453  11.299  0.00  0.00    +0.000 C 
ATOM     13  C   UNL     1       5.586   2.791  11.929  0.00  0.00    +0.000 C 
ENDBRANCH  11  13
ENDBRANCH   2  11
ENDBRANCH   1   7
BRANCH   1  14
ATOM     14  C   UNL     1       5.178   4.616  19.761  0.00  0.00    +0.000 C 
BRANCH  14  15
ATOM     15  N   UNL     1       5.430   3.253  19.290  0.00  0.00    +0.000 NA
ATOM     16  H   UNL     1       6.347   2.983  18.940  0.00  0.00    +0.000 HD
BRANCH  15  17
ATOM     17  S   UNL     1       4.542   1.975  19.907  0.00  0.00    +0.000 S 
ATOM     18  O   UNL     1       4.744   0.889  18.969  0.00  0.00    +0.000 OA
ATOM     19  O   UNL     1       4.894   1.811  21.300  0.00  0.00    +0.000 OA
BRANCH  17  20
ATOM     20  C   UNL     1       2.857   2.480  19.777  0.00  0.00    +0.000 A 
ATOM     21  C   UNL     1       2.139   2.219  18.601  0.00  0.00    +0.000 A 
ATOM     22  C   UNL     1       0.767   2.488  18.544  0.00  0.00    +0.000 A 
ATOM     23  C   UNL     1       0.112   3.010  19.659  0.00  0.00    +0.000 A 
ATOM     24  C   UNL     1       0.829   3.271  20.826  0.00  0.00    +0.000 A 
ATOM     25  C   UNL     1       2.199   3.006  20.881  0.00  0.00    +0.000 A 
ATOM     26  F   UNL     1       2.847   3.273  22.021  0.00  0.00    +0.000 F 
ENDBRANCH  17  20
ENDBRANCH  15  17
ENDBRANCH  14  15
ENDBRANCH   1  14
TORSDOF 7
ENDMDL
MODEL 6
REMARK VINA RESULT:      -6.8      4.838      5.633
REMARK  Name = 
REMARK  8 active torsions:
REMARK  status: ('A' for Active; 'I' for Inactive)
REMARK    1  A    between atoms: C_1  and  C_2
REMARK    2  A    between atoms: C_2  and  S_3
REMARK    3  A    between atoms: S_3  and  C_4
REMARK    4  A    between atoms: C_9  and  C_11
REMARK    5  A    between atoms: C_11  and  C_12
REMARK    6  A    between atoms: C_12  and  N_13
REMARK    7  A    between atoms: N_13  and  S_14
REMARK    8  A    between atoms: S_14  and  C_17
REMARK                            x       y       z     vdW  Elec       q    Type
REMARK                         _______ _______ _______ _____ _____    ______ ____
ROOT
ATOM      1  C   UNL     1       1.613   6.446  20.572  0.00  0.00    +0.000 C 
ENDROOT
BRANCH   1   7
ATOM      2  C   UNL     1       6.264   4.863  17.149  0.00  0.00    +0.000 A 
ATOM      3  N   UNL     1       6.818   4.576  18.309  0.00  0.00    +0.000 NA
ATOM      4  N   UNL     1       5.944   4.802  19.365  0.00  0.00    +0.000 NA
ATOM      5  C   UNL     1       4.790   5.282  18.954  0.00  0.00    +0.000 A 
ATOM      6  N   UNL     1       3.752   5.590  19.809  0.00  0.00    +0.000 N 
ATOM      7  C   UNL     1       2.632   6.312  19.455  0.00  0.00    +0.000 C 
ATOM      8  O   UNL     1       2.412   6.787  18.346  0.00  0.00    +0.000 OA
ATOM      9  S   UNL     1       4.658   5.425  17.259  0.00  0.00    +0.000 S 
ATOM     10  H   UNL     1       3.939   5.367  20.778  0.00  0.00    +0.000 HD
BRANCH   2  11
ATOM     11  S   UNL     1       7.074   4.695  15.613  0.00  0.00    +0.000 S 
BRANCH  11  13
ATOM     12  C   UNL     1       6.189   3.694  13.245  0.00  0.00    +0.000 C 
ATOM     13  C   UNL     1       5.673   4.325  14.527  0.00  0.00    +0.000 C 
ENDBRANCH  11  13
ENDBRANCH   2  11
ENDBRANCH   1   7
BRANCH   1  14
ATOM     14  C   UNL     1       1.658   7.826  21.231  0.00  0.00    +0.000 C 
BRANCH  14  15
ATOM     15  N   UNL     1       1.192   8.888  20.338  0.00  0.00    +0.000 NA
ATOM     16  H   UNL     1       1.034   8.707  19.349  0.00  0.00    +0.000 HD
BRANCH  15  17
ATOM     17  S   UNL     1       0.277  10.152  20.945  0.00  0.00    +0.000 S 
ATOM     18  O   UNL     1      -0.558   9.554  21.967  0.00  0.00    +0.000 OA
ATOM     19  O   UNL     1       1.170  11.240  21.274  0.00  0.00    +0.000 OA
BRANCH  17  20
ATOM     20  C   UNL     1      -0.779  10.634  19.616  0.00  0.00    +0.000 A 
ATOM     21  C   UNL     1      -0.776   9.900  18.421  0.00  0.00    +0.000 A 
ATOM     22  C   UNL     1      -1.710  10.190  17.420  0.00  0.00    +0.000 A 
ATOM     23  C   UNL     1      -2.648  11.204  17.613  0.00  0.00    +0.000 A 
ATOM     24  C   UNL     1      -2.646  11.934  18.801  0.00  0.00    +0.000 A 
ATOM     25  C   UNL     1      -1.711  11.647  19.799  0.00  0.00    +0.000 A 
ATOM     26  F   UNL     1      -1.746  12.373  20.921  0.00  0.00    +0.000 F 
ENDBRANCH  17  20
ENDBRANCH  15  17
ENDBRANCH  14  15
ENDBRANCH   1  14
TORSDOF 7
ENDMDL
MODEL 7
REMARK VINA RESULT:      -6.8      5.196      6.570
REMARK  Name = 
REMARK  8 active torsions:
REMARK  status: ('A' for Active; 'I' for Inactive)
REMARK    1  A    between atoms: C_1  and  C_2
REMARK    2  A    between atoms: C_2  and  S_3
REMARK    3  A    between atoms: S_3  and  C_4
REMARK    4  A    between atoms: C_9  and  C_11
REMARK    5  A    between atoms: C_11  and  C_12
REMARK    6  A    between atoms: C_12  and  N_13
REMARK    7  A    between atoms: N_13  and  S_14
REMARK    8  A    between atoms: S_14  and  C_17
REMARK                            x       y       z     vdW  Elec       q    Type
REMARK                         _______ _______ _______ _____ _____    ______ ____
ROOT
ATOM      1  C   UNL     1       7.667   5.832  18.178  0.00  0.00    +0.000 C 
ENDROOT
BRANCH   1   7
ATOM      2  C   UNL     1       9.131  11.632  18.449  0.00  0.00    +0.000 A 
ATOM      3  N   UNL     1       9.591  11.298  19.636  0.00  0.00    +0.000 NA
ATOM      4  N   UNL     1       9.437   9.940  19.883  0.00  0.00    +0.000 NA
ATOM      5  C   UNL     1       8.835   9.325  18.888  0.00  0.00    +0.000 A 
ATOM      6  N   UNL     1       8.564   7.972  18.890  0.00  0.00    +0.000 N 
ATOM      7  C   UNL     1       7.733   7.338  17.992  0.00  0.00    +0.000 C 
ATOM      8  O   UNL     1       7.113   7.884  17.085  0.00  0.00    +0.000 OA
ATOM      9  S   UNL     1       8.480  10.332  17.558  0.00  0.00    +0.000 S 
ATOM     10  H   UNL     1       8.914   7.484  19.704  0.00  0.00    +0.000 HD
BRANCH   2  11
ATOM     11  S   UNL     1       9.166  13.255  17.809  0.00  0.00    +0.000 S 
BRANCH  11  13
ATOM     12  C   UNL     1       9.167  15.419  19.456  0.00  0.00    +0.000 C 
ATOM     13  C   UNL     1       8.361  14.168  19.150  0.00  0.00    +0.000 C 
ENDBRANCH  11  13
ENDBRANCH   2  11
ENDBRANCH   1   7
BRANCH   1  14
ATOM     14  C   UNL     1       6.619   5.425  19.216  0.00  0.00    +0.000 C 
BRANCH  14  15
ATOM     15  N   UNL     1       5.864   4.237  18.814  0.00  0.00    +0.000 NA
ATOM     16  H   UNL     1       5.952   3.363  19.330  0.00  0.00    +0.000 HD
BRANCH  15  17
ATOM     17  S   UNL     1       4.402   4.403  18.016  0.00  0.00    +0.000 S 
ATOM     18  O   UNL     1       4.187   5.832  17.919  0.00  0.00    +0.000 OA
ATOM     19  O   UNL     1       4.443   3.588  16.822  0.00  0.00    +0.000 OA
BRANCH  17  20
ATOM     20  C   UNL     1       3.195   3.760  19.129  0.00  0.00    +0.000 A 
ATOM     21  C   UNL     1       3.604   3.099  20.297  0.00  0.00    +0.000 A 
ATOM     22  C   UNL     1       2.657   2.715  21.252  0.00  0.00    +0.000 A 
ATOM     23  C   UNL     1       1.305   2.992  21.046  0.00  0.00    +0.000 A 
ATOM     24  C   UNL     1       0.902   3.647  19.882  0.00  0.00    +0.000 A 
ATOM     25  C   UNL     1       1.847   4.028  18.928  0.00  0.00    +0.000 A 
ATOM     26  F   UNL     1       1.414   4.652  17.827  0.00  0.00    +0.000 F 
ENDBRANCH  17  20
ENDBRANCH  15  17
ENDBRANCH  14  15
ENDBRANCH   1  14
TORSDOF 7
ENDMDL
MODEL 8
REMARK VINA RESULT:      -6.8      5.368      8.778
REMARK  Name = 
REMARK  8 active torsions:
REMARK  status: ('A' for Active; 'I' for Inactive)
REMARK    1  A    between atoms: C_1  and  C_2
REMARK    2  A    between atoms: C_2  and  S_3
REMARK    3  A    between atoms: S_3  and  C_4
REMARK    4  A    between atoms: C_9  and  C_11
REMARK    5  A    between atoms: C_11  and  C_12
REMARK    6  A    between atoms: C_12  and  N_13
REMARK    7  A    between atoms: N_13  and  S_14
REMARK    8  A    between atoms: S_14  and  C_17
REMARK                            x       y       z     vdW  Elec       q    Type
REMARK                         _______ _______ _______ _____ _____    ______ ____
ROOT
ATOM      1  C   UNL     1       2.542   8.082  18.430  0.00  0.00    +0.000 C 
ENDROOT
BRANCH   1   7
ATOM      2  C   UNL     1      -0.729  10.958  22.540  0.00  0.00    +0.000 A 
ATOM      3  N   UNL     1      -0.116  10.141  23.370  0.00  0.00    +0.000 NA
ATOM      4  N   UNL     1       0.791   9.323  22.710  0.00  0.00    +0.000 NA
ATOM      5  C   UNL     1       0.792   9.537  21.411  0.00  0.00    +0.000 A 
ATOM      6  N   UNL     1       1.605   8.851  20.533  0.00  0.00    +0.000 N 
ATOM      7  C   UNL     1       1.469   8.869  19.161  0.00  0.00    +0.000 C 
ATOM      8  O   UNL     1       0.605   9.479  18.539  0.00  0.00    +0.000 OA
ATOM      9  S   UNL     1      -0.252  10.790  20.911  0.00  0.00    +0.000 S 
ATOM     10  H   UNL     1       2.239   8.203  20.981  0.00  0.00    +0.000 HD
BRANCH   2  11
ATOM     11  S   UNL     1      -1.931  12.125  23.027  0.00  0.00    +0.000 S 
BRANCH  11  13
ATOM     12  C   UNL     1      -1.360  14.433  21.709  0.00  0.00    +0.000 C 
ATOM     13  C   UNL     1      -0.969  13.657  22.955  0.00  0.00    +0.000 C 
ENDBRANCH  11  13
ENDBRANCH   2  11
ENDBRANCH   1   7
BRANCH   1  14
ATOM     14  C   UNL     1       2.699   6.666  18.986  0.00  0.00    +0.000 C 
BRANCH  14  15
ATOM     15  N   UNL     1       2.760   5.653  17.932  0.00  0.00    +0.000 NA
ATOM     16  H   UNL     1       2.342   5.824  17.019  0.00  0.00    +0.000 HD
BRANCH  15  17
ATOM     17  S   UNL     1       4.021   4.552  17.899  0.00  0.00    +0.000 S 
ATOM     18  O   UNL     1       3.840   3.739  19.085  0.00  0.00    +0.000 OA
ATOM     19  O   UNL     1       4.053   3.939  16.590  0.00  0.00    +0.000 OA
BRANCH  17  20
ATOM     20  C   UNL     1       5.479   5.516  18.137  0.00  0.00    +0.000 A 
ATOM     21  C   UNL     1       6.331   5.239  19.216  0.00  0.00    +0.000 A 
ATOM     22  C   UNL     1       7.557   5.903  19.329  0.00  0.00    +0.000 A 
ATOM     23  C   UNL     1       7.936   6.837  18.365  0.00  0.00    +0.000 A 
ATOM     24  C   UNL     1       7.085   7.112  17.294  0.00  0.00    +0.000 A 
ATOM     25  C   UNL     1       5.859   6.452  17.184  0.00  0.00    +0.000 A 
ATOM     26  F   UNL     1       5.076   6.749  16.142  0.00  0.00    +0.000 F 
ENDBRANCH  17  20
ENDBRANCH  15  17
ENDBRANCH  14  15
ENDBRANCH   1  14
TORSDOF 7
ENDMDL
MODEL 9
REMARK VINA RESULT:      -6.8      5.262      8.544
REMARK  Name = 
REMARK  8 active torsions:
REMARK  status: ('A' for Active; 'I' for Inactive)
REMARK    1  A    between atoms: C_1  and  C_2
REMARK    2  A    between atoms: C_2  and  S_3
REMARK    3  A    between atoms: S_3  and  C_4
REMARK    4  A    between atoms: C_9  and  C_11
REMARK    5  A    between atoms: C_11  and  C_12
REMARK    6  A    between atoms: C_12  and  N_13
REMARK    7  A    between atoms: N_13  and  S_14
REMARK    8  A    between atoms: S_14  and  C_17
REMARK                            x       y       z     vdW  Elec       q    Type
REMARK                         _______ _______ _______ _____ _____    ______ ____
ROOT
ATOM      1  C   UNL     1       3.047   7.191  17.999  0.00  0.00    +0.000 C 
ENDROOT
BRANCH   1   7
ATOM      2  C   UNL     1      -0.273  11.501  20.500  0.00  0.00    +0.000 A 
ATOM      3  N   UNL     1      -0.542  10.563  21.383  0.00  0.00    +0.000 NA
ATOM      4  N   UNL     1       0.138   9.384  21.104  0.00  0.00    +0.000 NA
ATOM      5  C   UNL     1       0.857   9.480  20.006  0.00  0.00    +0.000 A 
ATOM      6  N   UNL     1       1.625   8.445  19.514  0.00  0.00    +0.000 N 
ATOM      7  C   UNL     1       2.192   8.419  18.258  0.00  0.00    +0.000 C 
ATOM      8  O   UNL     1       2.082   9.296  17.407  0.00  0.00    +0.000 OA
ATOM      9  S   UNL     1       0.814  11.022  19.277  0.00  0.00    +0.000 S 
ATOM     10  H   UNL     1       1.627   7.621  20.099  0.00  0.00    +0.000 HD
BRANCH   2  11
ATOM     11  S   UNL     1      -0.952  13.108  20.545  0.00  0.00    +0.000 S 
BRANCH  11  13
ATOM     12  C   UNL     1      -1.187  13.721  23.183  0.00  0.00    +0.000 C 
ATOM     13  C   UNL     1      -1.936  13.021  22.062  0.00  0.00    +0.000 C 
ENDBRANCH  11  13
ENDBRANCH   2  11
ENDBRANCH   1   7
BRANCH   1  14
ATOM     14  C   UNL     1       3.104   6.262  19.212  0.00  0.00    +0.000 C 
BRANCH  14  15
ATOM     15  N   UNL     1       3.510   4.901  18.858  0.00  0.00    +0.000 NA
ATOM     16  H   UNL     1       2.978   4.357  18.180  0.00  0.00    +0.000 HD
BRANCH  15  17
ATOM     17  S   UNL     1       5.118   4.450  18.968  0.00  0.00    +0.000 S 
ATOM     18  O   UNL     1       5.773   5.555  19.638  0.00  0.00    +0.000 OA
ATOM     19  O   UNL     1       5.178   3.118  19.527  0.00  0.00    +0.000 OA
BRANCH  17  20
ATOM     20  C   UNL     1       5.702   4.420  17.303  0.00  0.00    +0.000 A 
ATOM     21  C   UNL     1       4.785   4.407  16.242  0.00  0.00    +0.000 A 
ATOM     22  C   UNL     1       5.239   4.526  14.924  0.00  0.00    +0.000 A 
ATOM     23  C   UNL     1       6.602   4.664  14.665  0.00  0.00    +0.000 A 
ATOM     24  C   UNL     1       7.512   4.674  15.722  0.00  0.00    +0.000 A 
ATOM     25  C   UNL     1       7.059   4.551  17.038  0.00  0.00    +0.000 A 
ATOM     26  F   UNL     1       7.967   4.565  18.020  0.00  0.00    +0.000 F 
ENDBRANCH  17  20
ENDBRANCH  15  17
ENDBRANCH  14  15
ENDBRANCH   1  14
TORSDOF 7
ENDMDL
