MODEL 1
REMARK VINA RESULT:      -6.0      0.000      0.000
REMARK  Name = 
REMARK  6 active torsions:
REMARK  status: ('A' for Active; 'I' for Inactive)
REMARK    1  A    between atoms: C_1  and  N_2
REMARK    2  A    between atoms: N_2  and  C_3
REMARK    3  A    between atoms: C_3  and  C_4
REMARK    4  A    between atoms: N_6  and  C_7
REMARK    5  A    between atoms: C_11  and  O_12
REMARK    6  A    between atoms: O_12  and  C_13
REMARK                            x       y       z     vdW  Elec       q    Type
REMARK                         _______ _______ _______ _____ _____    ______ ____
ROOT
ATOM      1  C   UNL     1       2.954   6.316  18.139  0.00  0.00    +0.000 A 
ATOM      2  C   UNL     1       2.194   5.160  18.076  0.00  0.00    +0.000 A 
ATOM      3  N   UNL     1       2.968   4.160  17.553  0.00  0.00    +0.000 N 
ATOM      4  C   UNL     1       2.526   2.799  17.349  0.00  0.00    +0.000 C 
ATOM      5  C   UNL     1       4.221   4.637  17.242  0.00  0.00    +0.000 A 
ATOM      6  C   UNL     1       5.337   3.991  16.690  0.00  0.00    +0.000 A 
ATOM      7  C   UNL     1       6.497   4.744  16.470  0.00  0.00    +0.000 A 
ATOM      8  C   UNL     1       6.547   6.099  16.788  0.00  0.00    +0.000 A 
ATOM      9  C   UNL     1       5.424   6.723  17.350  0.00  0.00    +0.000 A 
ATOM     10  C   UNL     1       4.240   5.990  17.589  0.00  0.00    +0.000 A 
ENDROOT
BRANCH   8  11
ATOM     11  O   UNL     1       7.623   6.925  16.601  0.00  0.00    +0.000 OA
ATOM     12  C   UNL     1       7.785   7.987  17.533  0.00  0.00    +0.000 C 
ENDBRANCH   8  11
BRANCH   1  13
ATOM     13  C   UNL     1       2.506   7.649  18.654  0.00  0.00    +0.000 C 
BRANCH  13  15
ATOM     14  C   UNL     1       1.596   9.746  17.901  0.00  0.00    +0.000 C 
ATOM     15  N   UNL     1       2.333   8.553  17.517  0.00  0.00    +0.000 NA
ATOM     16  H   UNL     1       3.253   8.817  17.169  0.00  0.00    +0.000 HD
ENDBRANCH  13  15
ENDBRANCH   1  13
TORSDOF 3
ENDMDL
MODEL 2
REMARK VINA RESULT:      -6.0      1.058      1.165
REMARK  Name = 
REMARK  6 active torsions:
REMARK  status: ('A' for Active; 'I' for Inactive)
REMARK    1  A    between atoms: C_1  and  N_2
REMARK    2  A    between atoms: N_2  and  C_3
REMARK    3  A    between atoms: C_3  and  C_4
REMARK    4  A    between atoms: N_6  and  C_7
REMARK    5  A    between atoms: C_11  and  O_12
REMARK    6  A    between atoms: O_12  and  C_13
REMARK                            x       y       z     vdW  Elec       q    Type
REMARK                         _______ _______ _______ _____ _____    ______ ____
ROOT
ATOM      1  C   UNL     1       2.906   6.122  18.271  0.00  0.00    +0.000 A 
ATOM      2  C   UNL     1       2.160   4.956  18.204  0.00  0.00    +0.000 A 
ATOM      3  N   UNL     1       2.925   3.984  17.620  0.00  0.00    +0.000 N 
ATOM      4  C   UNL     1       2.494   2.623  17.392  0.00  0.00    +0.000 C 
ATOM      5  C   UNL     1       4.158   4.489  17.273  0.00  0.00    +0.000 A 
ATOM      6  C   UNL     1       5.259   3.877  16.656  0.00  0.00    +0.000 A 
ATOM      7  C   UNL     1       6.398   4.654  16.412  0.00  0.00    +0.000 A 
ATOM      8  C   UNL     1       6.442   5.999  16.769  0.00  0.00    +0.000 A 
ATOM      9  C   UNL     1       5.335   6.589  17.395  0.00  0.00    +0.000 A 
ATOM     10  C   UNL     1       4.172   5.831  17.660  0.00  0.00    +0.000 A 
ENDROOT
BRANCH   8  11
ATOM     11  O   UNL     1       7.498   6.846  16.563  0.00  0.00    +0.000 OA
ATOM     12  C   UNL     1       7.717   7.848  17.549  0.00  0.00    +0.000 C 
ENDBRANCH   8  11
BRANCH   1  13
ATOM     13  C   UNL     1       2.460   7.431  18.845  0.00  0.00    +0.000 C 
BRANCH  13  15
ATOM     14  C   UNL     1       1.367   8.301  20.805  0.00  0.00    +0.000 C 
ATOM     15  N   UNL     1       2.230   7.256  20.279  0.00  0.00    +0.000 NA
ATOM     16  H   UNL     1       1.797   6.347  20.430  0.00  0.00    +0.000 HD
ENDBRANCH  13  15
ENDBRANCH   1  13
TORSDOF 3
ENDMDL
MODEL 3
REMARK VINA RESULT:      -6.0      3.634      5.633
REMARK  Name = 
REMARK  6 active torsions:
REMARK  status: ('A' for Active; 'I' for Inactive)
REMARK    1  A    between atoms: C_1  and  N_2
REMARK    2  A    between atoms: N_2  and  C_3
REMARK    3  A    between atoms: C_3  and  C_4
REMARK    4  A    between atoms: N_6  and  C_7
REMARK    5  A    between atoms: C_11  and  O_12
REMARK    6  A    between atoms: O_12  and  C_13
REMARK                            x       y       z     vdW  Elec       q    Type
REMARK                         _______ _______ _______ _____ _____    ______ ____
ROOT
ATOM      1  C   UNL     1       5.837   4.684  15.828  0.00  0.00    +0.000 A 
ATOM      2  C   UNL     1       6.916   5.236  16.499  0.00  0.00    +0.000 A 
ATOM      3  N   UNL     1       6.723   5.066  17.843  0.00  0.00    +0.000 N 
ATOM      4  C   UNL     1       7.646   5.498  18.868  0.00  0.00    +0.000 C 
ATOM      5  C   UNL     1       5.524   4.434  18.079  0.00  0.00    +0.000 A 
ATOM      6  C   UNL     1       4.907   4.054  19.281  0.00  0.00    +0.000 A 
ATOM      7  C   UNL     1       3.658   3.424  19.215  0.00  0.00    +0.000 A 
ATOM      8  C   UNL     1       3.039   3.180  17.992  0.00  0.00    +0.000 A 
ATOM      9  C   UNL     1       3.676   3.558  16.801  0.00  0.00    +0.000 A 
ATOM     10  C   UNL     1       4.939   4.190  16.834  0.00  0.00    +0.000 A 
ENDROOT
BRANCH   8  11
ATOM     11  O   UNL     1       1.817   2.586  17.820  0.00  0.00    +0.000 OA
ATOM     12  C   UNL     1       0.933   2.604  18.934  0.00  0.00    +0.000 C 
ENDBRANCH   8  11
BRANCH   1  13
ATOM     13  C   UNL     1       5.641   4.640  14.344  0.00  0.00    +0.000 C 
BRANCH  13  15
ATOM     14  C   UNL     1       6.157   3.338  12.387  0.00  0.00    +0.000 C 
ATOM     15  N   UNL     1       6.416   3.522  13.805  0.00  0.00    +0.000 NA
ATOM     16  H   UNL     1       7.405   3.714  13.950  0.00  0.00    +0.000 HD
ENDBRANCH  13  15
ENDBRANCH   1  13
TORSDOF 3
ENDMDL
MODEL 4
REMARK VINA RESULT:      -5.9      1.848      4.168
REMARK  Name = 
REMARK  6 active torsions:
REMARK  status: ('A' for Active; 'I' for Inactive)
REMARK    1  A    between atoms: C_1  and  N_2
REMARK    2  A    between atoms: N_2  and  C_3
REMARK    3  A    between atoms: C_3  and  C_4
REMARK    4  A    between atoms: N_6  and  C_7
REMARK    5  A    between atoms: C_11  and  O_12
REMARK    6  A    between atoms: O_12  and  C_13
REMARK                            x       y       z     vdW  Elec       q    Type
REMARK                         _______ _______ _______ _____ _____    ______ ____
ROOT
ATOM      1  C   UNL     1       3.017   3.702  18.042  0.00  0.00    +0.000 A 
ATOM      2  C   UNL     1       2.366   4.681  18.775  0.00  0.00    +0.000 A 
ATOM      3  N   UNL     1       2.874   5.900  18.418  0.00  0.00    +0.000 N 
ATOM      4  C   UNL     1       2.431   7.166  18.958  0.00  0.00    +0.000 C 
ATOM      5  C   UNL     1       3.869   5.749  17.480  0.00  0.00    +0.000 A 
ATOM      6  C   UNL     1       4.669   6.700  16.829  0.00  0.00    +0.000 A 
ATOM      7  C   UNL     1       5.626   6.246  15.913  0.00  0.00    +0.000 A 
ATOM      8  C   UNL     1       5.785   4.887  15.652  0.00  0.00    +0.000 A 
ATOM      9  C   UNL     1       4.968   3.953  16.305  0.00  0.00    +0.000 A 
ATOM     10  C   UNL     1       3.989   4.379  17.231  0.00  0.00    +0.000 A 
ENDROOT
BRANCH   8  11
ATOM     11  O   UNL     1       6.696   4.341  14.789  0.00  0.00    +0.000 OA
ATOM     12  C   UNL     1       6.192   3.842  13.556  0.00  0.00    +0.000 C 
ENDBRANCH   8  11
BRANCH   1  13
ATOM     13  C   UNL     1       2.769   2.227  18.110  0.00  0.00    +0.000 C 
BRANCH  13  15
ATOM     14  C   UNL     1       4.328   2.031  19.932  0.00  0.00    +0.000 C 
ATOM     15  N   UNL     1       3.983   1.573  18.597  0.00  0.00    +0.000 NA
ATOM     16  H   UNL     1       3.827   0.567  18.611  0.00  0.00    +0.000 HD
ENDBRANCH  13  15
ENDBRANCH   1  13
TORSDOF 3
ENDMDL
MODEL 5
REMARK VINA RESULT:      -5.8      1.926      4.028
REMARK  Name = 
REMARK  6 active torsions:
REMARK  status: ('A' for Active; 'I' for Inactive)
REMARK    1  A    between atoms: C_1  and  N_2
REMARK    2  A    between atoms: N_2  and  C_3
REMARK    3  A    between atoms: C_3  and  C_4
REMARK    4  A    between atoms: N_6  and  C_7
REMARK    5  A    between atoms: C_11  and  O_12
REMARK    6  A    between atoms: O_12  and  C_13
REMARK                            x       y       z     vdW  Elec       q    Type
REMARK                         _______ _______ _______ _____ _____    ______ ____
ROOT
ATOM      1  C   UNL     1       3.279   3.943  18.518  0.00  0.00    +0.000 A 
ATOM      2  C   UNL     1       2.646   5.034  19.092  0.00  0.00    +0.000 A 
ATOM      3  N   UNL     1       3.039   6.163  18.425  0.00  0.00    +0.000 N 
ATOM      4  C   UNL     1       2.576   7.499  18.727  0.00  0.00    +0.000 C 
ATOM      5  C   UNL     1       3.941   5.846  17.435  0.00  0.00    +0.000 A 
ATOM      6  C   UNL     1       4.609   6.659  16.509  0.00  0.00    +0.000 A 
ATOM      7  C   UNL     1       5.494   6.051  15.610  0.00  0.00    +0.000 A 
ATOM      8  C   UNL     1       5.709   4.675  15.631  0.00  0.00    +0.000 A 
ATOM      9  C   UNL     1       5.023   3.878  16.558  0.00  0.00    +0.000 A 
ATOM     10  C   UNL     1       4.119   4.461  17.475  0.00  0.00    +0.000 A 
ENDROOT
BRANCH   8  11
ATOM     11  O   UNL     1       6.560   3.987  14.808  0.00  0.00    +0.000 OA
ATOM     12  C   UNL     1       6.131   3.785  13.467  0.00  0.00    +0.000 C 
ENDBRANCH   8  11
BRANCH   1  13
ATOM     13  C   UNL     1       3.130   2.511  18.929  0.00  0.00    +0.000 C 
BRANCH  13  15
ATOM     14  C   UNL     1       0.748   2.218  18.751  0.00  0.00    +0.000 C 
ATOM     15  N   UNL     1       2.039   1.915  18.157  0.00  0.00    +0.000 NA
ATOM     16  H   UNL     1       2.075   2.284  17.209  0.00  0.00    +0.000 HD
ENDBRANCH  13  15
ENDBRANCH   1  13
TORSDOF 3
ENDMDL
MODEL 6
REMARK VINA RESULT:      -5.8      2.207      4.060
REMARK  Name = 
REMARK  6 active torsions:
REMARK  status: ('A' for Active; 'I' for Inactive)
REMARK    1  A    between atoms: C_1  and  N_2
REMARK    2  A    between atoms: N_2  and  C_3
REMARK    3  A    between atoms: C_3  and  C_4
REMARK    4  A    between atoms: N_6  and  C_7
REMARK    5  A    between atoms: C_11  and  O_12
REMARK    6  A    between atoms: O_12  and  C_13
REMARK                            x       y       z     vdW  Elec       q    Type
REMARK                         _______ _______ _______ _____ _____    ______ ____
ROOT
ATOM      1  C   UNL     1       2.570   4.175  18.841  0.00  0.00    +0.000 A 
ATOM      2  C   UNL     1       2.081   5.369  19.344  0.00  0.00    +0.000 A 
ATOM      3  N   UNL     1       2.672   6.400  18.666  0.00  0.00    +0.000 N 
ATOM      4  C   UNL     1       2.401   7.801  18.900  0.00  0.00    +0.000 C 
ATOM      5  C   UNL     1       3.565   5.914  17.739  0.00  0.00    +0.000 A 
ATOM      6  C   UNL     1       4.395   6.582  16.827  0.00  0.00    +0.000 A 
ATOM      7  C   UNL     1       5.224   5.815  15.999  0.00  0.00    +0.000 A 
ATOM      8  C   UNL     1       5.228   4.425  16.075  0.00  0.00    +0.000 A 
ATOM      9  C   UNL     1       4.383   3.775  16.986  0.00  0.00    +0.000 A 
ATOM     10  C   UNL     1       3.532   4.521  17.832  0.00  0.00    +0.000 A 
ENDROOT
BRANCH   8  11
ATOM     11  O   UNL     1       6.007   3.585  15.324  0.00  0.00    +0.000 OA
ATOM     12  C   UNL     1       6.313   4.009  14.001  0.00  0.00    +0.000 C 
ENDBRANCH   8  11
BRANCH   1  13
ATOM     13  C   UNL     1       2.187   2.798  19.288  0.00  0.00    +0.000 C 
BRANCH  13  15
ATOM     14  C   UNL     1       1.570   2.570  21.603  0.00  0.00    +0.000 C 
ATOM     15  N   UNL     1       1.107   2.911  20.268  0.00  0.00    +0.000 NA
ATOM     16  H   UNL     1       0.760   3.868  20.260  0.00  0.00    +0.000 HD
ENDBRANCH  13  15
ENDBRANCH   1  13
TORSDOF 3
ENDMDL
MODEL 7
REMARK VINA RESULT:      -5.7      2.542      5.047
REMARK  Name = 
REMARK  6 active torsions:
REMARK  status: ('A' for Active; 'I' for Inactive)
REMARK    1  A    between atoms: C_1  and  N_2
REMARK    2  A    between atoms: N_2  and  C_3
REMARK    3  A    between atoms: C_3  and  C_4
REMARK    4  A    between atoms: N_6  and  C_7
REMARK    5  A    between atoms: C_11  and  O_12
REMARK    6  A    between atoms: O_12  and  C_13
REMARK                            x       y       z     vdW  Elec       q    Type
REMARK                         _______ _______ _______ _____ _____    ______ ____
ROOT
ATOM      1  C   UNL     1       5.523   5.857  17.194  0.00  0.00    +0.000 A 
ATOM      2  C   UNL     1       5.072   7.166  17.242  0.00  0.00    +0.000 A 
ATOM      3  N   UNL     1       3.738   7.154  17.548  0.00  0.00    +0.000 N 
ATOM      4  C   UNL     1       2.919   8.335  17.703  0.00  0.00    +0.000 C 
ATOM      5  C   UNL     1       3.288   5.860  17.677  0.00  0.00    +0.000 A 
ATOM      6  C   UNL     1       2.013   5.358  17.977  0.00  0.00    +0.000 A 
ATOM      7  C   UNL     1       1.843   3.970  18.033  0.00  0.00    +0.000 A 
ATOM      8  C   UNL     1       2.908   3.105  17.797  0.00  0.00    +0.000 A 
ATOM      9  C   UNL     1       4.178   3.626  17.509  0.00  0.00    +0.000 A 
ATOM     10  C   UNL     1       4.383   5.023  17.451  0.00  0.00    +0.000 A 
ENDROOT
BRANCH   8  11
ATOM     11  O   UNL     1       2.845   1.737  17.813  0.00  0.00    +0.000 OA
ATOM     12  C   UNL     1       3.839   1.059  18.573  0.00  0.00    +0.000 C 
ENDBRANCH   8  11
BRANCH   1  13
ATOM     13  C   UNL     1       6.922   5.408  16.901  0.00  0.00    +0.000 C 
BRANCH  13  15
ATOM     14  C   UNL     1       6.826   4.635  14.624  0.00  0.00    +0.000 C 
ATOM     15  N   UNL     1       7.228   5.720  15.505  0.00  0.00    +0.000 NA
ATOM     16  H   UNL     1       6.733   6.571  15.247  0.00  0.00    +0.000 HD
ENDBRANCH  13  15
ENDBRANCH   1  13
TORSDOF 3
ENDMDL
MODEL 8
REMARK VINA RESULT:      -5.7      3.069      4.585
REMARK  Name = 
REMARK  6 active torsions:
REMARK  status: ('A' for Active; 'I' for Inactive)
REMARK    1  A    between atoms: C_1  and  N_2
REMARK    2  A    between atoms: N_2  and  C_3
REMARK    3  A    between atoms: C_3  and  C_4
REMARK    4  A    between atoms: N_6  and  C_7
REMARK    5  A    between atoms: C_11  and  O_12
REMARK    6  A    between atoms: O_12  and  C_13
REMARK                            x       y       z     vdW  Elec       q    Type
REMARK                         _______ _______ _______ _____ _____    ______ ____
ROOT
ATOM      1  C   UNL     1       6.777   5.940  17.410  0.00  0.00    +0.000 A 
ATOM      2  C   UNL     1       7.014   5.432  16.143  0.00  0.00    +0.000 A 
ATOM      3  N   UNL     1       5.997   4.574  15.823  0.00  0.00    +0.000 N 
ATOM      4  C   UNL     1       5.886   3.859  14.571  0.00  0.00    +0.000 C 
ATOM      5  C   UNL     1       5.102   4.483  16.864  0.00  0.00    +0.000 A 
ATOM      6  C   UNL     1       3.921   3.737  16.996  0.00  0.00    +0.000 A 
ATOM      7  C   UNL     1       3.206   3.835  18.196  0.00  0.00    +0.000 A 
ATOM      8  C   UNL     1       3.651   4.648  19.235  0.00  0.00    +0.000 A 
ATOM      9  C   UNL     1       4.829   5.394  19.079  0.00  0.00    +0.000 A 
ATOM     10  C   UNL     1       5.570   5.321  17.879  0.00  0.00    +0.000 A 
ENDROOT
BRANCH   8  11
ATOM     11  O   UNL     1       3.036   4.803  20.449  0.00  0.00    +0.000 OA
ATOM     12  C   UNL     1       1.616   4.895  20.440  0.00  0.00    +0.000 C 
ENDBRANCH   8  11
BRANCH   1  13
ATOM     13  C   UNL     1       7.634   6.922  18.148  0.00  0.00    +0.000 C 
BRANCH  13  15
ATOM     14  C   UNL     1       8.325   9.227  18.103  0.00  0.00    +0.000 C 
ATOM     15  N   UNL     1       7.771   8.127  17.330  0.00  0.00    +0.000 NA
ATOM     16  H   UNL     1       8.384   7.918  16.545  0.00  0.00    +0.000 HD
ENDBRANCH  13  15
ENDBRANCH   1  13
TORSDOF 3
ENDMDL
MODEL 9
REMARK VINA RESULT:      -5.7      2.612      4.430
REMARK  Name = 
REMARK  6 active torsions:
REMARK  status: ('A' for Active; 'I' for Inactive)
REMARK    1  A    between atoms: C_1  and  N_2
REMARK    2  A    between atoms: N_2  and  C_3
REMARK    3  A    between atoms: C_3  and  C_4
REMARK    4  A    between atoms: N_6  and  C_7
REMARK    5  A    between atoms: C_11  and  O_12
REMARK    6  A    between atoms: O_12  and  C_13
REMARK                            x       y       z     vdW  Elec       q    Type
REMARK                         _______ _______ _______ _____ _____    ______ ____
ROOT
ATOM      1  C   UNL     1       4.489   5.199  16.876  0.00  0.00    +0.000 A 
ATOM      2  C   UNL     1       4.560   3.815  16.873  0.00  0.00    +0.000 A 
ATOM      3  N   UNL     1       3.763   3.337  17.877  0.00  0.00    +0.000 N 
ATOM      4  C   UNL     1       3.567   1.937  18.177  0.00  0.00    +0.000 C 
ATOM      5  C   UNL     1       3.183   4.379  18.565  0.00  0.00    +0.000 A 
ATOM      6  C   UNL     1       2.304   4.380  19.658  0.00  0.00    +0.000 A 
ATOM      7  C   UNL     1       1.879   5.614  20.166  0.00  0.00    +0.000 A 
ATOM      8  C   UNL     1       2.314   6.811  19.605  0.00  0.00    +0.000 A 
ATOM      9  C   UNL     1       3.184   6.789  18.505  0.00  0.00    +0.000 A 
ATOM     10  C   UNL     1       3.627   5.561  17.966  0.00  0.00    +0.000 A 
ENDROOT
BRANCH   8  11
ATOM     11  O   UNL     1       1.970   8.066  20.033  0.00  0.00    +0.000 OA
ATOM     12  C   UNL     1       1.167   8.146  21.204  0.00  0.00    +0.000 C 
ENDBRANCH   8  11
BRANCH   1  13
ATOM     13  C   UNL     1       5.197   6.128  15.939  0.00  0.00    +0.000 C 
BRANCH  13  15
ATOM     14  C   UNL     1       7.106   6.753  17.264  0.00  0.00    +0.000 C 
ATOM     15  N   UNL     1       6.639   5.972  16.131  0.00  0.00    +0.000 NA
ATOM     16  H   UNL     1       6.841   4.986  16.289  0.00  0.00    +0.000 HD
ENDBRANCH  13  15
ENDBRANCH   1  13
TORSDOF 3
ENDMDL
