MODEL 1
REMARK VINA RESULT:      -8.6      0.000      0.000
REMARK  Name = 
REMARK  6 active torsions:
REMARK  status: ('A' for Active; 'I' for Inactive)
REMARK    1  A    between atoms: C_1  and  O_2
REMARK    2  A    between atoms: O_2  and  C_3
REMARK    3  A    between atoms: C_5  and  N_6
REMARK    4  A    between atoms: C_9  and  C_10
REMARK    5  A    between atoms: N_13  and  C_14
REMARK    6  A    between atoms: C_14  and  C_15
REMARK                            x       y       z     vdW  Elec       q    Type
REMARK                         _______ _______ _______ _____ _____    ______ ____
ROOT
ATOM      1  N   UNL     1       5.230   3.521  18.777  0.00  0.00    +0.000 N 
ATOM      2  C   UNL     1       4.104   4.029  19.470  0.00  0.00    +0.000 A 
ATOM      3  C   UNL     1       3.391   3.159  20.271  0.00  0.00    +0.000 A 
ATOM      4  C   UNL     1       2.263   3.664  20.876  0.00  0.00    +0.000 A 
ATOM      5  C   UNL     1       1.352   2.805  21.693  0.00  0.00    +0.000 C 
ATOM      6  N   UNL     1       1.893   4.949  20.737  0.00  0.00    +0.000 NA
ATOM      7  C   UNL     1       2.648   5.737  19.965  0.00  0.00    +0.000 A 
ATOM      8  N   UNL     1       2.303   7.072  19.802  0.00  0.00    +0.000 N 
ATOM      9  N   UNL     1       3.745   5.319  19.328  0.00  0.00    +0.000 NA
ATOM     10  H   UNL     1       5.941   3.226  19.437  0.00  0.00    +0.000 HD
ATOM     11  H   UNL     1       3.132   7.571  19.501  0.00  0.00    +0.000 HD
ENDROOT
BRANCH   1  14
ATOM     12  C   UNL     1       7.020   5.717  16.333  0.00  0.00    +0.000 A 
ATOM     13  C   UNL     1       6.535   5.183  17.532  0.00  0.00    +0.000 A 
ATOM     14  C   UNL     1       5.749   4.020  17.564  0.00  0.00    +0.000 A 
ATOM     15  C   UNL     1       5.394   3.427  16.347  0.00  0.00    +0.000 A 
ATOM     16  C   UNL     1       5.880   3.943  15.141  0.00  0.00    +0.000 A 
ATOM     17  C   UNL     1       6.694   5.073  15.141  0.00  0.00    +0.000 A 
ATOM     18  F   UNL     1       7.138   5.518  13.957  0.00  0.00    +0.000 F 
BRANCH  12  20
ATOM     19  C   UNL     1       7.679   7.516  17.743  0.00  0.00    +0.000 C 
ATOM     20  O   UNL     1       7.772   6.848  16.493  0.00  0.00    +0.000 OA
ENDBRANCH  12  20
ENDBRANCH   1  14
BRANCH   8  21
ATOM     21  C   UNL     1       1.595   7.629  20.933  0.00  0.00    +0.000 C 
BRANCH  21  22
ATOM     22  C   UNL     1       0.912   8.915  20.537  0.00  0.00    +0.000 A 
ATOM     23  C   UNL     1       1.087   9.443  19.250  0.00  0.00    +0.000 A 
ATOM     24  C   UNL     1       0.446  10.625  18.874  0.00  0.00    +0.000 A 
ATOM     25  C   UNL     1      -0.365  11.298  19.787  0.00  0.00    +0.000 A 
ATOM     26  C   UNL     1      -0.537  10.789  21.073  0.00  0.00    +0.000 A 
ATOM     27  C   UNL     1       0.100   9.605  21.449  0.00  0.00    +0.000 A 
ENDBRANCH  21  22
ENDBRANCH   8  21
TORSDOF 4
ENDMDL
MODEL 2
REMARK VINA RESULT:      -8.1      1.209      1.974
REMARK  Name = 
REMARK  6 active torsions:
REMARK  status: ('A' for Active; 'I' for Inactive)
REMARK    1  A    between atoms: C_1  and  O_2
REMARK    2  A    between atoms: O_2  and  C_3
REMARK    3  A    between atoms: C_5  and  N_6
REMARK    4  A    between atoms: C_9  and  C_10
REMARK    5  A    between atoms: N_13  and  C_14
REMARK    6  A    between atoms: C_14  and  C_15
REMARK                            x       y       z     vdW  Elec       q    Type
REMARK                         _______ _______ _______ _____ _____    ______ ____
ROOT
ATOM      1  N   UNL     1       5.207   3.545  18.359  0.00  0.00    +0.000 N 
ATOM      2  C   UNL     1       4.095   4.084  19.052  0.00  0.00    +0.000 A 
ATOM      3  C   UNL     1       3.317   3.220  19.796  0.00  0.00    +0.000 A 
ATOM      4  C   UNL     1       2.205   3.760  20.401  0.00  0.00    +0.000 A 
ATOM      5  C   UNL     1       1.228   2.917  21.158  0.00  0.00    +0.000 C 
ATOM      6  N   UNL     1       1.911   5.069  20.316  0.00  0.00    +0.000 NA
ATOM      7  C   UNL     1       2.727   5.848  19.598  0.00  0.00    +0.000 A 
ATOM      8  N   UNL     1       2.462   7.207  19.493  0.00  0.00    +0.000 N 
ATOM      9  N   UNL     1       3.813   5.398  18.965  0.00  0.00    +0.000 NA
ATOM     10  H   UNL     1       5.885   3.179  19.018  0.00  0.00    +0.000 HD
ATOM     11  H   UNL     1       3.324   7.670  19.233  0.00  0.00    +0.000 HD
ENDROOT
BRANCH   1  14
ATOM     12  C   UNL     1       5.796   4.294  14.741  0.00  0.00    +0.000 A 
ATOM     13  C   UNL     1       5.215   3.818  15.921  0.00  0.00    +0.000 A 
ATOM     14  C   UNL     1       5.781   4.070  17.182  0.00  0.00    +0.000 A 
ATOM     15  C   UNL     1       6.996   4.762  17.236  0.00  0.00    +0.000 A 
ATOM     16  C   UNL     1       7.583   5.252  16.065  0.00  0.00    +0.000 A 
ATOM     17  C   UNL     1       6.977   5.026  14.832  0.00  0.00    +0.000 A 
ATOM     18  F   UNL     1       7.580   5.527  13.744  0.00  0.00    +0.000 F 
BRANCH  12  20
ATOM     19  C   UNL     1       5.838   3.337  12.563  0.00  0.00    +0.000 C 
ATOM     20  O   UNL     1       5.105   3.959  13.608  0.00  0.00    +0.000 OA
ENDBRANCH  12  20
ENDBRANCH   1  14
BRANCH   8  21
ATOM     21  C   UNL     1       1.760   7.750  20.635  0.00  0.00    +0.000 C 
BRANCH  21  22
ATOM     22  C   UNL     1       0.996   8.988  20.235  0.00  0.00    +0.000 A 
ATOM     23  C   UNL     1       1.115   9.506  18.936  0.00  0.00    +0.000 A 
ATOM     24  C   UNL     1       0.400  10.643  18.558  0.00  0.00    +0.000 A 
ATOM     25  C   UNL     1      -0.431  11.282  19.477  0.00  0.00    +0.000 A 
ATOM     26  C   UNL     1      -0.548  10.784  20.774  0.00  0.00    +0.000 A 
ATOM     27  C   UNL     1       0.163   9.644  21.153  0.00  0.00    +0.000 A 
ENDBRANCH  21  22
ENDBRANCH   8  21
TORSDOF 4
ENDMDL
MODEL 3
REMARK VINA RESULT:      -8.0      1.977      2.695
REMARK  Name = 
REMARK  6 active torsions:
REMARK  status: ('A' for Active; 'I' for Inactive)
REMARK    1  A    between atoms: C_1  and  O_2
REMARK    2  A    between atoms: O_2  and  C_3
REMARK    3  A    between atoms: C_5  and  N_6
REMARK    4  A    between atoms: C_9  and  C_10
REMARK    5  A    between atoms: N_13  and  C_14
REMARK    6  A    between atoms: C_14  and  C_15
REMARK                            x       y       z     vdW  Elec       q    Type
REMARK                         _______ _______ _______ _____ _____    ______ ____
ROOT
ATOM      1  N   UNL     1       5.059   3.057  16.690  0.00  0.00    +0.000 N 
ATOM      2  C   UNL     1       4.011   3.619  17.461  0.00  0.00    +0.000 A 
ATOM      3  C   UNL     1       3.025   2.773  17.926  0.00  0.00    +0.000 A 
ATOM      4  C   UNL     1       1.984   3.358  18.612  0.00  0.00    +0.000 A 
ATOM      5  C   UNL     1       0.807   2.567  19.087  0.00  0.00    +0.000 C 
ATOM      6  N   UNL     1       1.946   4.678  18.860  0.00  0.00    +0.000 NA
ATOM      7  C   UNL     1       2.951   5.430  18.399  0.00  0.00    +0.000 A 
ATOM      8  N   UNL     1       2.952   6.797  18.641  0.00  0.00    +0.000 N 
ATOM      9  N   UNL     1       3.985   4.943  17.709  0.00  0.00    +0.000 NA
ATOM     10  H   UNL     1       5.598   2.411  17.256  0.00  0.00    +0.000 HD
ATOM     11  H   UNL     1       3.904   7.128  18.541  0.00  0.00    +0.000 HD
ENDROOT
BRANCH   1  14
ATOM     12  C   UNL     1       6.436   4.077  13.365  0.00  0.00    +0.000 A 
ATOM     13  C   UNL     1       5.659   3.450  14.345  0.00  0.00    +0.000 A 
ATOM     14  C   UNL     1       5.818   3.731  15.712  0.00  0.00    +0.000 A 
ATOM     15  C   UNL     1       6.831   4.619  16.092  0.00  0.00    +0.000 A 
ATOM     16  C   UNL     1       7.609   5.261  15.122  0.00  0.00    +0.000 A 
ATOM     17  C   UNL     1       7.400   4.996  13.771  0.00  0.00    +0.000 A 
ATOM     18  F   UNL     1       8.168   5.647  12.886  0.00  0.00    +0.000 F 
BRANCH  12  20
ATOM     19  C   UNL     1       4.819   3.222  11.842  0.00  0.00    +0.000 C 
ATOM     20  O   UNL     1       6.139   3.685  12.088  0.00  0.00    +0.000 OA
ENDBRANCH  12  20
ENDBRANCH   1  14
BRANCH   8  21
ATOM     21  C   UNL     1       2.268   7.170  19.859  0.00  0.00    +0.000 C 
BRANCH  21  22
ATOM     22  C   UNL     1       1.514   8.462  19.659  0.00  0.00    +0.000 A 
ATOM     23  C   UNL     1       1.546   9.116  18.418  0.00  0.00    +0.000 A 
ATOM     24  C   UNL     1       0.840  10.304  18.224  0.00  0.00    +0.000 A 
ATOM     25  C   UNL     1       0.106  10.857  19.272  0.00  0.00    +0.000 A 
ATOM     26  C   UNL     1       0.076  10.222  20.513  0.00  0.00    +0.000 A 
ATOM     27  C   UNL     1       0.778   9.032  20.708  0.00  0.00    +0.000 A 
ENDBRANCH  21  22
ENDBRANCH   8  21
TORSDOF 4
ENDMDL
MODEL 4
REMARK VINA RESULT:      -7.9      3.230      5.416
REMARK  Name = 
REMARK  6 active torsions:
REMARK  status: ('A' for Active; 'I' for Inactive)
REMARK    1  A    between atoms: C_1  and  O_2
REMARK    2  A    between atoms: O_2  and  C_3
REMARK    3  A    between atoms: C_5  and  N_6
REMARK    4  A    between atoms: C_9  and  C_10
REMARK    5  A    between atoms: N_13  and  C_14
REMARK    6  A    between atoms: C_14  and  C_15
REMARK                            x       y       z     vdW  Elec       q    Type
REMARK                         _______ _______ _______ _____ _____    ______ ____
ROOT
ATOM      1  N   UNL     1       2.544   7.177  20.413  0.00  0.00    +0.000 N 
ATOM      2  C   UNL     1       1.551   8.189  20.434  0.00  0.00    +0.000 A 
ATOM      3  C   UNL     1       1.055   8.582  21.660  0.00  0.00    +0.000 A 
ATOM      4  C   UNL     1       0.044   9.516  21.644  0.00  0.00    +0.000 A 
ATOM      5  C   UNL     1      -0.644   9.958  22.896  0.00  0.00    +0.000 C 
ATOM      6  N   UNL     1      -0.410  10.056  20.500  0.00  0.00    +0.000 NA
ATOM      7  C   UNL     1       0.138   9.643  19.352  0.00  0.00    +0.000 A 
ATOM      8  N   UNL     1      -0.298  10.183  18.150  0.00  0.00    +0.000 N 
ATOM      9  N   UNL     1       1.108   8.727  19.283  0.00  0.00    +0.000 NA
ATOM     10  H   UNL     1       3.384   7.505  20.876  0.00  0.00    +0.000 HD
ATOM     11  H   UNL     1       0.429  10.031  17.462  0.00  0.00    +0.000 HD
ENDROOT
BRANCH   1  14
ATOM     12  C   UNL     1       2.140   4.314  18.039  0.00  0.00    +0.000 A 
ATOM     13  C   UNL     1       1.891   5.239  19.059  0.00  0.00    +0.000 A 
ATOM     14  C   UNL     1       2.787   6.280  19.353  0.00  0.00    +0.000 A 
ATOM     15  C   UNL     1       3.989   6.341  18.638  0.00  0.00    +0.000 A 
ATOM     16  C   UNL     1       4.247   5.429  17.609  0.00  0.00    +0.000 A 
ATOM     17  C   UNL     1       3.321   4.433  17.310  0.00  0.00    +0.000 A 
ATOM     18  F   UNL     1       3.616   3.593  16.308  0.00  0.00    +0.000 F 
BRANCH  12  20
ATOM     19  C   UNL     1       1.201   2.249  18.756  0.00  0.00    +0.000 C 
ATOM     20  O   UNL     1       1.157   3.375  17.890  0.00  0.00    +0.000 OA
ENDBRANCH  12  20
ENDBRANCH   1  14
BRANCH   8  21
ATOM     21  C   UNL     1      -0.797  11.535  18.270  0.00  0.00    +0.000 C 
BRANCH  21  22
ATOM     22  C   UNL     1      -2.280  11.569  17.991  0.00  0.00    +0.000 A 
ATOM     23  C   UNL     1      -3.180  11.956  18.994  0.00  0.00    +0.000 A 
ATOM     24  C   UNL     1      -4.552  12.002  18.738  0.00  0.00    +0.000 A 
ATOM     25  C   UNL     1      -5.037  11.649  17.480  0.00  0.00    +0.000 A 
ATOM     26  C   UNL     1      -4.153  11.252  16.479  0.00  0.00    +0.000 A 
ATOM     27  C   UNL     1      -2.780  11.209  16.732  0.00  0.00    +0.000 A 
ENDBRANCH  21  22
ENDBRANCH   8  21
TORSDOF 4
ENDMDL
MODEL 5
REMARK VINA RESULT:      -7.8      1.757      2.654
REMARK  Name = 
REMARK  6 active torsions:
REMARK  status: ('A' for Active; 'I' for Inactive)
REMARK    1  A    between atoms: C_1  and  O_2
REMARK    2  A    between atoms: O_2  and  C_3
REMARK    3  A    between atoms: C_5  and  N_6
REMARK    4  A    between atoms: C_9  and  C_10
REMARK    5  A    between atoms: N_13  and  C_14
REMARK    6  A    between atoms: C_14  and  C_15
REMARK                            x       y       z     vdW  Elec       q    Type
REMARK                         _______ _______ _______ _____ _____    ______ ____
ROOT
ATOM      1  N   UNL     1       4.926   3.151  17.219  0.00  0.00    +0.000 N 
ATOM      2  C   UNL     1       3.894   3.758  17.977  0.00  0.00    +0.000 A 
ATOM      3  C   UNL     1       2.960   2.936  18.573  0.00  0.00    +0.000 A 
ATOM      4  C   UNL     1       1.931   3.558  19.244  0.00  0.00    +0.000 A 
ATOM      5  C   UNL     1       0.804   2.787  19.854  0.00  0.00    +0.000 C 
ATOM      6  N   UNL     1       1.859   4.896  19.357  0.00  0.00    +0.000 NA
ATOM      7  C   UNL     1       2.816   5.625  18.773  0.00  0.00    +0.000 A 
ATOM      8  N   UNL     1       2.780   7.009  18.874  0.00  0.00    +0.000 N 
ATOM      9  N   UNL     1       3.834   5.099  18.089  0.00  0.00    +0.000 NA
ATOM     10  H   UNL     1       5.512   2.583  17.822  0.00  0.00    +0.000 HD
ATOM     11  H   UNL     1       3.715   7.356  18.696  0.00  0.00    +0.000 HD
ENDROOT
BRANCH   1  14
ATOM     12  C   UNL     1       5.935   4.048  13.730  0.00  0.00    +0.000 A 
ATOM     13  C   UNL     1       5.233   3.505  14.812  0.00  0.00    +0.000 A 
ATOM     14  C   UNL     1       5.618   3.742  16.142  0.00  0.00    +0.000 A 
ATOM     15  C   UNL     1       6.778   4.490  16.372  0.00  0.00    +0.000 A 
ATOM     16  C   UNL     1       7.484   5.047  15.301  0.00  0.00    +0.000 A 
ATOM     17  C   UNL     1       7.055   4.833  13.994  0.00  0.00    +0.000 A 
ATOM     18  F   UNL     1       7.765   5.398  13.007  0.00  0.00    +0.000 F 
BRANCH  12  20
ATOM     19  C   UNL     1       6.029   2.643  11.812  0.00  0.00    +0.000 C 
ATOM     20  O   UNL     1       5.414   3.717  12.509  0.00  0.00    +0.000 OA
ENDBRANCH  12  20
ENDBRANCH   1  14
BRANCH   8  21
ATOM     21  C   UNL     1       2.138   7.486  20.079  0.00  0.00    +0.000 C 
BRANCH  21  22
ATOM     22  C   UNL     1       1.254   8.668  19.765  0.00  0.00    +0.000 A 
ATOM     23  C   UNL     1       0.426   9.217  20.755  0.00  0.00    +0.000 A 
ATOM     24  C   UNL     1      -0.384  10.318  20.474  0.00  0.00    +0.000 A 
ATOM     25  C   UNL     1      -0.383  10.874  19.196  0.00  0.00    +0.000 A 
ATOM     26  C   UNL     1       0.428  10.331  18.200  0.00  0.00    +0.000 A 
ATOM     27  C   UNL     1       1.241   9.232  18.481  0.00  0.00    +0.000 A 
ENDBRANCH  21  22
ENDBRANCH   8  21
TORSDOF 4
ENDMDL
MODEL 6
REMARK VINA RESULT:      -7.8      3.221      5.347
REMARK  Name = 
REMARK  6 active torsions:
REMARK  status: ('A' for Active; 'I' for Inactive)
REMARK    1  A    between atoms: C_1  and  O_2
REMARK    2  A    between atoms: O_2  and  C_3
REMARK    3  A    between atoms: C_5  and  N_6
REMARK    4  A    between atoms: C_9  and  C_10
REMARK    5  A    between atoms: N_13  and  C_14
REMARK    6  A    between atoms: C_14  and  C_15
REMARK                            x       y       z     vdW  Elec       q    Type
REMARK                         _______ _______ _______ _____ _____    ______ ____
ROOT
ATOM      1  N   UNL     1       2.551   7.210  20.406  0.00  0.00    +0.000 N 
ATOM      2  C   UNL     1       1.550   8.213  20.424  0.00  0.00    +0.000 A 
ATOM      3  C   UNL     1       1.060   8.615  21.650  0.00  0.00    +0.000 A 
ATOM      4  C   UNL     1       0.040   9.540  21.632  0.00  0.00    +0.000 A 
ATOM      5  C   UNL     1      -0.642   9.989  22.885  0.00  0.00    +0.000 C 
ATOM      6  N   UNL     1      -0.427  10.064  20.486  0.00  0.00    +0.000 NA
ATOM      7  C   UNL     1       0.116   9.644  19.338  0.00  0.00    +0.000 A 
ATOM      8  N   UNL     1      -0.334  10.168  18.134  0.00  0.00    +0.000 N 
ATOM      9  N   UNL     1       1.093   8.736  19.270  0.00  0.00    +0.000 NA
ATOM     10  H   UNL     1       3.392   7.549  20.858  0.00  0.00    +0.000 HD
ATOM     11  H   UNL     1       0.389  10.015  17.441  0.00  0.00    +0.000 HD
ENDROOT
BRANCH   1  14
ATOM     12  C   UNL     1       2.387   4.143  18.269  0.00  0.00    +0.000 A 
ATOM     13  C   UNL     1       2.125   5.071  19.283  0.00  0.00    +0.000 A 
ATOM     14  C   UNL     1       2.794   6.304  19.352  0.00  0.00    +0.000 A 
ATOM     15  C   UNL     1       3.795   6.569  18.411  0.00  0.00    +0.000 A 
ATOM     16  C   UNL     1       4.061   5.654  17.386  0.00  0.00    +0.000 A 
ATOM     17  C   UNL     1       3.352   4.458  17.315  0.00  0.00    +0.000 A 
ATOM     18  F   UNL     1       3.643   3.624  16.307  0.00  0.00    +0.000 F 
BRANCH  12  20
ATOM     19  C   UNL     1       0.854   2.828  19.528  0.00  0.00    +0.000 C 
ATOM     20  O   UNL     1       1.638   3.001  18.356  0.00  0.00    +0.000 OA
ENDBRANCH  12  20
ENDBRANCH   1  14
BRANCH   8  21
ATOM     21  C   UNL     1      -0.843  11.517  18.244  0.00  0.00    +0.000 C 
BRANCH  21  22
ATOM     22  C   UNL     1      -2.321  11.542  17.934  0.00  0.00    +0.000 A 
ATOM     23  C   UNL     1      -2.784  11.187  16.659  0.00  0.00    +0.000 A 
ATOM     24  C   UNL     1      -4.150  11.197  16.371  0.00  0.00    +0.000 A 
ATOM     25  C   UNL     1      -5.065  11.573  17.353  0.00  0.00    +0.000 A 
ATOM     26  C   UNL     1      -4.616  11.939  18.620  0.00  0.00    +0.000 A 
ATOM     27  C   UNL     1      -3.250  11.926  18.911  0.00  0.00    +0.000 A 
ENDBRANCH  21  22
ENDBRANCH   8  21
TORSDOF 4
ENDMDL
MODEL 7
REMARK VINA RESULT:      -7.7      1.344      1.715
REMARK  Name = 
REMARK  6 active torsions:
REMARK  status: ('A' for Active; 'I' for Inactive)
REMARK    1  A    between atoms: C_1  and  O_2
REMARK    2  A    between atoms: O_2  and  C_3
REMARK    3  A    between atoms: C_5  and  N_6
REMARK    4  A    between atoms: C_9  and  C_10
REMARK    5  A    between atoms: N_13  and  C_14
REMARK    6  A    between atoms: C_14  and  C_15
REMARK                            x       y       z     vdW  Elec       q    Type
REMARK                         _______ _______ _______ _____ _____    ______ ____
ROOT
ATOM      1  N   UNL     1       4.840   2.935  16.965  0.00  0.00    +0.000 N 
ATOM      2  C   UNL     1       3.776   3.482  17.725  0.00  0.00    +0.000 A 
ATOM      3  C   UNL     1       2.753   2.638  18.106  0.00  0.00    +0.000 A 
ATOM      4  C   UNL     1       1.700   3.212  18.781  0.00  0.00    +0.000 A 
ATOM      5  C   UNL     1       0.487   2.428  19.168  0.00  0.00    +0.000 C 
ATOM      6  N   UNL     1       1.684   4.518  19.100  0.00  0.00    +0.000 NA
ATOM      7  C   UNL     1       2.724   5.267  18.719  0.00  0.00    +0.000 A 
ATOM      8  N   UNL     1       2.748   6.619  19.035  0.00  0.00    +0.000 N 
ATOM      9  N   UNL     1       3.773   4.790  18.043  0.00  0.00    +0.000 NA
ATOM     10  H   UNL     1       5.341   2.245  17.515  0.00  0.00    +0.000 HD
ATOM     11  H   UNL     1       3.711   6.930  18.990  0.00  0.00    +0.000 HD
ENDROOT
BRANCH   1  14
ATOM     12  C   UNL     1       7.200   5.479  15.568  0.00  0.00    +0.000 A 
ATOM     13  C   UNL     1       6.422   4.741  16.467  0.00  0.00    +0.000 A 
ATOM     14  C   UNL     1       5.654   3.640  16.055  0.00  0.00    +0.000 A 
ATOM     15  C   UNL     1       5.625   3.325  14.691  0.00  0.00    +0.000 A 
ATOM     16  C   UNL     1       6.405   4.048  13.783  0.00  0.00    +0.000 A 
ATOM     17  C   UNL     1       7.192   5.109  14.225  0.00  0.00    +0.000 A 
ATOM     18  F   UNL     1       7.926   5.760  13.311  0.00  0.00    +0.000 F 
BRANCH  12  20
ATOM     19  C   UNL     1       7.356   7.047  17.351  0.00  0.00    +0.000 C 
ATOM     20  O   UNL     1       7.886   6.513  16.146  0.00  0.00    +0.000 OA
ENDBRANCH  12  20
ENDBRANCH   1  14
BRANCH   8  21
ATOM     21  C   UNL     1       2.026   6.943  20.245  0.00  0.00    +0.000 C 
BRANCH  21  22
ATOM     22  C   UNL     1       1.492   8.353  20.170  0.00  0.00    +0.000 A 
ATOM     23  C   UNL     1       1.011   8.991  21.323  0.00  0.00    +0.000 A 
ATOM     24  C   UNL     1       0.529  10.299  21.262  0.00  0.00    +0.000 A 
ATOM     25  C   UNL     1       0.510  10.978  20.045  0.00  0.00    +0.000 A 
ATOM     26  C   UNL     1       0.973  10.350  18.890  0.00  0.00    +0.000 A 
ATOM     27  C   UNL     1       1.460   9.043  18.950  0.00  0.00    +0.000 A 
ENDBRANCH  21  22
ENDBRANCH   8  21
TORSDOF 4
ENDMDL
MODEL 8
REMARK VINA RESULT:      -7.7      2.974      5.008
REMARK  Name = 
REMARK  6 active torsions:
REMARK  status: ('A' for Active; 'I' for Inactive)
REMARK    1  A    between atoms: C_1  and  O_2
REMARK    2  A    between atoms: O_2  and  C_3
REMARK    3  A    between atoms: C_5  and  N_6
REMARK    4  A    between atoms: C_9  and  C_10
REMARK    5  A    between atoms: N_13  and  C_14
REMARK    6  A    between atoms: C_14  and  C_15
REMARK                            x       y       z     vdW  Elec       q    Type
REMARK                         _______ _______ _______ _____ _____    ______ ____
ROOT
ATOM      1  N   UNL     1       2.417   7.155  20.586  0.00  0.00    +0.000 N 
ATOM      2  C   UNL     1       1.467   8.206  20.562  0.00  0.00    +0.000 A 
ATOM      3  C   UNL     1       1.035   8.715  21.770  0.00  0.00    +0.000 A 
ATOM      4  C   UNL     1       0.062   9.687  21.715  0.00  0.00    +0.000 A 
ATOM      5  C   UNL     1      -0.559  10.254  22.952  0.00  0.00    +0.000 C 
ATOM      6  N   UNL     1      -0.415  10.155  20.549  0.00  0.00    +0.000 NA
ATOM      7  C   UNL     1       0.072   9.630  19.419  0.00  0.00    +0.000 A 
ATOM      8  N   UNL     1      -0.390  10.093  18.194  0.00  0.00    +0.000 N 
ATOM      9  N   UNL     1       1.001   8.672  19.387  0.00  0.00    +0.000 NA
ATOM     10  H   UNL     1       3.288   7.482  20.990  0.00  0.00    +0.000 HD
ATOM     11  H   UNL     1       0.303   9.857  17.494  0.00  0.00    +0.000 HD
ENDROOT
BRANCH   1  14
ATOM     12  C   UNL     1       3.662   5.384  17.535  0.00  0.00    +0.000 A 
ATOM     13  C   UNL     1       3.515   6.332  18.553  0.00  0.00    +0.000 A 
ATOM     14  C   UNL     1       2.584   6.169  19.592  0.00  0.00    +0.000 A 
ATOM     15  C   UNL     1       1.741   5.052  19.556  0.00  0.00    +0.000 A 
ATOM     16  C   UNL     1       1.883   4.091  18.550  0.00  0.00    +0.000 A 
ATOM     17  C   UNL     1       2.845   4.256  17.556  0.00  0.00    +0.000 A 
ATOM     18  F   UNL     1       2.942   3.299  16.622  0.00  0.00    +0.000 F 
BRANCH  12  20
ATOM     19  C   UNL     1       5.470   6.802  16.915  0.00  0.00    +0.000 C 
ATOM     20  O   UNL     1       4.620   5.705  16.612  0.00  0.00    +0.000 OA
ENDBRANCH  12  20
ENDBRANCH   1  14
BRANCH   8  21
ATOM     21  C   UNL     1      -0.829  11.470  18.223  0.00  0.00    +0.000 C 
BRANCH  21  22
ATOM     22  C   UNL     1      -2.315  11.548  17.968  0.00  0.00    +0.000 A 
ATOM     23  C   UNL     1      -2.838  11.203  16.713  0.00  0.00    +0.000 A 
ATOM     24  C   UNL     1      -4.212  11.260  16.476  0.00  0.00    +0.000 A 
ATOM     25  C   UNL     1      -5.076  11.676  17.487  0.00  0.00    +0.000 A 
ATOM     26  C   UNL     1      -4.567  12.032  18.735  0.00  0.00    +0.000 A 
ATOM     27  C   UNL     1      -3.194  11.971  18.975  0.00  0.00    +0.000 A 
ENDBRANCH  21  22
ENDBRANCH   8  21
TORSDOF 4
ENDMDL
MODEL 9
REMARK VINA RESULT:      -7.5      3.426      5.963
REMARK  Name = 
REMARK  6 active torsions:
REMARK  status: ('A' for Active; 'I' for Inactive)
REMARK    1  A    between atoms: C_1  and  O_2
REMARK    2  A    between atoms: O_2  and  C_3
REMARK    3  A    between atoms: C_5  and  N_6
REMARK    4  A    between atoms: C_9  and  C_10
REMARK    5  A    between atoms: N_13  and  C_14
REMARK    6  A    between atoms: C_14  and  C_15
REMARK                            x       y       z     vdW  Elec       q    Type
REMARK                         _______ _______ _______ _____ _____    ______ ____
ROOT
ATOM      1  N   UNL     1       1.828   7.726  21.082  0.00  0.00    +0.000 N 
ATOM      2  C   UNL     1       0.985   8.858  20.956  0.00  0.00    +0.000 A 
ATOM      3  C   UNL     1       0.423   9.377  22.104  0.00  0.00    +0.000 A 
ATOM      4  C   UNL     1      -0.446  10.433  21.942  0.00  0.00    +0.000 A 
ATOM      5  C   UNL     1      -1.193  11.026  23.093  0.00  0.00    +0.000 C 
ATOM      6  N   UNL     1      -0.701  10.967  20.735  0.00  0.00    +0.000 NA
ATOM      7  C   UNL     1      -0.098  10.426  19.671  0.00  0.00    +0.000 A 
ATOM      8  N   UNL     1      -0.331  10.954  18.408  0.00  0.00    +0.000 N 
ATOM      9  N   UNL     1       0.740   9.389  19.743  0.00  0.00    +0.000 NA
ATOM     10  H   UNL     1       2.653   7.965  21.621  0.00  0.00    +0.000 HD
ATOM     11  H   UNL     1       0.436  10.673  17.810  0.00  0.00    +0.000 HD
ENDROOT
BRANCH   1  14
ATOM     12  C   UNL     1       1.851   4.443  19.289  0.00  0.00    +0.000 A 
ATOM     13  C   UNL     1       1.595   5.433  20.243  0.00  0.00    +0.000 A 
ATOM     14  C   UNL     1       2.056   6.751  20.089  0.00  0.00    +0.000 A 
ATOM     15  C   UNL     1       2.849   7.049  18.976  0.00  0.00    +0.000 A 
ATOM     16  C   UNL     1       3.106   6.072  18.008  0.00  0.00    +0.000 A 
ATOM     17  C   UNL     1       2.599   4.784  18.164  0.00  0.00    +0.000 A 
ATOM     18  F   UNL     1       2.868   3.890  17.201  0.00  0.00    +0.000 F 
BRANCH  12  20
ATOM     19  C   UNL     1       1.446   2.785  20.947  0.00  0.00    +0.000 C 
ATOM     20  O   UNL     1       1.320   3.221  19.601  0.00  0.00    +0.000 OA
ENDBRANCH  12  20
ENDBRANCH   1  14
BRANCH   8  21
ATOM     21  C   UNL     1      -0.651  12.364  18.421  0.00  0.00    +0.000 C 
BRANCH  21  22
ATOM     22  C   UNL     1       0.611  13.183  18.542  0.00  0.00    +0.000 A 
ATOM     23  C   UNL     1       0.558  14.501  19.020  0.00  0.00    +0.000 A 
ATOM     24  C   UNL     1       1.723  15.258  19.146  0.00  0.00    +0.000 A 
ATOM     25  C   UNL     1       2.952  14.710  18.782  0.00  0.00    +0.000 A 
ATOM     26  C   UNL     1       3.016  13.406  18.293  0.00  0.00    +0.000 A 
ATOM     27  C   UNL     1       1.852  12.646  18.171  0.00  0.00    +0.000 A 
ENDBRANCH  21  22
ENDBRANCH   8  21
TORSDOF 4
ENDMDL
