MODEL 1
REMARK VINA RESULT:      -7.6      0.000      0.000
REMARK  Name = 
REMARK  11 active torsions:
REMARK  status: ('A' for Active; 'I' for Inactive)
REMARK    1  A    between atoms: C_1  and  O_2
REMARK    2  A    between atoms: O_2  and  C_3
REMARK    3  A    between atoms: C_8  and  N_9
REMARK    4  A    between atoms: N_12  and  C_13
REMARK    5  A    between atoms: N_12  and  C_22
REMARK    6  A    between atoms: C_13  and  C_14
REMARK    7  A    between atoms: C_14  and  C_15
REMARK    8  A    between atoms: C_18  and  O_19
REMARK    9  A    between atoms: C_22  and  C_23
REMARK   10  A    between atoms: C_26  and  C_27
REMARK   11  A    between atoms: N_29  and  O_30
REMARK                            x       y       z     vdW  Elec       q    Type
REMARK                         _______ _______ _______ _____ _____    ______ ____
ROOT
ATOM      1  N   UNL     1       0.789   9.231  18.867  0.00  0.00    +0.000 N 
ATOM      2  C   UNL     1       1.445   8.519  19.854  0.00  0.00    +0.000 C 
ATOM      3  O   UNL     1       1.603   8.930  21.002  0.00  0.00    +0.000 OA
ATOM      4  N   UNL     1       1.952   7.274  19.457  0.00  0.00    +0.000 N 
ATOM      5  H   UNL     1       0.284   8.713  18.160  0.00  0.00    +0.000 HD
ENDROOT
BRANCH   1  11
ATOM      6  C   UNL     1      -0.820  11.052  18.619  0.00  0.00    +0.000 A 
ATOM      7  C   UNL     1      -1.095  12.423  18.500  0.00  0.00    +0.000 A 
ATOM      8  C   UNL     1      -0.081  13.363  18.674  0.00  0.00    +0.000 A 
ATOM      9  C   UNL     1       1.211  12.944  18.950  0.00  0.00    +0.000 A 
ATOM     10  C   UNL     1       1.506  11.582  19.032  0.00  0.00    +0.000 A 
ATOM     11  C   UNL     1       0.501  10.621  18.864  0.00  0.00    +0.000 A 
BRANCH   6  13
ATOM     12  C   UNL     1      -2.569  10.155  17.295  0.00  0.00    +0.000 C 
ATOM     13  O   UNL     1      -1.788  10.078  18.491  0.00  0.00    +0.000 OA
ENDBRANCH   6  13
ENDBRANCH   1  11
BRANCH   4  14
ATOM     14  C   UNL     1       2.583   6.404  20.472  0.00  0.00    +0.000 C 
BRANCH  14  15
ATOM     15  C   UNL     1       1.786   5.131  20.799  0.00  0.00    +0.000 C 
BRANCH  15  16
ATOM     16  C   UNL     1       2.374   3.898  20.155  0.00  0.00    +0.000 A 
ATOM     17  C   UNL     1       1.562   3.027  19.410  0.00  0.00    +0.000 A 
ATOM     18  C   UNL     1       2.101   1.882  18.821  0.00  0.00    +0.000 A 
ATOM     19  C   UNL     1       3.455   1.608  18.982  0.00  0.00    +0.000 A 
ATOM     20  C   UNL     1       4.273   2.459  19.714  0.00  0.00    +0.000 A 
ATOM     21  C   UNL     1       3.735   3.605  20.302  0.00  0.00    +0.000 A 
BRANCH  19  22
ATOM     22  O   UNL     1       4.023   0.499  18.430  0.00  0.00    +0.000 OA
ATOM     23  H   UNL     1       3.321  -0.060  18.062  0.00  0.00    +0.000 HD
ENDBRANCH  19  22
ENDBRANCH  15  16
ENDBRANCH  14  15
ENDBRANCH   4  14
BRANCH   4  24
ATOM     24  C   UNL     1       1.905   6.801  18.075  0.00  0.00    +0.000 C 
BRANCH  24  25
ATOM     25  C   UNL     1       3.225   6.307  17.540  0.00  0.00    +0.000 A 
ATOM     26  C   UNL     1       4.282   7.219  17.418  0.00  0.00    +0.000 A 
ATOM     27  C   UNL     1       5.497   6.821  16.872  0.00  0.00    +0.000 A 
ATOM     28  C   UNL     1       5.691   5.499  16.447  0.00  0.00    +0.000 A 
ATOM     29  C   UNL     1       4.658   4.571  16.619  0.00  0.00    +0.000 A 
ATOM     30  C   UNL     1       3.438   4.972  17.171  0.00  0.00    +0.000 A 
BRANCH  28  31
ATOM     31  C   UNL     1       6.985   5.168  15.793  0.00  0.00    +0.000 C 
ATOM     32  O   UNL     1       7.861   4.544  16.394  0.00  0.00    +0.000 OA
ATOM     33  N   UNL     1       7.180   5.590  14.498  0.00  0.00    +0.000 N 
ATOM     34  H   UNL     1       6.489   5.991  13.881  0.00  0.00    +0.000 HD
BRANCH  33  35
ATOM     35  O   UNL     1       8.417   5.230  13.915  0.00  0.00    +0.000 OA
ATOM     36  H   UNL     1       8.220   4.333  13.562  0.00  0.00    +0.000 HD
ENDBRANCH  33  35
ENDBRANCH  28  31
ENDBRANCH  24  25
ENDBRANCH   4  24
TORSDOF 10
ENDMDL
MODEL 2
REMARK VINA RESULT:      -7.4      2.068      4.166
REMARK  Name = 
REMARK  11 active torsions:
REMARK  status: ('A' for Active; 'I' for Inactive)
REMARK    1  A    between atoms: C_1  and  O_2
REMARK    2  A    between atoms: O_2  and  C_3
REMARK    3  A    between atoms: C_8  and  N_9
REMARK    4  A    between atoms: N_12  and  C_13
REMARK    5  A    between atoms: N_12  and  C_22
REMARK    6  A    between atoms: C_13  and  C_14
REMARK    7  A    between atoms: C_14  and  C_15
REMARK    8  A    between atoms: C_18  and  O_19
REMARK    9  A    between atoms: C_22  and  C_23
REMARK   10  A    between atoms: C_26  and  C_27
REMARK   11  A    between atoms: N_29  and  O_30
REMARK                            x       y       z     vdW  Elec       q    Type
REMARK                         _______ _______ _______ _____ _____    ______ ____
ROOT
ATOM      1  N   UNL     1       0.374   9.257  18.774  0.00  0.00    +0.000 N 
ATOM      2  C   UNL     1       1.680   9.405  18.345  0.00  0.00    +0.000 C 
ATOM      3  O   UNL     1       2.310  10.457  18.425  0.00  0.00    +0.000 OA
ATOM      4  N   UNL     1       2.258   8.260  17.781  0.00  0.00    +0.000 N 
ATOM      5  H   UNL     1       0.087   8.354  19.127  0.00  0.00    +0.000 HD
ENDROOT
BRANCH   1  11
ATOM      6  C   UNL     1      -1.543  10.598  18.074  0.00  0.00    +0.000 A 
ATOM      7  C   UNL     1      -2.399  11.692  18.273  0.00  0.00    +0.000 A 
ATOM      8  C   UNL     1      -2.320  12.444  19.444  0.00  0.00    +0.000 A 
ATOM      9  C   UNL     1      -1.379  12.123  20.411  0.00  0.00    +0.000 A 
ATOM     10  C   UNL     1      -0.496  11.063  20.206  0.00  0.00    +0.000 A 
ATOM     11  C   UNL     1      -0.561  10.292  19.039  0.00  0.00    +0.000 A 
BRANCH   6  13
ATOM     12  C   UNL     1      -2.535  10.214  15.956  0.00  0.00    +0.000 C 
ATOM     13  O   UNL     1      -1.598   9.797  16.952  0.00  0.00    +0.000 OA
ENDBRANCH   6  13
ENDBRANCH   1  11
BRANCH   4  14
ATOM     14  C   UNL     1       3.682   8.300  17.384  0.00  0.00    +0.000 C 
BRANCH  14  15
ATOM     15  C   UNL     1       4.056   7.314  16.266  0.00  0.00    +0.000 C 
BRANCH  15  16
ATOM     16  C   UNL     1       5.210   6.418  16.646  0.00  0.00    +0.000 A 
ATOM     17  C   UNL     1       5.270   5.096  16.176  0.00  0.00    +0.000 A 
ATOM     18  C   UNL     1       6.332   4.262  16.532  0.00  0.00    +0.000 A 
ATOM     19  C   UNL     1       7.331   4.752  17.366  0.00  0.00    +0.000 A 
ATOM     20  C   UNL     1       7.289   6.058  17.839  0.00  0.00    +0.000 A 
ATOM     21  C   UNL     1       6.229   6.892  17.482  0.00  0.00    +0.000 A 
BRANCH  19  22
ATOM     22  O   UNL     1       8.383   3.973  17.744  0.00  0.00    +0.000 OA
ATOM     23  H   UNL     1       8.887   4.442  18.428  0.00  0.00    +0.000 HD
ENDBRANCH  19  22
ENDBRANCH  15  16
ENDBRANCH  14  15
ENDBRANCH   4  14
BRANCH   4  24
ATOM     24  C   UNL     1       1.510   7.026  17.545  0.00  0.00    +0.000 C 
BRANCH  24  25
ATOM     25  C   UNL     1       2.041   5.825  18.286  0.00  0.00    +0.000 A 
ATOM     26  C   UNL     1       2.693   6.027  19.510  0.00  0.00    +0.000 A 
ATOM     27  C   UNL     1       3.253   4.954  20.195  0.00  0.00    +0.000 A 
ATOM     28  C   UNL     1       3.163   3.653  19.683  0.00  0.00    +0.000 A 
ATOM     29  C   UNL     1       2.463   3.439  18.490  0.00  0.00    +0.000 A 
ATOM     30  C   UNL     1       1.899   4.517  17.803  0.00  0.00    +0.000 A 
BRANCH  28  31
ATOM     31  C   UNL     1       3.860   2.569  20.427  0.00  0.00    +0.000 C 
ATOM     32  O   UNL     1       3.469   2.207  21.537  0.00  0.00    +0.000 OA
ATOM     33  N   UNL     1       4.961   1.991  19.841  0.00  0.00    +0.000 N 
ATOM     34  H   UNL     1       5.284   2.123  18.893  0.00  0.00    +0.000 HD
BRANCH  33  35
ATOM     35  O   UNL     1       5.573   0.950  20.578  0.00  0.00    +0.000 OA
ATOM     36  H   UNL     1       5.483   0.188  19.964  0.00  0.00    +0.000 HD
ENDBRANCH  33  35
ENDBRANCH  28  31
ENDBRANCH  24  25
ENDBRANCH   4  24
TORSDOF 10
ENDMDL
MODEL 3
REMARK VINA RESULT:      -7.3      1.994      4.519
REMARK  Name = 
REMARK  11 active torsions:
REMARK  status: ('A' for Active; 'I' for Inactive)
REMARK    1  A    between atoms: C_1  and  O_2
REMARK    2  A    between atoms: O_2  and  C_3
REMARK    3  A    between atoms: C_8  and  N_9
REMARK    4  A    between atoms: N_12  and  C_13
REMARK    5  A    between atoms: N_12  and  C_22
REMARK    6  A    between atoms: C_13  and  C_14
REMARK    7  A    between atoms: C_14  and  C_15
REMARK    8  A    between atoms: C_18  and  O_19
REMARK    9  A    between atoms: C_22  and  C_23
REMARK   10  A    between atoms: C_26  and  C_27
REMARK   11  A    between atoms: N_29  and  O_30
REMARK                            x       y       z     vdW  Elec       q    Type
REMARK                         _______ _______ _______ _____ _____    ______ ____
ROOT
ATOM      1  N   UNL     1       0.983   9.899  19.716  0.00  0.00    +0.000 N 
ATOM      2  C   UNL     1       1.463   9.320  18.556  0.00  0.00    +0.000 C 
ATOM      3  O   UNL     1       1.410   9.858  17.452  0.00  0.00    +0.000 OA
ATOM      4  N   UNL     1       2.013   8.040  18.709  0.00  0.00    +0.000 N 
ATOM      5  H   UNL     1       1.449   9.680  20.586  0.00  0.00    +0.000 HD
ENDROOT
BRANCH   1  11
ATOM      6  C   UNL     1       0.487  12.171  20.461  0.00  0.00    +0.000 A 
ATOM      7  C   UNL     1      -0.435  13.208  20.669  0.00  0.00    +0.000 A 
ATOM      8  C   UNL     1      -1.741  13.095  20.195  0.00  0.00    +0.000 A 
ATOM      9  C   UNL     1      -2.138  11.946  19.529  0.00  0.00    +0.000 A 
ATOM     10  C   UNL     1      -1.242  10.891  19.351  0.00  0.00    +0.000 A 
ATOM     11  C   UNL     1       0.075  10.985  19.817  0.00  0.00    +0.000 A 
BRANCH   6  13
ATOM     12  C   UNL     1       2.434  13.504  20.673  0.00  0.00    +0.000 C 
ATOM     13  O   UNL     1       1.800  12.239  20.878  0.00  0.00    +0.000 OA
ENDBRANCH   6  13
ENDBRANCH   1  11
BRANCH   4  14
ATOM     14  C   UNL     1       2.639   7.387  17.538  0.00  0.00    +0.000 C 
BRANCH  14  15
ATOM     15  C   UNL     1       3.999   7.976  17.136  0.00  0.00    +0.000 C 
BRANCH  15  16
ATOM     16  C   UNL     1       5.087   6.931  17.072  0.00  0.00    +0.000 A 
ATOM     17  C   UNL     1       6.382   7.222  17.531  0.00  0.00    +0.000 A 
ATOM     18  C   UNL     1       7.392   6.260  17.466  0.00  0.00    +0.000 A 
ATOM     19  C   UNL     1       7.105   5.007  16.935  0.00  0.00    +0.000 A 
ATOM     20  C   UNL     1       5.828   4.702  16.478  0.00  0.00    +0.000 A 
ATOM     21  C   UNL     1       4.818   5.662  16.545  0.00  0.00    +0.000 A 
BRANCH  19  22
ATOM     22  O   UNL     1       8.060   4.040  16.847  0.00  0.00    +0.000 OA
ATOM     23  H   UNL     1       7.815   3.425  16.137  0.00  0.00    +0.000 HD
ENDBRANCH  19  22
ENDBRANCH  15  16
ENDBRANCH  14  15
ENDBRANCH   4  14
BRANCH   4  24
ATOM     24  C   UNL     1       1.982   7.307  19.973  0.00  0.00    +0.000 C 
BRANCH  24  25
ATOM     25  C   UNL     1       2.444   5.876  19.874  0.00  0.00    +0.000 A 
ATOM     26  C   UNL     1       3.818   5.609  19.943  0.00  0.00    +0.000 A 
ATOM     27  C   UNL     1       4.293   4.311  19.793  0.00  0.00    +0.000 A 
ATOM     28  C   UNL     1       3.406   3.244  19.586  0.00  0.00    +0.000 A 
ATOM     29  C   UNL     1       2.030   3.498  19.575  0.00  0.00    +0.000 A 
ATOM     30  C   UNL     1       1.554   4.804  19.727  0.00  0.00    +0.000 A 
BRANCH  28  31
ATOM     31  C   UNL     1       3.991   1.898  19.349  0.00  0.00    +0.000 C 
ATOM     32  O   UNL     1       3.570   1.171  18.448  0.00  0.00    +0.000 OA
ATOM     33  N   UNL     1       5.010   1.483  20.174  0.00  0.00    +0.000 N 
ATOM     34  H   UNL     1       5.508   2.043  20.852  0.00  0.00    +0.000 HD
BRANCH  33  35
ATOM     35  O   UNL     1       5.548   0.206  19.892  0.00  0.00    +0.000 OA
ATOM     36  H   UNL     1       6.198   0.412  19.184  0.00  0.00    +0.000 HD
ENDBRANCH  33  35
ENDBRANCH  28  31
ENDBRANCH  24  25
ENDBRANCH   4  24
TORSDOF 10
ENDMDL
MODEL 4
REMARK VINA RESULT:      -7.2      0.801      1.169
REMARK  Name = 
REMARK  11 active torsions:
REMARK  status: ('A' for Active; 'I' for Inactive)
REMARK    1  A    between atoms: C_1  and  O_2
REMARK    2  A    between atoms: O_2  and  C_3
REMARK    3  A    between atoms: C_8  and  N_9
REMARK    4  A    between atoms: N_12  and  C_13
REMARK    5  A    between atoms: N_12  and  C_22
REMARK    6  A    between atoms: C_13  and  C_14
REMARK    7  A    between atoms: C_14  and  C_15
REMARK    8  A    between atoms: C_18  and  O_19
REMARK    9  A    between atoms: C_22  and  C_23
REMARK   10  A    between atoms: C_26  and  C_27
REMARK   11  A    between atoms: N_29  and  O_30
REMARK                            x       y       z     vdW  Elec       q    Type
REMARK                         _______ _______ _______ _____ _____    ______ ____
ROOT
ATOM      1  N   UNL     1       0.741   9.491  19.569  0.00  0.00    +0.000 N 
ATOM      2  C   UNL     1       1.369   8.530  20.340  0.00  0.00    +0.000 C 
ATOM      3  O   UNL     1       1.386   8.545  21.569  0.00  0.00    +0.000 OA
ATOM      4  N   UNL     1       2.019   7.518  19.622  0.00  0.00    +0.000 N 
ATOM      5  H   UNL     1       0.350   9.209  18.681  0.00  0.00    +0.000 HD
ENDROOT
BRANCH   1  11
ATOM      6  C   UNL     1      -0.949  11.254  19.618  0.00  0.00    +0.000 A 
ATOM      7  C   UNL     1      -1.322  12.571  19.922  0.00  0.00    +0.000 A 
ATOM      8  C   UNL     1      -0.457  13.403  20.631  0.00  0.00    +0.000 A 
ATOM      9  C   UNL     1       0.787  12.934  21.024  0.00  0.00    +0.000 A 
ATOM     10  C   UNL     1       1.186  11.638  20.692  0.00  0.00    +0.000 A 
ATOM     11  C   UNL     1       0.331  10.785  19.984  0.00  0.00    +0.000 A 
BRANCH   6  13
ATOM     12  C   UNL     1      -2.017  10.697  17.577  0.00  0.00    +0.000 C 
ATOM     13  O   UNL     1      -1.776  10.375  18.949  0.00  0.00    +0.000 OA
ENDBRANCH   6  13
ENDBRANCH   1  11
BRANCH   4  14
ATOM     14  C   UNL     1       2.633   6.396  20.365  0.00  0.00    +0.000 C 
BRANCH  14  15
ATOM     15  C   UNL     1       1.731   5.160  20.506  0.00  0.00    +0.000 C 
BRANCH  15  16
ATOM     16  C   UNL     1       2.355   3.917  19.920  0.00  0.00    +0.000 A 
ATOM     17  C   UNL     1       3.682   3.574  20.227  0.00  0.00    +0.000 A 
ATOM     18  C   UNL     1       4.265   2.429  19.680  0.00  0.00    +0.000 A 
ATOM     19  C   UNL     1       3.518   1.631  18.820  0.00  0.00    +0.000 A 
ATOM     20  C   UNL     1       2.203   1.954  18.507  0.00  0.00    +0.000 A 
ATOM     21  C   UNL     1       1.620   3.097  19.055  0.00  0.00    +0.000 A 
BRANCH  19  22
ATOM     22  O   UNL     1       4.047   0.507  18.259  0.00  0.00    +0.000 OA
ATOM     23  H   UNL     1       3.323  -0.033  17.904  0.00  0.00    +0.000 HD
ENDBRANCH  19  22
ENDBRANCH  15  16
ENDBRANCH  14  15
ENDBRANCH   4  14
BRANCH   4  24
ATOM     24  C   UNL     1       2.137   7.527  18.165  0.00  0.00    +0.000 C 
BRANCH  24  25
ATOM     25  C   UNL     1       3.374   6.847  17.636  0.00  0.00    +0.000 A 
ATOM     26  C   UNL     1       4.569   7.577  17.580  0.00  0.00    +0.000 A 
ATOM     27  C   UNL     1       5.718   7.009  17.041  0.00  0.00    +0.000 A 
ATOM     28  C   UNL     1       5.706   5.693  16.559  0.00  0.00    +0.000 A 
ATOM     29  C   UNL     1       4.532   4.940  16.665  0.00  0.00    +0.000 A 
ATOM     30  C   UNL     1       3.377   5.512  17.209  0.00  0.00    +0.000 A 
BRANCH  28  31
ATOM     31  C   UNL     1       6.948   5.182  15.918  0.00  0.00    +0.000 C 
ATOM     32  O   UNL     1       7.743   4.479  16.543  0.00  0.00    +0.000 OA
ATOM     33  N   UNL     1       7.187   5.529  14.609  0.00  0.00    +0.000 N 
ATOM     34  H   UNL     1       6.547   5.987  13.976  0.00  0.00    +0.000 HD
BRANCH  33  35
ATOM     35  O   UNL     1       8.368   4.998  14.039  0.00  0.00    +0.000 OA
ATOM     36  H   UNL     1       9.052   5.292  14.681  0.00  0.00    +0.000 HD
ENDBRANCH  33  35
ENDBRANCH  28  31
ENDBRANCH  24  25
ENDBRANCH   4  24
TORSDOF 10
ENDMDL
MODEL 5
REMARK VINA RESULT:      -7.2      0.510      1.318
REMARK  Name = 
REMARK  11 active torsions:
REMARK  status: ('A' for Active; 'I' for Inactive)
REMARK    1  A    between atoms: C_1  and  O_2
REMARK    2  A    between atoms: O_2  and  C_3
REMARK    3  A    between atoms: C_8  and  N_9
REMARK    4  A    between atoms: N_12  and  C_13
REMARK    5  A    between atoms: N_12  and  C_22
REMARK    6  A    between atoms: C_13  and  C_14
REMARK    7  A    between atoms: C_14  and  C_15
REMARK    8  A    between atoms: C_18  and  O_19
REMARK    9  A    between atoms: C_22  and  C_23
REMARK   10  A    between atoms: C_26  and  C_27
REMARK   11  A    between atoms: N_29  and  O_30
REMARK                            x       y       z     vdW  Elec       q    Type
REMARK                         _______ _______ _______ _____ _____    ______ ____
ROOT
ATOM      1  N   UNL     1       1.022   9.241  18.872  0.00  0.00    +0.000 N 
ATOM      2  C   UNL     1       1.511   8.494  19.929  0.00  0.00    +0.000 C 
ATOM      3  O   UNL     1       1.713   8.950  21.052  0.00  0.00    +0.000 OA
ATOM      4  N   UNL     1       1.788   7.152  19.635  0.00  0.00    +0.000 N 
ATOM      5  H   UNL     1       0.448   8.774  18.183  0.00  0.00    +0.000 HD
ENDROOT
BRANCH   1  11
ATOM      6  C   UNL     1      -0.240  11.331  18.824  0.00  0.00    +0.000 A 
ATOM      7  C   UNL     1      -0.290  12.716  18.606  0.00  0.00    +0.000 A 
ATOM      8  C   UNL     1       0.882  13.437  18.385  0.00  0.00    +0.000 A 
ATOM      9  C   UNL     1       2.104  12.782  18.364  0.00  0.00    +0.000 A 
ATOM     10  C   UNL     1       2.163  11.399  18.540  0.00  0.00    +0.000 A 
ATOM     11  C   UNL     1       0.998  10.656  18.766  0.00  0.00    +0.000 A 
BRANCH   6  13
ATOM     12  C   UNL     1      -2.571  11.060  18.494  0.00  0.00    +0.000 C 
ATOM     13  O   UNL     1      -1.363  10.570  19.080  0.00  0.00    +0.000 OA
ENDBRANCH   6  13
ENDBRANCH   1  11
BRANCH   4  14
ATOM     14  C   UNL     1       2.221   6.256  20.729  0.00  0.00    +0.000 C 
BRANCH  14  15
ATOM     15  C   UNL     1       1.427   4.943  20.824  0.00  0.00    +0.000 C 
BRANCH  15  16
ATOM     16  C   UNL     1       2.142   3.786  20.170  0.00  0.00    +0.000 A 
ATOM     17  C   UNL     1       3.523   3.608  20.348  0.00  0.00    +0.000 A 
ATOM     18  C   UNL     1       4.188   2.543  19.737  0.00  0.00    +0.000 A 
ATOM     19  C   UNL     1       3.468   1.658  18.943  0.00  0.00    +0.000 A 
ATOM     20  C   UNL     1       2.100   1.817  18.757  0.00  0.00    +0.000 A 
ATOM     21  C   UNL     1       1.435   2.880  19.369  0.00  0.00    +0.000 A 
BRANCH  19  22
ATOM     22  O   UNL     1       4.075   0.608  18.323  0.00  0.00    +0.000 OA
ATOM     23  H   UNL     1       4.779   0.271  18.900  0.00  0.00    +0.000 HD
ENDBRANCH  19  22
ENDBRANCH  15  16
ENDBRANCH  14  15
ENDBRANCH   4  14
BRANCH   4  24
ATOM     24  C   UNL     1       1.688   6.596  18.286  0.00  0.00    +0.000 C 
BRANCH  24  25
ATOM     25  C   UNL     1       3.015   6.326  17.625  0.00  0.00    +0.000 A 
ATOM     26  C   UNL     1       3.275   5.035  17.146  0.00  0.00    +0.000 A 
ATOM     27  C   UNL     1       4.510   4.726  16.585  0.00  0.00    +0.000 A 
ATOM     28  C   UNL     1       5.510   5.703  16.476  0.00  0.00    +0.000 A 
ATOM     29  C   UNL     1       5.235   7.007  16.900  0.00  0.00    +0.000 A 
ATOM     30  C   UNL     1       3.992   7.317  17.462  0.00  0.00    +0.000 A 
BRANCH  28  31
ATOM     31  C   UNL     1       6.833   5.278  15.946  0.00  0.00    +0.000 C 
ATOM     32  O   UNL     1       7.653   4.705  16.665  0.00  0.00    +0.000 OA
ATOM     33  N   UNL     1       7.118   5.554  14.629  0.00  0.00    +0.000 N 
ATOM     34  H   UNL     1       6.478   5.900  13.929  0.00  0.00    +0.000 HD
BRANCH  33  35
ATOM     35  O   UNL     1       8.379   5.108  14.168  0.00  0.00    +0.000 OA
ATOM     36  H   UNL     1       8.975   5.822  14.486  0.00  0.00    +0.000 HD
ENDBRANCH  33  35
ENDBRANCH  28  31
ENDBRANCH  24  25
ENDBRANCH   4  24
TORSDOF 10
ENDMDL
MODEL 6
REMARK VINA RESULT:      -7.2      3.792      7.518
REMARK  Name = 
REMARK  11 active torsions:
REMARK  status: ('A' for Active; 'I' for Inactive)
REMARK    1  A    between atoms: C_1  and  O_2
REMARK    2  A    between atoms: O_2  and  C_3
REMARK    3  A    between atoms: C_8  and  N_9
REMARK    4  A    between atoms: N_12  and  C_13
REMARK    5  A    between atoms: N_12  and  C_22
REMARK    6  A    between atoms: C_13  and  C_14
REMARK    7  A    between atoms: C_14  and  C_15
REMARK    8  A    between atoms: C_18  and  O_19
REMARK    9  A    between atoms: C_22  and  C_23
REMARK   10  A    between atoms: C_26  and  C_27
REMARK   11  A    between atoms: N_29  and  O_30
REMARK                            x       y       z     vdW  Elec       q    Type
REMARK                         _______ _______ _______ _____ _____    ______ ____
ROOT
ATOM      1  N   UNL     1       4.767   4.770  18.599  0.00  0.00    +0.000 N 
ATOM      2  C   UNL     1       5.918   5.464  18.923  0.00  0.00    +0.000 C 
ATOM      3  O   UNL     1       6.517   5.332  19.988  0.00  0.00    +0.000 OA
ATOM      4  N   UNL     1       6.368   6.366  17.949  0.00  0.00    +0.000 N 
ATOM      5  H   UNL     1       4.605   4.544  17.627  0.00  0.00    +0.000 HD
ENDROOT
BRANCH   1  11
ATOM      6  C   UNL     1       2.669   4.681  19.846  0.00  0.00    +0.000 A 
ATOM      7  C   UNL     1       1.856   4.073  20.814  0.00  0.00    +0.000 A 
ATOM      8  C   UNL     1       2.231   2.860  21.389  0.00  0.00    +0.000 A 
ATOM      9  C   UNL     1       3.423   2.257  21.016  0.00  0.00    +0.000 A 
ATOM     10  C   UNL     1       4.259   2.871  20.084  0.00  0.00    +0.000 A 
ATOM     11  C   UNL     1       3.900   4.088  19.492  0.00  0.00    +0.000 A 
BRANCH   6  13
ATOM     12  C   UNL     1       2.212   6.994  20.085  0.00  0.00    +0.000 C 
ATOM     13  O   UNL     1       2.334   5.863  19.218  0.00  0.00    +0.000 OA
ENDBRANCH   6  13
ENDBRANCH   1  11
BRANCH   4  14
ATOM     14  C   UNL     1       7.644   7.078  18.171  0.00  0.00    +0.000 C 
BRANCH  14  15
ATOM     15  C   UNL     1       7.839   8.320  17.287  0.00  0.00    +0.000 C 
BRANCH  15  16
ATOM     16  C   UNL     1       8.415   9.489  18.048  0.00  0.00    +0.000 A 
ATOM     17  C   UNL     1       9.014   9.296  19.304  0.00  0.00    +0.000 A 
ATOM     18  C   UNL     1       9.541  10.377  20.013  0.00  0.00    +0.000 A 
ATOM     19  C   UNL     1       9.462  11.653  19.466  0.00  0.00    +0.000 A 
ATOM     20  C   UNL     1       8.875  11.862  18.224  0.00  0.00    +0.000 A 
ATOM     21  C   UNL     1       8.350  10.782  17.513  0.00  0.00    +0.000 A 
BRANCH  19  22
ATOM     22  O   UNL     1       9.958  12.738  20.126  0.00  0.00    +0.000 OA
ATOM     23  H   UNL     1      10.066  13.464  19.491  0.00  0.00    +0.000 HD
ENDBRANCH  19  22
ENDBRANCH  15  16
ENDBRANCH  14  15
ENDBRANCH   4  14
BRANCH   4  24
ATOM     24  C   UNL     1       5.621   6.652  16.726  0.00  0.00    +0.000 C 
BRANCH  24  25
ATOM     25  C   UNL     1       5.849   5.664  15.611  0.00  0.00    +0.000 A 
ATOM     26  C   UNL     1       7.075   5.691  14.932  0.00  0.00    +0.000 A 
ATOM     27  C   UNL     1       7.304   4.840  13.856  0.00  0.00    +0.000 A 
ATOM     28  C   UNL     1       6.321   3.932  13.441  0.00  0.00    +0.000 A 
ATOM     29  C   UNL     1       5.117   3.861  14.152  0.00  0.00    +0.000 A 
ATOM     30  C   UNL     1       4.889   4.716  15.235  0.00  0.00    +0.000 A 
BRANCH  28  31
ATOM     31  C   UNL     1       6.603   3.115  12.231  0.00  0.00    +0.000 C 
ATOM     32  O   UNL     1       7.451   3.467  11.409  0.00  0.00    +0.000 OA
ATOM     33  N   UNL     1       5.881   1.958  12.051  0.00  0.00    +0.000 N 
ATOM     34  H   UNL     1       5.262   1.519  12.718  0.00  0.00    +0.000 HD
BRANCH  33  35
ATOM     35  O   UNL     1       6.204   1.206  10.898  0.00  0.00    +0.000 OA
ATOM     36  H   UNL     1       5.446   1.406  10.306  0.00  0.00    +0.000 HD
ENDBRANCH  33  35
ENDBRANCH  28  31
ENDBRANCH  24  25
ENDBRANCH   4  24
TORSDOF 10
ENDMDL
MODEL 7
REMARK VINA RESULT:      -7.1      2.084      4.459
REMARK  Name = 
REMARK  11 active torsions:
REMARK  status: ('A' for Active; 'I' for Inactive)
REMARK    1  A    between atoms: C_1  and  O_2
REMARK    2  A    between atoms: O_2  and  C_3
REMARK    3  A    between atoms: C_8  and  N_9
REMARK    4  A    between atoms: N_12  and  C_13
REMARK    5  A    between atoms: N_12  and  C_22
REMARK    6  A    between atoms: C_13  and  C_14
REMARK    7  A    between atoms: C_14  and  C_15
REMARK    8  A    between atoms: C_18  and  O_19
REMARK    9  A    between atoms: C_22  and  C_23
REMARK   10  A    between atoms: C_26  and  C_27
REMARK   11  A    between atoms: N_29  and  O_30
REMARK                            x       y       z     vdW  Elec       q    Type
REMARK                         _______ _______ _______ _____ _____    ______ ____
ROOT
ATOM      1  N   UNL     1       0.371   9.233  18.395  0.00  0.00    +0.000 N 
ATOM      2  C   UNL     1       1.687   9.395  18.003  0.00  0.00    +0.000 C 
ATOM      3  O   UNL     1       2.254  10.484  17.948  0.00  0.00    +0.000 OA
ATOM      4  N   UNL     1       2.354   8.215  17.644  0.00  0.00    +0.000 N 
ATOM      5  H   UNL     1       0.116   8.377  18.869  0.00  0.00    +0.000 HD
ENDROOT
BRANCH   1  11
ATOM      6  C   UNL     1      -0.665  11.107  19.570  0.00  0.00    +0.000 A 
ATOM      7  C   UNL     1      -1.715  12.027  19.703  0.00  0.00    +0.000 A 
ATOM      8  C   UNL     1      -2.696  12.123  18.718  0.00  0.00    +0.000 A 
ATOM      9  C   UNL     1      -2.645  11.295  17.607  0.00  0.00    +0.000 A 
ATOM     10  C   UNL     1      -1.628  10.349  17.483  0.00  0.00    +0.000 A 
ATOM     11  C   UNL     1      -0.631  10.237  18.460  0.00  0.00    +0.000 A 
BRANCH   6  13
ATOM     12  C   UNL     1       0.646  12.183  21.225  0.00  0.00    +0.000 C 
ATOM     13  O   UNL     1       0.352  10.989  20.496  0.00  0.00    +0.000 OA
ENDBRANCH   6  13
ENDBRANCH   1  11
BRANCH   4  14
ATOM     14  C   UNL     1       3.792   8.282  17.306  0.00  0.00    +0.000 C 
BRANCH  14  15
ATOM     15  C   UNL     1       4.224   7.327  16.183  0.00  0.00    +0.000 C 
BRANCH  15  16
ATOM     16  C   UNL     1       5.357   6.420  16.598  0.00  0.00    +0.000 A 
ATOM     17  C   UNL     1       5.527   5.167  15.988  0.00  0.00    +0.000 A 
ATOM     18  C   UNL     1       6.570   4.323  16.375  0.00  0.00    +0.000 A 
ATOM     19  C   UNL     1       7.439   4.733  17.379  0.00  0.00    +0.000 A 
ATOM     20  C   UNL     1       7.287   5.970  17.994  0.00  0.00    +0.000 A 
ATOM     21  C   UNL     1       6.247   6.815  17.605  0.00  0.00    +0.000 A 
BRANCH  19  22
ATOM     22  O   UNL     1       8.467   3.940  17.794  0.00  0.00    +0.000 OA
ATOM     23  H   UNL     1       8.304   3.674  18.712  0.00  0.00    +0.000 HD
ENDBRANCH  19  22
ENDBRANCH  15  16
ENDBRANCH  14  15
ENDBRANCH   4  14
BRANCH   4  24
ATOM     24  C   UNL     1       1.687   6.917  17.568  0.00  0.00    +0.000 C 
BRANCH  24  25
ATOM     25  C   UNL     1       2.385   5.813  18.322  0.00  0.00    +0.000 A 
ATOM     26  C   UNL     1       2.337   4.513  17.802  0.00  0.00    +0.000 A 
ATOM     27  C   UNL     1       2.913   3.455  18.497  0.00  0.00    +0.000 A 
ATOM     28  C   UNL     1       3.564   3.672  19.719  0.00  0.00    +0.000 A 
ATOM     29  C   UNL     1       3.664   4.977  20.214  0.00  0.00    +0.000 A 
ATOM     30  C   UNL     1       3.086   6.040  19.513  0.00  0.00    +0.000 A 
BRANCH  28  31
ATOM     31  C   UNL     1       4.080   2.481  20.446  0.00  0.00    +0.000 C 
ATOM     32  O   UNL     1       3.563   2.104  21.499  0.00  0.00    +0.000 OA
ATOM     33  N   UNL     1       5.161   1.819  19.913  0.00  0.00    +0.000 N 
ATOM     34  H   UNL     1       5.574   1.966  19.002  0.00  0.00    +0.000 HD
BRANCH  33  35
ATOM     35  O   UNL     1       5.598   0.680  20.628  0.00  0.00    +0.000 OA
ATOM     36  H   UNL     1       6.350   1.043  21.147  0.00  0.00    +0.000 HD
ENDBRANCH  33  35
ENDBRANCH  28  31
ENDBRANCH  24  25
ENDBRANCH   4  24
TORSDOF 10
ENDMDL
MODEL 8
REMARK VINA RESULT:      -7.1      3.014      9.558
REMARK  Name = 
REMARK  11 active torsions:
REMARK  status: ('A' for Active; 'I' for Inactive)
REMARK    1  A    between atoms: C_1  and  O_2
REMARK    2  A    between atoms: O_2  and  C_3
REMARK    3  A    between atoms: C_8  and  N_9
REMARK    4  A    between atoms: N_12  and  C_13
REMARK    5  A    between atoms: N_12  and  C_22
REMARK    6  A    between atoms: C_13  and  C_14
REMARK    7  A    between atoms: C_14  and  C_15
REMARK    8  A    between atoms: C_18  and  O_19
REMARK    9  A    between atoms: C_22  and  C_23
REMARK   10  A    between atoms: C_26  and  C_27
REMARK   11  A    between atoms: N_29  and  O_30
REMARK                            x       y       z     vdW  Elec       q    Type
REMARK                         _______ _______ _______ _____ _____    ______ ____
ROOT
ATOM      1  N   UNL     1       2.435   7.510  18.446  0.00  0.00    +0.000 N 
ATOM      2  C   UNL     1       1.858   7.843  19.658  0.00  0.00    +0.000 C 
ATOM      3  O   UNL     1       1.901   7.125  20.654  0.00  0.00    +0.000 OA
ATOM      4  N   UNL     1       1.186   9.073  19.682  0.00  0.00    +0.000 N 
ATOM      5  H   UNL     1       2.786   8.258  17.863  0.00  0.00    +0.000 HD
ENDROOT
BRANCH   1  11
ATOM      6  C   UNL     1       4.155   6.045  17.520  0.00  0.00    +0.000 A 
ATOM      7  C   UNL     1       4.538   4.802  16.992  0.00  0.00    +0.000 A 
ATOM      8  C   UNL     1       3.654   3.726  17.011  0.00  0.00    +0.000 A 
ATOM      9  C   UNL     1       2.381   3.885  17.538  0.00  0.00    +0.000 A 
ATOM     10  C   UNL     1       1.975   5.126  18.029  0.00  0.00    +0.000 A 
ATOM     11  C   UNL     1       2.849   6.220  18.022  0.00  0.00    +0.000 A 
BRANCH   6  13
ATOM     12  C   UNL     1       6.317   6.900  17.058  0.00  0.00    +0.000 C 
ATOM     13  O   UNL     1       4.999   7.136  17.559  0.00  0.00    +0.000 OA
ENDBRANCH   6  13
ENDBRANCH   1  11
BRANCH   4  14
ATOM     14  C   UNL     1       0.624   9.553  20.963  0.00  0.00    +0.000 C 
BRANCH  14  15
ATOM     15  C   UNL     1       1.022  10.991  21.330  0.00  0.00    +0.000 C 
BRANCH  15  16
ATOM     16  C   UNL     1      -0.107  11.758  21.975  0.00  0.00    +0.000 A 
ATOM     17  C   UNL     1      -1.131  11.080  22.657  0.00  0.00    +0.000 A 
ATOM     18  C   UNL     1      -2.180  11.786  23.248  0.00  0.00    +0.000 A 
ATOM     19  C   UNL     1      -2.206  13.173  23.151  0.00  0.00    +0.000 A 
ATOM     20  C   UNL     1      -1.200  13.861  22.482  0.00  0.00    +0.000 A 
ATOM     21  C   UNL     1      -0.150  13.155  21.894  0.00  0.00    +0.000 A 
BRANCH  19  22
ATOM     22  O   UNL     1      -3.213  13.903  23.708  0.00  0.00    +0.000 OA
ATOM     23  H   UNL     1      -3.752  13.317  24.263  0.00  0.00    +0.000 HD
ENDBRANCH  19  22
ENDBRANCH  15  16
ENDBRANCH  14  15
ENDBRANCH   4  14
BRANCH   4  24
ATOM     24  C   UNL     1       0.997   9.899  18.492  0.00  0.00    +0.000 C 
BRANCH  24  25
ATOM     25  C   UNL     1      -0.426  10.340  18.261  0.00  0.00    +0.000 A 
ATOM     26  C   UNL     1      -0.770  11.669  18.543  0.00  0.00    +0.000 A 
ATOM     27  C   UNL     1      -2.084  12.102  18.404  0.00  0.00    +0.000 A 
ATOM     28  C   UNL     1      -3.084  11.223  17.966  0.00  0.00    +0.000 A 
ATOM     29  C   UNL     1      -2.735   9.911  17.628  0.00  0.00    +0.000 A 
ATOM     30  C   UNL     1      -1.413   9.477  17.766  0.00  0.00    +0.000 A 
BRANCH  28  31
ATOM     31  C   UNL     1      -4.481  11.733  17.925  0.00  0.00    +0.000 C 
ATOM     32  O   UNL     1      -5.187  11.739  18.934  0.00  0.00    +0.000 OA
ATOM     33  N   UNL     1      -4.965  12.189  16.721  0.00  0.00    +0.000 N 
ATOM     34  H   UNL     1      -4.436  12.344  15.874  0.00  0.00    +0.000 HD
BRANCH  33  35
ATOM     35  O   UNL     1      -6.289  12.686  16.740  0.00  0.00    +0.000 OA
ATOM     36  H   UNL     1      -6.765  12.011  16.207  0.00  0.00    +0.000 HD
ENDBRANCH  33  35
ENDBRANCH  28  31
ENDBRANCH  24  25
ENDBRANCH   4  24
TORSDOF 10
ENDMDL
MODEL 9
REMARK VINA RESULT:      -6.9      2.969      9.421
REMARK  Name = 
REMARK  11 active torsions:
REMARK  status: ('A' for Active; 'I' for Inactive)
REMARK    1  A    between atoms: C_1  and  O_2
REMARK    2  A    between atoms: O_2  and  C_3
REMARK    3  A    between atoms: C_8  and  N_9
REMARK    4  A    between atoms: N_12  and  C_13
REMARK    5  A    between atoms: N_12  and  C_22
REMARK    6  A    between atoms: C_13  and  C_14
REMARK    7  A    between atoms: C_14  and  C_15
REMARK    8  A    between atoms: C_18  and  O_19
REMARK    9  A    between atoms: C_22  and  C_23
REMARK   10  A    between atoms: C_26  and  C_27
REMARK   11  A    between atoms: N_29  and  O_30
REMARK                            x       y       z     vdW  Elec       q    Type
REMARK                         _______ _______ _______ _____ _____    ______ ____
ROOT
ATOM      1  N   UNL     1       2.448   7.490  18.734  0.00  0.00    +0.000 N 
ATOM      2  C   UNL     1       1.731   7.717  19.895  0.00  0.00    +0.000 C 
ATOM      3  O   UNL     1       1.594   6.883  20.787  0.00  0.00    +0.000 OA
ATOM      4  N   UNL     1       1.137   8.983  19.993  0.00  0.00    +0.000 N 
ATOM      5  H   UNL     1       2.919   8.275  18.304  0.00  0.00    +0.000 HD
ENDROOT
BRANCH   1  11
ATOM      6  C   UNL     1       4.112   6.100  17.611  0.00  0.00    +0.000 A 
ATOM      7  C   UNL     1       4.466   4.897  16.982  0.00  0.00    +0.000 A 
ATOM      8  C   UNL     1       3.587   3.815  16.984  0.00  0.00    +0.000 A 
ATOM      9  C   UNL     1       2.348   3.932  17.597  0.00  0.00    +0.000 A 
ATOM     10  C   UNL     1       1.969   5.135  18.192  0.00  0.00    +0.000 A 
ATOM     11  C   UNL     1       2.838   6.233  18.203  0.00  0.00    +0.000 A 
BRANCH   6  13
ATOM     12  C   UNL     1       6.272   6.967  17.166  0.00  0.00    +0.000 C 
ATOM     13  O   UNL     1       4.953   7.192  17.670  0.00  0.00    +0.000 OA
ENDBRANCH   6  13
ENDBRANCH   1  11
BRANCH   4  14
ATOM     14  C   UNL     1       0.433   9.346  21.242  0.00  0.00    +0.000 C 
BRANCH  14  15
ATOM     15  C   UNL     1       0.887  10.678  21.860  0.00  0.00    +0.000 C 
BRANCH  15  16
ATOM     16  C   UNL     1      -0.273  11.576  22.216  0.00  0.00    +0.000 A 
ATOM     17  C   UNL     1      -0.263  12.932  21.851  0.00  0.00    +0.000 A 
ATOM     18  C   UNL     1      -1.331  13.767  22.186  0.00  0.00    +0.000 A 
ATOM     19  C   UNL     1      -2.407  13.243  22.893  0.00  0.00    +0.000 A 
ATOM     20  C   UNL     1      -2.435  11.903  23.261  0.00  0.00    +0.000 A 
ATOM     21  C   UNL     1      -1.369  11.068  22.924  0.00  0.00    +0.000 A 
BRANCH  19  22
ATOM     22  O   UNL     1      -3.469  14.021  23.247  0.00  0.00    +0.000 OA
ATOM     23  H   UNL     1      -3.469  14.817  22.691  0.00  0.00    +0.000 HD
ENDBRANCH  19  22
ENDBRANCH  15  16
ENDBRANCH  14  15
ENDBRANCH   4  14
BRANCH   4  24
ATOM     24  C   UNL     1       1.162   9.959  18.905  0.00  0.00    +0.000 C 
BRANCH  24  25
ATOM     25  C   UNL     1      -0.191  10.272  18.319  0.00  0.00    +0.000 A 
ATOM     26  C   UNL     1      -0.818  11.472  18.682  0.00  0.00    +0.000 A 
ATOM     27  C   UNL     1      -2.093  11.771  18.215  0.00  0.00    +0.000 A 
ATOM     28  C   UNL     1      -2.767  10.887  17.361  0.00  0.00    +0.000 A 
ATOM     29  C   UNL     1      -2.123   9.715  16.949  0.00  0.00    +0.000 A 
ATOM     30  C   UNL     1      -0.840   9.416  17.419  0.00  0.00    +0.000 A 
BRANCH  28  31
ATOM     31  C   UNL     1      -4.161  11.233  16.971  0.00  0.00    +0.000 C 
ATOM     32  O   UNL     1      -4.446  11.507  15.805  0.00  0.00    +0.000 OA
ATOM     33  N   UNL     1      -5.120  11.248  17.956  0.00  0.00    +0.000 N 
ATOM     34  H   UNL     1      -5.020  10.920  18.907  0.00  0.00    +0.000 HD
BRANCH  33  35
ATOM     35  O   UNL     1      -6.433  11.559  17.530  0.00  0.00    +0.000 OA
ATOM     36  H   UNL     1      -6.909  10.719  17.713  0.00  0.00    +0.000 HD
ENDBRANCH  33  35
ENDBRANCH  28  31
ENDBRANCH  24  25
ENDBRANCH   4  24
TORSDOF 10
ENDMDL
