MODEL 1
REMARK VINA RESULT:      -7.8      0.000      0.000
REMARK  Name = 
REMARK  2 active torsions:
REMARK  status: ('A' for Active; 'I' for Inactive)
REMARK    1  A    between atoms: C_1  and  N_2
REMARK    2  A    between atoms: C_11  and  C_12
REMARK                            x       y       z     vdW  Elec       q    Type
REMARK                         _______ _______ _______ _____ _____    ______ ____
ROOT
ATOM      1  C   UNL     1       4.493   3.138  18.940  0.00  0.00    +0.000 C 
ATOM      2  N   UNL     1       3.692   4.345  19.030  0.00  0.00    +0.000 N 
ATOM      3  C   UNL     1       4.015   5.533  18.389  0.00  0.00    +0.000 A 
ATOM      4  N   UNL     1       5.058   5.549  17.480  0.00  0.00    +0.000 N 
ATOM      5  C   UNL     1       5.051   4.745  16.244  0.00  0.00    +0.000 C 
ATOM      6  C   UNL     1       6.507   4.369  15.901  0.00  0.00    +0.000 C 
ATOM      7  O   UNL     1       7.341   5.535  15.778  0.00  0.00    +0.000 OA
ATOM      8  C   UNL     1       7.300   6.325  16.980  0.00  0.00    +0.000 C 
ATOM      9  C   UNL     1       5.866   6.765  17.305  0.00  0.00    +0.000 C 
ATOM     10  N   UNL     1       3.396   6.649  18.663  0.00  0.00    +0.000 NA
ATOM     11  C   UNL     1       2.396   6.654  19.607  0.00  0.00    +0.000 A 
ATOM     12  C   UNL     1       1.966   5.545  20.217  0.00  0.00    +0.000 A 
ATOM     13  C   UNL     1       2.649   4.284  19.937  0.00  0.00    +0.000 A 
ATOM     14  O   UNL     1       2.290   3.264  20.524  0.00  0.00    +0.000 OA
ENDROOT
BRANCH  11  15
ATOM     15  C   UNL     1       1.765   7.959  19.940  0.00  0.00    +0.000 A 
ATOM     16  C   UNL     1       1.431   8.256  21.269  0.00  0.00    +0.000 A 
ATOM     17  C   UNL     1       0.842   9.480  21.564  0.00  0.00    +0.000 A 
ATOM     18  N   UNL     1       0.557  10.422  20.639  0.00  0.00    +0.000 NA
ATOM     19  C   UNL     1       0.864  10.115  19.360  0.00  0.00    +0.000 A 
ATOM     20  C   UNL     1       1.449   8.919  18.972  0.00  0.00    +0.000 A 
ATOM     21  F   UNL     1       1.687   8.710  17.669  0.00  0.00    +0.000 F 
ENDBRANCH  11  15
TORSDOF 1
ENDMDL
MODEL 2
REMARK VINA RESULT:      -7.6      1.068      1.473
REMARK  Name = 
REMARK  2 active torsions:
REMARK  status: ('A' for Active; 'I' for Inactive)
REMARK    1  A    between atoms: C_1  and  N_2
REMARK    2  A    between atoms: C_11  and  C_12
REMARK                            x       y       z     vdW  Elec       q    Type
REMARK                         _______ _______ _______ _____ _____    ______ ____
ROOT
ATOM      1  C   UNL     1       4.633   3.506  19.306  0.00  0.00    +0.000 C 
ATOM      2  N   UNL     1       3.778   4.674  19.207  0.00  0.00    +0.000 N 
ATOM      3  C   UNL     1       4.055   5.767  18.399  0.00  0.00    +0.000 A 
ATOM      4  N   UNL     1       5.110   5.697  17.506  0.00  0.00    +0.000 N 
ATOM      5  C   UNL     1       5.159   4.718  16.403  0.00  0.00    +0.000 C 
ATOM      6  C   UNL     1       6.635   4.364  16.132  0.00  0.00    +0.000 C 
ATOM      7  O   UNL     1       7.416   5.538  15.843  0.00  0.00    +0.000 OA
ATOM      8  C   UNL     1       7.322   6.495  16.913  0.00  0.00    +0.000 C 
ATOM      9  C   UNL     1       5.864   6.910  17.157  0.00  0.00    +0.000 C 
ATOM     10  N   UNL     1       3.382   6.881  18.497  0.00  0.00    +0.000 NA
ATOM     11  C   UNL     1       2.369   6.979  19.422  0.00  0.00    +0.000 A 
ATOM     12  C   UNL     1       1.981   5.954  20.187  0.00  0.00    +0.000 A 
ATOM     13  C   UNL     1       2.724   4.699  20.105  0.00  0.00    +0.000 A 
ATOM     14  O   UNL     1       2.404   3.763  20.834  0.00  0.00    +0.000 OA
ENDROOT
BRANCH  11  15
ATOM     15  C   UNL     1       1.674   8.288  19.551  0.00  0.00    +0.000 A 
ATOM     16  C   UNL     1       1.511   9.107  18.425  0.00  0.00    +0.000 A 
ATOM     17  C   UNL     1       0.860  10.328  18.561  0.00  0.00    +0.000 A 
ATOM     18  N   UNL     1       0.368  10.794  19.730  0.00  0.00    +0.000 NA
ATOM     19  C   UNL     1       0.551  10.005  20.811  0.00  0.00    +0.000 A 
ATOM     20  C   UNL     1       1.191   8.776  20.771  0.00  0.00    +0.000 A 
ATOM     21  F   UNL     1       1.339   8.088  21.912  0.00  0.00    +0.000 F 
ENDBRANCH  11  15
TORSDOF 1
ENDMDL
MODEL 3
REMARK VINA RESULT:      -7.2      1.694      3.991
REMARK  Name = 
REMARK  2 active torsions:
REMARK  status: ('A' for Active; 'I' for Inactive)
REMARK    1  A    between atoms: C_1  and  N_2
REMARK    2  A    between atoms: C_11  and  C_12
REMARK                            x       y       z     vdW  Elec       q    Type
REMARK                         _______ _______ _______ _____ _____    ______ ____
ROOT
ATOM      1  C   UNL     1       4.685   4.365  16.546  0.00  0.00    +0.000 C 
ATOM      2  N   UNL     1       4.081   5.454  17.290  0.00  0.00    +0.000 N 
ATOM      3  C   UNL     1       3.086   5.280  18.242  0.00  0.00    +0.000 A 
ATOM      4  N   UNL     1       2.750   3.999  18.641  0.00  0.00    +0.000 N 
ATOM      5  C   UNL     1       3.708   3.091  19.301  0.00  0.00    +0.000 C 
ATOM      6  C   UNL     1       3.348   1.642  18.915  0.00  0.00    +0.000 C 
ATOM      7  O   UNL     1       1.986   1.325  19.255  0.00  0.00    +0.000 OA
ATOM      8  C   UNL     1       1.073   2.247  18.633  0.00  0.00    +0.000 C 
ATOM      9  C   UNL     1       1.373   3.692  19.055  0.00  0.00    +0.000 C 
ATOM     10  N   UNL     1       2.421   6.292  18.731  0.00  0.00    +0.000 NA
ATOM     11  C   UNL     1       2.710   7.564  18.297  0.00  0.00    +0.000 A 
ATOM     12  C   UNL     1       3.703   7.834  17.443  0.00  0.00    +0.000 A 
ATOM     13  C   UNL     1       4.456   6.719  16.872  0.00  0.00    +0.000 A 
ATOM     14  O   UNL     1       5.342   6.952  16.053  0.00  0.00    +0.000 OA
ENDROOT
BRANCH  11  15
ATOM     15  C   UNL     1       1.881   8.680  18.826  0.00  0.00    +0.000 A 
ATOM     16  C   UNL     1       1.608   9.793  18.018  0.00  0.00    +0.000 A 
ATOM     17  C   UNL     1       0.832  10.827  18.527  0.00  0.00    +0.000 A 
ATOM     18  N   UNL     1       0.316  10.839  19.775  0.00  0.00    +0.000 NA
ATOM     19  C   UNL     1       0.604   9.771  20.550  0.00  0.00    +0.000 A 
ATOM     20  C   UNL     1       1.372   8.697  20.130  0.00  0.00    +0.000 A 
ATOM     21  F   UNL     1       1.616   7.701  20.994  0.00  0.00    +0.000 F 
ENDBRANCH  11  15
TORSDOF 1
ENDMDL
MODEL 4
REMARK VINA RESULT:      -6.9      2.705      6.527
REMARK  Name = 
REMARK  2 active torsions:
REMARK  status: ('A' for Active; 'I' for Inactive)
REMARK    1  A    between atoms: C_1  and  N_2
REMARK    2  A    between atoms: C_11  and  C_12
REMARK                            x       y       z     vdW  Elec       q    Type
REMARK                         _______ _______ _______ _____ _____    ______ ____
ROOT
ATOM      1  C   UNL     1       2.118   6.805  20.000  0.00  0.00    +0.000 C 
ATOM      2  N   UNL     1       2.807   6.329  18.816  0.00  0.00    +0.000 N 
ATOM      3  C   UNL     1       3.168   5.004  18.613  0.00  0.00    +0.000 A 
ATOM      4  N   UNL     1       2.714   4.038  19.494  0.00  0.00    +0.000 N 
ATOM      5  C   UNL     1       1.281   3.744  19.687  0.00  0.00    +0.000 C 
ATOM      6  C   UNL     1       1.072   3.282  21.143  0.00  0.00    +0.000 C 
ATOM      7  O   UNL     1       1.900   2.150  21.464  0.00  0.00    +0.000 OA
ATOM      8  C   UNL     1       3.289   2.446  21.230  0.00  0.00    +0.000 C 
ATOM      9  C   UNL     1       3.530   2.847  19.768  0.00  0.00    +0.000 C 
ATOM     10  N   UNL     1       3.970   4.652  17.645  0.00  0.00    +0.000 NA
ATOM     11  C   UNL     1       4.472   5.613  16.799  0.00  0.00    +0.000 A 
ATOM     12  C   UNL     1       4.118   6.901  16.870  0.00  0.00    +0.000 A 
ATOM     13  C   UNL     1       3.230   7.323  17.951  0.00  0.00    +0.000 A 
ATOM     14  O   UNL     1       2.933   8.512  18.052  0.00  0.00    +0.000 OA
ENDROOT
BRANCH  11  15
ATOM     15  C   UNL     1       5.437   5.179  15.754  0.00  0.00    +0.000 A 
ATOM     16  C   UNL     1       4.999   4.388  14.683  0.00  0.00    +0.000 A 
ATOM     17  C   UNL     1       5.913   3.990  13.715  0.00  0.00    +0.000 A 
ATOM     18  N   UNL     1       7.224   4.314  13.737  0.00  0.00    +0.000 NA
ATOM     19  C   UNL     1       7.637   5.060  14.785  0.00  0.00    +0.000 A 
ATOM     20  C   UNL     1       6.799   5.498  15.798  0.00  0.00    +0.000 A 
ATOM     21  F   UNL     1       7.323   6.211  16.805  0.00  0.00    +0.000 F 
ENDBRANCH  11  15
TORSDOF 1
ENDMDL
MODEL 5
REMARK VINA RESULT:      -6.8      2.540      6.164
REMARK  Name = 
REMARK  2 active torsions:
REMARK  status: ('A' for Active; 'I' for Inactive)
REMARK    1  A    between atoms: C_1  and  N_2
REMARK    2  A    between atoms: C_11  and  C_12
REMARK                            x       y       z     vdW  Elec       q    Type
REMARK                         _______ _______ _______ _____ _____    ______ ____
ROOT
ATOM      1  C   UNL     1       0.854   5.002  20.441  0.00  0.00    +0.000 C 
ATOM      2  N   UNL     1       2.109   5.012  19.713  0.00  0.00    +0.000 N 
ATOM      3  C   UNL     1       2.654   6.148  19.130  0.00  0.00    +0.000 A 
ATOM      4  N   UNL     1       2.076   7.380  19.381  0.00  0.00    +0.000 N 
ATOM      5  C   UNL     1       1.998   7.964  20.734  0.00  0.00    +0.000 C 
ATOM      6  C   UNL     1       0.726   8.830  20.816  0.00  0.00    +0.000 C 
ATOM      7  O   UNL     1       0.705   9.841  19.792  0.00  0.00    +0.000 OA
ATOM      8  C   UNL     1       0.822   9.252  18.485  0.00  0.00    +0.000 C 
ATOM      9  C   UNL     1       2.117   8.436  18.360  0.00  0.00    +0.000 C 
ATOM     10  N   UNL     1       3.665   6.078  18.307  0.00  0.00    +0.000 NA
ATOM     11  C   UNL     1       4.210   4.851  18.007  0.00  0.00    +0.000 A 
ATOM     12  C   UNL     1       3.801   3.715  18.580  0.00  0.00    +0.000 A 
ATOM     13  C   UNL     1       2.665   3.763  19.496  0.00  0.00    +0.000 A 
ATOM     14  O   UNL     1       2.253   2.718  19.996  0.00  0.00    +0.000 OA
ENDROOT
BRANCH  11  15
ATOM     15  C   UNL     1       5.313   4.810  17.010  0.00  0.00    +0.000 A 
ATOM     16  C   UNL     1       5.017   4.768  15.640  0.00  0.00    +0.000 A 
ATOM     17  C   UNL     1       6.060   4.729  14.722  0.00  0.00    +0.000 A 
ATOM     18  N   UNL     1       7.366   4.723  15.063  0.00  0.00    +0.000 NA
ATOM     19  C   UNL     1       7.637   4.742  16.387  0.00  0.00    +0.000 A 
ATOM     20  C   UNL     1       6.664   4.777  17.373  0.00  0.00    +0.000 A 
ATOM     21  F   UNL     1       7.048   4.768  18.658  0.00  0.00    +0.000 F 
ENDBRANCH  11  15
TORSDOF 1
ENDMDL
MODEL 6
REMARK VINA RESULT:      -6.7      1.509      3.743
REMARK  Name = 
REMARK  2 active torsions:
REMARK  status: ('A' for Active; 'I' for Inactive)
REMARK    1  A    between atoms: C_1  and  N_2
REMARK    2  A    between atoms: C_11  and  C_12
REMARK                            x       y       z     vdW  Elec       q    Type
REMARK                         _______ _______ _______ _____ _____    ______ ____
ROOT
ATOM      1  C   UNL     1       4.576   4.434  16.592  0.00  0.00    +0.000 C 
ATOM      2  N   UNL     1       3.991   5.471  17.421  0.00  0.00    +0.000 N 
ATOM      3  C   UNL     1       3.044   5.228  18.406  0.00  0.00    +0.000 A 
ATOM      4  N   UNL     1       2.746   3.921  18.750  0.00  0.00    +0.000 N 
ATOM      5  C   UNL     1       3.747   2.997  19.315  0.00  0.00    +0.000 C 
ATOM      6  C   UNL     1       3.392   1.565  18.868  0.00  0.00    +0.000 C 
ATOM      7  O   UNL     1       2.053   1.205  19.251  0.00  0.00    +0.000 OA
ATOM      8  C   UNL     1       1.098   2.143  18.722  0.00  0.00    +0.000 C 
ATOM      9  C   UNL     1       1.395   3.569  19.209  0.00  0.00    +0.000 C 
ATOM     10  N   UNL     1       2.387   6.200  18.979  0.00  0.00    +0.000 NA
ATOM     11  C   UNL     1       2.636   7.499  18.603  0.00  0.00    +0.000 A 
ATOM     12  C   UNL     1       3.584   7.832  17.721  0.00  0.00    +0.000 A 
ATOM     13  C   UNL     1       4.327   6.763  17.057  0.00  0.00    +0.000 A 
ATOM     14  O   UNL     1       5.171   7.056  16.212  0.00  0.00    +0.000 OA
ENDROOT
BRANCH  11  15
ATOM     15  C   UNL     1       1.815   8.570  19.229  0.00  0.00    +0.000 A 
ATOM     16  C   UNL     1       1.411   8.449  20.567  0.00  0.00    +0.000 A 
ATOM     17  C   UNL     1       0.644   9.458  21.137  0.00  0.00    +0.000 A 
ATOM     18  N   UNL     1       0.247  10.568  20.479  0.00  0.00    +0.000 NA
ATOM     19  C   UNL     1       0.625  10.661  19.185  0.00  0.00    +0.000 A 
ATOM     20  C   UNL     1       1.385   9.704  18.532  0.00  0.00    +0.000 A 
ATOM     21  F   UNL     1       1.680   9.888  17.237  0.00  0.00    +0.000 F 
ENDBRANCH  11  15
TORSDOF 1
ENDMDL
MODEL 7
REMARK VINA RESULT:      -6.7      2.460      6.011
REMARK  Name = 
REMARK  2 active torsions:
REMARK  status: ('A' for Active; 'I' for Inactive)
REMARK    1  A    between atoms: C_1  and  N_2
REMARK    2  A    between atoms: C_11  and  C_12
REMARK                            x       y       z     vdW  Elec       q    Type
REMARK                         _______ _______ _______ _____ _____    ______ ____
ROOT
ATOM      1  C   UNL     1       0.574   5.322  20.559  0.00  0.00    +0.000 C 
ATOM      2  N   UNL     1       1.922   5.229  20.031  0.00  0.00    +0.000 N 
ATOM      3  C   UNL     1       2.583   6.281  19.413  0.00  0.00    +0.000 A 
ATOM      4  N   UNL     1       2.013   7.543  19.435  0.00  0.00    +0.000 N 
ATOM      5  C   UNL     1       1.757   8.280  20.687  0.00  0.00    +0.000 C 
ATOM      6  C   UNL     1       0.514   9.169  20.481  0.00  0.00    +0.000 C 
ATOM      7  O   UNL     1       0.677  10.056  19.359  0.00  0.00    +0.000 OA
ATOM      8  C   UNL     1       0.966   9.317  18.158  0.00  0.00    +0.000 C 
ATOM      9  C   UNL     1       2.238   8.474  18.320  0.00  0.00    +0.000 C 
ATOM     10  N   UNL     1       3.701   6.102  18.764  0.00  0.00    +0.000 NA
ATOM     11  C   UNL     1       4.244   4.841  18.687  0.00  0.00    +0.000 A 
ATOM     12  C   UNL     1       3.720   3.784  19.316  0.00  0.00    +0.000 A 
ATOM     13  C   UNL     1       2.463   3.955  20.041  0.00  0.00    +0.000 A 
ATOM     14  O   UNL     1       1.949   2.981  20.588  0.00  0.00    +0.000 OA
ENDROOT
BRANCH  11  15
ATOM     15  C   UNL     1       5.480   4.668  17.878  0.00  0.00    +0.000 A 
ATOM     16  C   UNL     1       6.736   4.872  18.468  0.00  0.00    +0.000 A 
ATOM     17  C   UNL     1       7.881   4.707  17.698  0.00  0.00    +0.000 A 
ATOM     18  N   UNL     1       7.870   4.363  16.392  0.00  0.00    +0.000 NA
ATOM     19  C   UNL     1       6.653   4.190  15.831  0.00  0.00    +0.000 A 
ATOM     20  C   UNL     1       5.459   4.337  16.519  0.00  0.00    +0.000 A 
ATOM     21  F   UNL     1       4.307   4.167  15.854  0.00  0.00    +0.000 F 
ENDBRANCH  11  15
TORSDOF 1
ENDMDL
MODEL 8
REMARK VINA RESULT:      -6.7      3.535      7.305
REMARK  Name = 
REMARK  2 active torsions:
REMARK  status: ('A' for Active; 'I' for Inactive)
REMARK    1  A    between atoms: C_1  and  N_2
REMARK    2  A    between atoms: C_11  and  C_12
REMARK                            x       y       z     vdW  Elec       q    Type
REMARK                         _______ _______ _______ _____ _____    ______ ____
ROOT
ATOM      1  C   UNL     1       5.455   5.134  19.578  0.00  0.00    +0.000 C 
ATOM      2  N   UNL     1       5.550   5.087  18.131  0.00  0.00    +0.000 N 
ATOM      3  C   UNL     1       4.572   4.543  17.311  0.00  0.00    +0.000 A 
ATOM      4  N   UNL     1       3.360   4.168  17.863  0.00  0.00    +0.000 N 
ATOM      5  C   UNL     1       2.449   5.128  18.516  0.00  0.00    +0.000 C 
ATOM      6  C   UNL     1       1.680   4.388  19.629  0.00  0.00    +0.000 C 
ATOM      7  O   UNL     1       0.975   3.243  19.115  0.00  0.00    +0.000 OA
ATOM      8  C   UNL     1       1.877   2.341  18.448  0.00  0.00    +0.000 C 
ATOM      9  C   UNL     1       2.606   3.042  17.293  0.00  0.00    +0.000 C 
ATOM     10  N   UNL     1       4.785   4.324  16.042  0.00  0.00    +0.000 NA
ATOM     11  C   UNL     1       6.007   4.641  15.497  0.00  0.00    +0.000 A 
ATOM     12  C   UNL     1       6.980   5.240  16.191  0.00  0.00    +0.000 A 
ATOM     13  C   UNL     1       6.772   5.486  17.617  0.00  0.00    +0.000 A 
ATOM     14  O   UNL     1       7.676   5.997  18.275  0.00  0.00    +0.000 OA
ENDROOT
BRANCH  11  15
ATOM     15  C   UNL     1       6.232   4.310  14.064  0.00  0.00    +0.000 A 
ATOM     16  C   UNL     1       5.356   3.440  13.401  0.00  0.00    +0.000 A 
ATOM     17  C   UNL     1       5.580   3.141  12.063  0.00  0.00    +0.000 A 
ATOM     18  N   UNL     1       6.608   3.635  11.341  0.00  0.00    +0.000 NA
ATOM     19  C   UNL     1       7.458   4.455  11.997  0.00  0.00    +0.000 A 
ATOM     20  C   UNL     1       7.316   4.806  13.331  0.00  0.00    +0.000 A 
ATOM     21  F   UNL     1       8.235   5.608  13.888  0.00  0.00    +0.000 F 
ENDBRANCH  11  15
TORSDOF 1
ENDMDL
MODEL 9
REMARK VINA RESULT:      -6.4      1.956      4.215
REMARK  Name = 
REMARK  2 active torsions:
REMARK  status: ('A' for Active; 'I' for Inactive)
REMARK    1  A    between atoms: C_1  and  N_2
REMARK    2  A    between atoms: C_11  and  C_12
REMARK                            x       y       z     vdW  Elec       q    Type
REMARK                         _______ _______ _______ _____ _____    ______ ____
ROOT
ATOM      1  C   UNL     1       4.144   4.770  17.503  0.00  0.00    +0.000 C 
ATOM      2  N   UNL     1       3.522   5.941  18.093  0.00  0.00    +0.000 N 
ATOM      3  C   UNL     1       2.650   5.890  19.171  0.00  0.00    +0.000 A 
ATOM      4  N   UNL     1       2.474   4.693  19.842  0.00  0.00    +0.000 N 
ATOM      5  C   UNL     1       3.573   4.003  20.545  0.00  0.00    +0.000 C 
ATOM      6  C   UNL     1       3.310   2.485  20.486  0.00  0.00    +0.000 C 
ATOM      7  O   UNL     1       2.025   2.148  21.038  0.00  0.00    +0.000 OA
ATOM      8  C   UNL     1       0.972   2.862  20.364  0.00  0.00    +0.000 C 
ATOM      9  C   UNL     1       1.181   4.380  20.466  0.00  0.00    +0.000 C 
ATOM     10  N   UNL     1       1.948   6.929  19.534  0.00  0.00    +0.000 NA
ATOM     11  C   UNL     1       2.073   8.108  18.836  0.00  0.00    +0.000 A 
ATOM     12  C   UNL     1       2.945   8.271  17.836  0.00  0.00    +0.000 A 
ATOM     13  C   UNL     1       3.735   7.121  17.402  0.00  0.00    +0.000 A 
ATOM     14  O   UNL     1       4.508   7.248  16.454  0.00  0.00    +0.000 OA
ENDROOT
BRANCH  11  15
ATOM     15  C   UNL     1       1.204   9.245  19.238  0.00  0.00    +0.000 A 
ATOM     16  C   UNL     1       0.569  10.021  18.258  0.00  0.00    +0.000 A 
ATOM     17  C   UNL     1      -0.240  11.081  18.649  0.00  0.00    +0.000 A 
ATOM     18  N   UNL     1      -0.458  11.428  19.936  0.00  0.00    +0.000 NA
ATOM     19  C   UNL     1       0.176  10.686  20.870  0.00  0.00    +0.000 A 
ATOM     20  C   UNL     1       1.004   9.615  20.573  0.00  0.00    +0.000 A 
ATOM     21  F   UNL     1       1.604   8.964  21.581  0.00  0.00    +0.000 F 
ENDBRANCH  11  15
TORSDOF 1
ENDMDL
