MODEL 1
REMARK VINA RESULT:      -5.2      0.000      0.000
REMARK  Name = 
REMARK  5 active torsions:
REMARK  status: ('A' for Active; 'I' for Inactive)
REMARK    1  A    between atoms: C_2  and  C_3
REMARK    2  A    between atoms: C_3  and  S_4
REMARK    3  A    between atoms: S_4  and  C_5
REMARK    4  A    between atoms: C_5  and  C_7
REMARK    5  A    between atoms: C_7  and  N_8
REMARK                            x       y       z     vdW  Elec       q    Type
REMARK                         _______ _______ _______ _____ _____    ______ ____
ROOT
ATOM      1  C   UNL     1       3.991   3.984  16.816  0.00  0.00    +0.000 C 
ENDROOT
BRANCH   1   2
ATOM      2  N   UNL     1       5.255   4.413  17.470  0.00  0.00    +0.000 N 
ATOM      3  C   UNL     1       5.217   4.996  18.691  0.00  0.00    +0.000 A 
ATOM      4  C   UNL     1       6.381   5.469  19.287  0.00  0.00    +0.000 A 
ATOM      5  C   UNL     1       7.592   5.330  18.623  0.00  0.00    +0.000 A 
ATOM      6  C   UNL     1       7.622   4.703  17.385  0.00  0.00    +0.000 A 
ATOM      7  C   UNL     1       6.437   4.241  16.826  0.00  0.00    +0.000 A 
ENDBRANCH   1   2
BRANCH   1   8
ATOM      8  C   UNL     1       3.124   3.224  17.809  0.00  0.00    +0.000 C 
ATOM      9  S   UNL     1       3.579   1.695  18.325  0.00  0.00    +0.000 S 
BRANCH   8  10
ATOM     10  S   UNL     1       1.598   4.023  18.193  0.00  0.00    +0.000 S 
BRANCH  10  11
ATOM     11  C   UNL     1       0.855   2.895  19.411  0.00  0.00    +0.000 C 
BRANCH  11  13
ATOM     12  C   UNL     1       2.059   2.892  21.613  0.00  0.00    +0.000 C 
ATOM     13  C   UNL     1       1.138   3.409  20.787  0.00  0.00    +0.000 C 
ENDBRANCH  11  13
ENDBRANCH  10  11
ENDBRANCH   8  10
ENDBRANCH   1   8
TORSDOF 5
ENDMDL
MODEL 2
REMARK VINA RESULT:      -5.1      1.484      2.023
REMARK  Name = 
REMARK  5 active torsions:
REMARK  status: ('A' for Active; 'I' for Inactive)
REMARK    1  A    between atoms: C_2  and  C_3
REMARK    2  A    between atoms: C_3  and  S_4
REMARK    3  A    between atoms: S_4  and  C_5
REMARK    4  A    between atoms: C_5  and  C_7
REMARK    5  A    between atoms: C_7  and  N_8
REMARK                            x       y       z     vdW  Elec       q    Type
REMARK                         _______ _______ _______ _____ _____    ______ ____
ROOT
ATOM      1  C   UNL     1       4.320   4.278  19.124  0.00  0.00    +0.000 C 
ENDROOT
BRANCH   1   2
ATOM      2  N   UNL     1       5.412   5.066  18.497  0.00  0.00    +0.000 N 
ATOM      3  C   UNL     1       6.521   5.369  19.213  0.00  0.00    +0.000 A 
ATOM      4  C   UNL     1       7.522   6.165  18.668  0.00  0.00    +0.000 A 
ATOM      5  C   UNL     1       7.382   6.644  17.372  0.00  0.00    +0.000 A 
ATOM      6  C   UNL     1       6.255   6.302  16.638  0.00  0.00    +0.000 A 
ATOM      7  C   UNL     1       5.281   5.499  17.218  0.00  0.00    +0.000 A 
ENDBRANCH   1   2
BRANCH   1   8
ATOM      8  C   UNL     1       2.976   4.936  18.843  0.00  0.00    +0.000 C 
ATOM      9  S   UNL     1       2.603   6.417  19.537  0.00  0.00    +0.000 S 
BRANCH   8  10
ATOM     10  S   UNL     1       1.868   3.939  17.900  0.00  0.00    +0.000 S 
BRANCH  10  11
ATOM     11  C   UNL     1       1.574   2.523  19.002  0.00  0.00    +0.000 C 
BRANCH  11  13
ATOM     12  C   UNL     1       1.484   2.807  21.495  0.00  0.00    +0.000 C 
ATOM     13  C   UNL     1       0.964   3.016  20.277  0.00  0.00    +0.000 C 
ENDBRANCH  11  13
ENDBRANCH  10  11
ENDBRANCH   8  10
ENDBRANCH   1   8
TORSDOF 5
ENDMDL
MODEL 3
REMARK VINA RESULT:      -5.1      2.499      5.728
REMARK  Name = 
REMARK  5 active torsions:
REMARK  status: ('A' for Active; 'I' for Inactive)
REMARK    1  A    between atoms: C_2  and  C_3
REMARK    2  A    between atoms: C_3  and  S_4
REMARK    3  A    between atoms: S_4  and  C_5
REMARK    4  A    between atoms: C_5  and  C_7
REMARK    5  A    between atoms: C_7  and  N_8
REMARK                            x       y       z     vdW  Elec       q    Type
REMARK                         _______ _______ _______ _____ _____    ______ ____
ROOT
ATOM      1  C   UNL     1       3.414   6.417  18.399  0.00  0.00    +0.000 C 
ENDROOT
BRANCH   1   2
ATOM      2  N   UNL     1       2.580   5.286  18.880  0.00  0.00    +0.000 N 
ATOM      3  C   UNL     1       2.199   4.314  18.017  0.00  0.00    +0.000 A 
ATOM      4  C   UNL     1       1.359   3.287  18.431  0.00  0.00    +0.000 A 
ATOM      5  C   UNL     1       0.917   3.256  19.747  0.00  0.00    +0.000 A 
ATOM      6  C   UNL     1       1.339   4.241  20.630  0.00  0.00    +0.000 A 
ATOM      7  C   UNL     1       2.182   5.247  20.177  0.00  0.00    +0.000 A 
ENDBRANCH   1   2
BRANCH   1   8
ATOM      8  C   UNL     1       4.774   5.904  17.947  0.00  0.00    +0.000 C 
ATOM      9  S   UNL     1       5.814   5.190  19.052  0.00  0.00    +0.000 S 
BRANCH   8  10
ATOM     10  S   UNL     1       5.166   6.282  16.269  0.00  0.00    +0.000 S 
BRANCH  10  11
ATOM     11  C   UNL     1       6.446   5.053  15.873  0.00  0.00    +0.000 C 
BRANCH  11  13
ATOM     12  C   UNL     1       6.220   3.914  13.648  0.00  0.00    +0.000 C 
ATOM     13  C   UNL     1       5.873   4.036  14.937  0.00  0.00    +0.000 C 
ENDBRANCH  11  13
ENDBRANCH  10  11
ENDBRANCH   8  10
ENDBRANCH   1   8
TORSDOF 5
ENDMDL
MODEL 4
REMARK VINA RESULT:      -5.1      1.351      1.520
REMARK  Name = 
REMARK  5 active torsions:
REMARK  status: ('A' for Active; 'I' for Inactive)
REMARK    1  A    between atoms: C_2  and  C_3
REMARK    2  A    between atoms: C_3  and  S_4
REMARK    3  A    between atoms: S_4  and  C_5
REMARK    4  A    between atoms: C_5  and  C_7
REMARK    5  A    between atoms: C_7  and  N_8
REMARK                            x       y       z     vdW  Elec       q    Type
REMARK                         _______ _______ _______ _____ _____    ______ ____
ROOT
ATOM      1  C   UNL     1       4.478   4.122  16.595  0.00  0.00    +0.000 C 
ENDROOT
BRANCH   1   2
ATOM      2  N   UNL     1       5.516   5.029  17.150  0.00  0.00    +0.000 N 
ATOM      3  C   UNL     1       5.583   6.314  16.727  0.00  0.00    +0.000 A 
ATOM      4  C   UNL     1       6.590   7.158  17.180  0.00  0.00    +0.000 A 
ATOM      5  C   UNL     1       7.529   6.676  18.082  0.00  0.00    +0.000 A 
ATOM      6  C   UNL     1       7.432   5.367  18.531  0.00  0.00    +0.000 A 
ATOM      7  C   UNL     1       6.407   4.558  18.057  0.00  0.00    +0.000 A 
ENDBRANCH   1   2
BRANCH   1   8
ATOM      8  C   UNL     1       3.531   3.678  17.701  0.00  0.00    +0.000 C 
ATOM      9  S   UNL     1       3.494   2.071  18.182  0.00  0.00    +0.000 S 
BRANCH   8  10
ATOM     10  S   UNL     1       2.432   4.940  18.258  0.00  0.00    +0.000 S 
BRANCH  10  11
ATOM     11  C   UNL     1       2.565   4.811  20.067  0.00  0.00    +0.000 C 
BRANCH  11  13
ATOM     12  C   UNL     1       1.278   2.962  21.173  0.00  0.00    +0.000 C 
ATOM     13  C   UNL     1       1.322   4.174  20.603  0.00  0.00    +0.000 C 
ENDBRANCH  11  13
ENDBRANCH  10  11
ENDBRANCH   8  10
ENDBRANCH   1   8
TORSDOF 5
ENDMDL
MODEL 5
REMARK VINA RESULT:      -5.1      1.363      1.962
REMARK  Name = 
REMARK  5 active torsions:
REMARK  status: ('A' for Active; 'I' for Inactive)
REMARK    1  A    between atoms: C_2  and  C_3
REMARK    2  A    between atoms: C_3  and  S_4
REMARK    3  A    between atoms: S_4  and  C_5
REMARK    4  A    between atoms: C_5  and  C_7
REMARK    5  A    between atoms: C_7  and  N_8
REMARK                            x       y       z     vdW  Elec       q    Type
REMARK                         _______ _______ _______ _____ _____    ______ ____
ROOT
ATOM      1  C   UNL     1       4.584   4.445  16.943  0.00  0.00    +0.000 C 
ENDROOT
BRANCH   1   2
ATOM      2  N   UNL     1       5.687   5.270  17.499  0.00  0.00    +0.000 N 
ATOM      3  C   UNL     1       6.121   6.360  16.822  0.00  0.00    +0.000 A 
ATOM      4  C   UNL     1       7.198   7.103  17.289  0.00  0.00    +0.000 A 
ATOM      5  C   UNL     1       7.827   6.726  18.468  0.00  0.00    +0.000 A 
ATOM      6  C   UNL     1       7.354   5.625  19.169  0.00  0.00    +0.000 A 
ATOM      7  C   UNL     1       6.272   4.913  18.670  0.00  0.00    +0.000 A 
ENDBRANCH   1   2
BRANCH   1   8
ATOM      8  C   UNL     1       3.363   4.531  17.847  0.00  0.00    +0.000 C 
ATOM      9  S   UNL     1       2.654   6.018  18.164  0.00  0.00    +0.000 S 
BRANCH   8  10
ATOM     10  S   UNL     1       2.918   3.002  18.607  0.00  0.00    +0.000 S 
BRANCH  10  11
ATOM     11  C   UNL     1       1.199   3.299  19.118  0.00  0.00    +0.000 C 
BRANCH  11  13
ATOM     12  C   UNL     1       1.568   2.648  21.513  0.00  0.00    +0.000 C 
ATOM     13  C   UNL     1       1.163   3.535  20.595  0.00  0.00    +0.000 C 
ENDBRANCH  11  13
ENDBRANCH  10  11
ENDBRANCH   8  10
ENDBRANCH   1   8
TORSDOF 5
ENDMDL
MODEL 6
REMARK VINA RESULT:      -5.1      2.484      5.611
REMARK  Name = 
REMARK  5 active torsions:
REMARK  status: ('A' for Active; 'I' for Inactive)
REMARK    1  A    between atoms: C_2  and  C_3
REMARK    2  A    between atoms: C_3  and  S_4
REMARK    3  A    between atoms: S_4  and  C_5
REMARK    4  A    between atoms: C_5  and  C_7
REMARK    5  A    between atoms: C_7  and  N_8
REMARK                            x       y       z     vdW  Elec       q    Type
REMARK                         _______ _______ _______ _____ _____    ______ ____
ROOT
ATOM      1  C   UNL     1       3.199   6.281  18.146  0.00  0.00    +0.000 C 
ENDROOT
BRANCH   1   2
ATOM      2  N   UNL     1       2.360   5.204  18.733  0.00  0.00    +0.000 N 
ATOM      3  C   UNL     1       2.012   5.259  20.041  0.00  0.00    +0.000 A 
ATOM      4  C   UNL     1       1.289   4.226  20.626  0.00  0.00    +0.000 A 
ATOM      5  C   UNL     1       0.914   3.134  19.855  0.00  0.00    +0.000 A 
ATOM      6  C   UNL     1       1.251   3.104  18.509  0.00  0.00    +0.000 A 
ATOM      7  C   UNL     1       1.970   4.159  17.962  0.00  0.00    +0.000 A 
ENDBRANCH   1   2
BRANCH   1   8
ATOM      8  C   UNL     1       4.604   5.760  17.882  0.00  0.00    +0.000 C 
ATOM      9  S   UNL     1       5.533   5.167  19.147  0.00  0.00    +0.000 S 
BRANCH   8  10
ATOM     10  S   UNL     1       5.163   5.998  16.226  0.00  0.00    +0.000 S 
BRANCH  10  11
ATOM     11  C   UNL     1       6.335   4.627  16.001  0.00  0.00    +0.000 C 
BRANCH  11  13
ATOM     12  C   UNL     1       6.335   4.010  13.568  0.00  0.00    +0.000 C 
ATOM     13  C   UNL     1       5.909   3.809  14.823  0.00  0.00    +0.000 C 
ENDBRANCH  11  13
ENDBRANCH  10  11
ENDBRANCH   8  10
ENDBRANCH   1   8
TORSDOF 5
ENDMDL
MODEL 7
REMARK VINA RESULT:      -5.1      1.960      2.612
REMARK  Name = 
REMARK  5 active torsions:
REMARK  status: ('A' for Active; 'I' for Inactive)
REMARK    1  A    between atoms: C_2  and  C_3
REMARK    2  A    between atoms: C_3  and  S_4
REMARK    3  A    between atoms: S_4  and  C_5
REMARK    4  A    between atoms: C_5  and  C_7
REMARK    5  A    between atoms: C_7  and  N_8
REMARK                            x       y       z     vdW  Elec       q    Type
REMARK                         _______ _______ _______ _____ _____    ______ ____
ROOT
ATOM      1  C   UNL     1       3.807   5.491  17.671  0.00  0.00    +0.000 C 
ENDROOT
BRANCH   1   2
ATOM      2  N   UNL     1       5.206   5.872  17.992  0.00  0.00    +0.000 N 
ATOM      3  C   UNL     1       5.859   6.762  17.208  0.00  0.00    +0.000 A 
ATOM      4  C   UNL     1       7.192   7.077  17.450  0.00  0.00    +0.000 A 
ATOM      5  C   UNL     1       7.852   6.477  18.514  0.00  0.00    +0.000 A 
ATOM      6  C   UNL     1       7.163   5.589  19.329  0.00  0.00    +0.000 A 
ATOM      7  C   UNL     1       5.831   5.306  19.055  0.00  0.00    +0.000 A 
ENDBRANCH   1   2
BRANCH   1   8
ATOM      8  C   UNL     1       2.839   6.302  18.520  0.00  0.00    +0.000 C 
ATOM      9  S   UNL     1       2.504   7.896  18.124  0.00  0.00    +0.000 S 
BRANCH   8  10
ATOM     10  S   UNL     1       2.283   5.469  19.973  0.00  0.00    +0.000 S 
BRANCH  10  11
ATOM     11  C   UNL     1       2.018   3.771  19.380  0.00  0.00    +0.000 C 
BRANCH  11  13
ATOM     12  C   UNL     1       1.478   2.732  21.600  0.00  0.00    +0.000 C 
ATOM     13  C   UNL     1       1.130   3.050  20.345  0.00  0.00    +0.000 C 
ENDBRANCH  11  13
ENDBRANCH  10  11
ENDBRANCH   8  10
ENDBRANCH   1   8
TORSDOF 5
ENDMDL
MODEL 8
REMARK VINA RESULT:      -5.1      2.774      5.658
REMARK  Name = 
REMARK  5 active torsions:
REMARK  status: ('A' for Active; 'I' for Inactive)
REMARK    1  A    between atoms: C_2  and  C_3
REMARK    2  A    between atoms: C_3  and  S_4
REMARK    3  A    between atoms: S_4  and  C_5
REMARK    4  A    between atoms: C_5  and  C_7
REMARK    5  A    between atoms: C_7  and  N_8
REMARK                            x       y       z     vdW  Elec       q    Type
REMARK                         _______ _______ _______ _____ _____    ______ ____
ROOT
ATOM      1  C   UNL     1       4.996   5.265  18.467  0.00  0.00    +0.000 C 
ENDROOT
BRANCH   1   2
ATOM      2  N   UNL     1       3.888   4.286  18.317  0.00  0.00    +0.000 N 
ATOM      3  C   UNL     1       2.629   4.724  18.078  0.00  0.00    +0.000 A 
ATOM      4  C   UNL     1       1.568   3.828  18.006  0.00  0.00    +0.000 A 
ATOM      5  C   UNL     1       1.810   2.471  18.172  0.00  0.00    +0.000 A 
ATOM      6  C   UNL     1       3.109   2.032  18.386  0.00  0.00    +0.000 A 
ATOM      7  C   UNL     1       4.141   2.959  18.446  0.00  0.00    +0.000 A 
ENDBRANCH   1   2
BRANCH   1   8
ATOM      8  C   UNL     1       6.037   5.043  17.380  0.00  0.00    +0.000 C 
ATOM      9  S   UNL     1       7.623   4.689  17.793  0.00  0.00    +0.000 S 
BRANCH   8  10
ATOM     10  S   UNL     1       5.449   5.352  15.745  0.00  0.00    +0.000 S 
BRANCH  10  11
ATOM     11  C   UNL     1       6.448   4.211  14.742  0.00  0.00    +0.000 C 
BRANCH  11  13
ATOM     12  C   UNL     1       6.300   3.427  12.363  0.00  0.00    +0.000 C 
ATOM     13  C   UNL     1       5.721   3.918  13.467  0.00  0.00    +0.000 C 
ENDBRANCH  11  13
ENDBRANCH  10  11
ENDBRANCH   8  10
ENDBRANCH   1   8
TORSDOF 5
ENDMDL
MODEL 9
REMARK VINA RESULT:      -5.0      1.339      1.929
REMARK  Name = 
REMARK  5 active torsions:
REMARK  status: ('A' for Active; 'I' for Inactive)
REMARK    1  A    between atoms: C_2  and  C_3
REMARK    2  A    between atoms: C_3  and  S_4
REMARK    3  A    between atoms: S_4  and  C_5
REMARK    4  A    between atoms: C_5  and  C_7
REMARK    5  A    between atoms: C_7  and  N_8
REMARK                            x       y       z     vdW  Elec       q    Type
REMARK                         _______ _______ _______ _____ _____    ______ ____
ROOT
ATOM      1  C   UNL     1       4.770   3.705  18.994  0.00  0.00    +0.000 C 
ENDROOT
BRANCH   1   2
ATOM      2  N   UNL     1       5.655   4.723  18.371  0.00  0.00    +0.000 N 
ATOM      3  C   UNL     1       5.584   4.953  17.038  0.00  0.00    +0.000 A 
ATOM      4  C   UNL     1       6.453   5.849  16.426  0.00  0.00    +0.000 A 
ATOM      5  C   UNL     1       7.394   6.520  17.195  0.00  0.00    +0.000 A 
ATOM      6  C   UNL     1       7.437   6.298  18.565  0.00  0.00    +0.000 A 
ATOM      7  C   UNL     1       6.547   5.399  19.138  0.00  0.00    +0.000 A 
ENDBRANCH   1   2
BRANCH   1   8
ATOM      8  C   UNL     1       3.330   3.927  18.552  0.00  0.00    +0.000 C 
ATOM      9  S   UNL     1       2.611   2.870  17.467  0.00  0.00    +0.000 S 
BRANCH   8  10
ATOM     10  S   UNL     1       2.616   5.426  19.148  0.00  0.00    +0.000 S 
BRANCH  10  11
ATOM     11  C   UNL     1       2.100   4.978  20.833  0.00  0.00    +0.000 C 
BRANCH  11  13
ATOM     12  C   UNL     1       1.439   2.669  21.561  0.00  0.00    +0.000 C 
ATOM     13  C   UNL     1       1.264   3.738  20.773  0.00  0.00    +0.000 C 
ENDBRANCH  11  13
ENDBRANCH  10  11
ENDBRANCH   8  10
ENDBRANCH   1   8
TORSDOF 5
ENDMDL
