MODEL 1
REMARK VINA RESULT:      -7.7      0.000      0.000
REMARK  Name = 
REMARK  7 active torsions:
REMARK  status: ('A' for Active; 'I' for Inactive)
REMARK    1  A    between atoms: C_1  and  C_2
REMARK    2  A    between atoms: C_2  and  N_3
REMARK    3  A    between atoms: N_3  and  C_4
REMARK    4  A    between atoms: N_3  and  C_14
REMARK    5  A    between atoms: C_4  and  C_5
REMARK    6  A    between atoms: C_5  and  C_6
REMARK    7  A    between atoms: C_19  and  N_20
REMARK                            x       y       z     vdW  Elec       q    Type
REMARK                         _______ _______ _______ _____ _____    ______ ____
ROOT
ATOM      1  N   UNL     1       3.966   3.900  18.453  0.00  0.00    +0.000 NA
ENDROOT
BRANCH   1   2
ATOM      2  C   UNL     1       5.026   3.951  17.421  0.00  0.00    +0.000 C 
ATOM      3  C   UNL     1       4.477   4.508  16.089  0.00  0.00    +0.000 C 
ATOM      4  C   UNL     1       5.465   4.367  14.931  0.00  0.00    +0.000 C 
ATOM      5  C   UNL     1       6.877   4.845  15.251  0.00  0.00    +0.000 C 
ATOM      6  C   UNL     1       7.396   4.305  16.581  0.00  0.00    +0.000 C 
ATOM      7  C   UNL     1       6.449   4.524  17.789  0.00  0.00    +0.000 C 
BRANCH   7   8
ATOM      8  N   UNL     1       6.520   5.868  18.391  0.00  0.00    +0.000 NA
ATOM      9  C   UNL     1       6.148   7.046  17.620  0.00  0.00    +0.000 C 
ATOM     10  C   UNL     1       7.452   7.742  17.289  0.00  0.00    +0.000 C 
ATOM     11  C   UNL     1       8.273   7.515  18.539  0.00  0.00    +0.000 C 
ATOM     12  C   UNL     1       7.799   6.162  19.058  0.00  0.00    +0.000 C 
ENDBRANCH   7   8
ENDBRANCH   1   2
BRANCH   1  14
ATOM     13  C   UNL     1       2.139   2.108  18.652  0.00  0.00    +0.000 C 
ATOM     14  C   UNL     1       3.547   2.599  18.973  0.00  0.00    +0.000 C 
ENDBRANCH   1  14
BRANCH   1  15
ATOM     15  C   UNL     1       2.925   4.933  18.344  0.00  0.00    +0.000 C 
BRANCH  15  16
ATOM     16  C   UNL     1       2.912   5.857  19.587  0.00  0.00    +0.000 C 
BRANCH  16  17
ATOM     17  C   UNL     1       2.306   7.241  19.445  0.00  0.00    +0.000 A 
ATOM     18  C   UNL     1       2.281   7.842  18.171  0.00  0.00    +0.000 A 
ATOM     19  C   UNL     1       1.645   9.066  17.962  0.00  0.00    +0.000 A 
ATOM     20  C   UNL     1       1.007   9.717  19.020  0.00  0.00    +0.000 A 
ATOM     21 CL   UNL     1       0.219  11.215  18.688  0.00  0.00    +0.000 Cl
ATOM     22  C   UNL     1       1.019   9.131  20.294  0.00  0.00    +0.000 A 
ATOM     23 CL   UNL     1       0.237   9.870  21.648  0.00  0.00    +0.000 Cl
ATOM     24  C   UNL     1       1.657   7.904  20.499  0.00  0.00    +0.000 A 
ENDBRANCH  16  17
ENDBRANCH  15  16
ENDBRANCH   1  15
TORSDOF 6
ENDMDL
MODEL 2
REMARK VINA RESULT:      -7.4      1.103      2.629
REMARK  Name = 
REMARK  7 active torsions:
REMARK  status: ('A' for Active; 'I' for Inactive)
REMARK    1  A    between atoms: C_1  and  C_2
REMARK    2  A    between atoms: C_2  and  N_3
REMARK    3  A    between atoms: N_3  and  C_4
REMARK    4  A    between atoms: N_3  and  C_14
REMARK    5  A    between atoms: C_4  and  C_5
REMARK    6  A    between atoms: C_5  and  C_6
REMARK    7  A    between atoms: C_19  and  N_20
REMARK                            x       y       z     vdW  Elec       q    Type
REMARK                         _______ _______ _______ _____ _____    ______ ____
ROOT
ATOM      1  N   UNL     1       4.178   4.640  19.440  0.00  0.00    +0.000 NA
ENDROOT
BRANCH   1   2
ATOM      2  C   UNL     1       5.224   5.568  18.955  0.00  0.00    +0.000 C 
ATOM      3  C   UNL     1       6.636   5.031  19.277  0.00  0.00    +0.000 C 
ATOM      4  C   UNL     1       7.739   6.054  19.005  0.00  0.00    +0.000 C 
ATOM      5  C   UNL     1       7.644   6.728  17.641  0.00  0.00    +0.000 C 
ATOM      6  C   UNL     1       6.238   7.232  17.327  0.00  0.00    +0.000 C 
ATOM      7  C   UNL     1       5.113   6.180  17.504  0.00  0.00    +0.000 C 
BRANCH   7   8
ATOM      8  N   UNL     1       4.953   5.251  16.371  0.00  0.00    +0.000 NA
ATOM      9  C   UNL     1       5.524   3.912  16.425  0.00  0.00    +0.000 C 
ATOM     10  C   UNL     1       6.722   3.945  15.498  0.00  0.00    +0.000 C 
ATOM     11  C   UNL     1       6.250   4.847  14.381  0.00  0.00    +0.000 C 
ATOM     12  C   UNL     1       5.307   5.830  15.064  0.00  0.00    +0.000 C 
ENDBRANCH   7   8
ENDBRANCH   1   2
BRANCH   1  14
ATOM     13  C   UNL     1       3.400   2.239  18.968  0.00  0.00    +0.000 C 
ATOM     14  C   UNL     1       4.466   3.206  19.473  0.00  0.00    +0.000 C 
ENDBRANCH   1  14
BRANCH   1  15
ATOM     15  C   UNL     1       2.793   5.026  19.132  0.00  0.00    +0.000 C 
BRANCH  15  16
ATOM     16  C   UNL     1       2.182   5.892  20.261  0.00  0.00    +0.000 C 
BRANCH  16  17
ATOM     17  C   UNL     1       1.873   7.348  19.961  0.00  0.00    +0.000 A 
ATOM     18  C   UNL     1       2.125   7.840  18.666  0.00  0.00    +0.000 A 
ATOM     19  C   UNL     1       1.764   9.140  18.305  0.00  0.00    +0.000 A 
ATOM     20  C   UNL     1       1.132   9.976  19.227  0.00  0.00    +0.000 A 
ATOM     21 CL   UNL     1       0.692  11.561  18.708  0.00  0.00    +0.000 Cl
ATOM     22  C   UNL     1       0.871   9.500  20.519  0.00  0.00    +0.000 A 
ATOM     23 CL   UNL     1       0.078  10.473  21.709  0.00  0.00    +0.000 Cl
ATOM     24  C   UNL     1       1.233   8.198  20.877  0.00  0.00    +0.000 A 
ENDBRANCH  16  17
ENDBRANCH  15  16
ENDBRANCH   1  15
TORSDOF 6
ENDMDL
MODEL 3
REMARK VINA RESULT:      -7.1      1.483      3.250
REMARK  Name = 
REMARK  7 active torsions:
REMARK  status: ('A' for Active; 'I' for Inactive)
REMARK    1  A    between atoms: C_1  and  C_2
REMARK    2  A    between atoms: C_2  and  N_3
REMARK    3  A    between atoms: N_3  and  C_4
REMARK    4  A    between atoms: N_3  and  C_14
REMARK    5  A    between atoms: C_4  and  C_5
REMARK    6  A    between atoms: C_5  and  C_6
REMARK    7  A    between atoms: C_19  and  N_20
REMARK                            x       y       z     vdW  Elec       q    Type
REMARK                         _______ _______ _______ _____ _____    ______ ____
ROOT
ATOM      1  N   UNL     1       3.141   5.745  18.823  0.00  0.00    +0.000 NA
ENDROOT
BRANCH   1   2
ATOM      2  C   UNL     1       4.576   6.055  18.633  0.00  0.00    +0.000 C 
ATOM      3  C   UNL     1       5.467   5.042  19.386  0.00  0.00    +0.000 C 
ATOM      4  C   UNL     1       6.941   5.449  19.412  0.00  0.00    +0.000 C 
ATOM      5  C   UNL     1       7.501   5.857  18.054  0.00  0.00    +0.000 C 
ATOM      6  C   UNL     1       6.598   6.838  17.313  0.00  0.00    +0.000 C 
ATOM      7  C   UNL     1       5.117   6.399  17.191  0.00  0.00    +0.000 C 
BRANCH   7   8
ATOM      8  N   UNL     1       4.845   5.442  16.103  0.00  0.00    +0.000 NA
ATOM      9  C   UNL     1       4.989   4.009  16.324  0.00  0.00    +0.000 C 
ATOM     10  C   UNL     1       6.257   3.613  15.594  0.00  0.00    +0.000 C 
ATOM     11  C   UNL     1       6.219   4.493  14.366  0.00  0.00    +0.000 C 
ATOM     12  C   UNL     1       5.521   5.764  14.835  0.00  0.00    +0.000 C 
ENDBRANCH   7   8
ENDBRANCH   1   2
BRANCH   1  14
ATOM     13  C   UNL     1       1.616   3.799  18.132  0.00  0.00    +0.000 C 
ATOM     14  C   UNL     1       2.737   4.352  19.006  0.00  0.00    +0.000 C 
ENDBRANCH   1  14
BRANCH   1  15
ATOM     15  C   UNL     1       2.202   6.613  18.096  0.00  0.00    +0.000 C 
BRANCH  15  16
ATOM     16  C   UNL     1       2.380   8.099  18.495  0.00  0.00    +0.000 C 
BRANCH  16  17
ATOM     17  C   UNL     1       1.453   8.673  19.551  0.00  0.00    +0.000 A 
ATOM     18  C   UNL     1       1.498   8.139  20.854  0.00  0.00    +0.000 A 
ATOM     19  C   UNL     1       0.745   8.697  21.889  0.00  0.00    +0.000 A 
ATOM     20  C   UNL     1      -0.063   9.809  21.650  0.00  0.00    +0.000 A 
ATOM     21 CL   UNL     1      -0.949  10.463  22.978  0.00  0.00    +0.000 Cl
ATOM     22  C   UNL     1      -0.116  10.356  20.360  0.00  0.00    +0.000 A 
ATOM     23 CL   UNL     1      -1.084  11.742  19.993  0.00  0.00    +0.000 Cl
ATOM     24  C   UNL     1       0.639   9.795  19.326  0.00  0.00    +0.000 A 
ENDBRANCH  16  17
ENDBRANCH  15  16
ENDBRANCH   1  15
TORSDOF 6
ENDMDL
MODEL 4
REMARK VINA RESULT:      -7.0      0.721      1.481
REMARK  Name = 
REMARK  7 active torsions:
REMARK  status: ('A' for Active; 'I' for Inactive)
REMARK    1  A    between atoms: C_1  and  C_2
REMARK    2  A    between atoms: C_2  and  N_3
REMARK    3  A    between atoms: N_3  and  C_4
REMARK    4  A    between atoms: N_3  and  C_14
REMARK    5  A    between atoms: C_4  and  C_5
REMARK    6  A    between atoms: C_5  and  C_6
REMARK    7  A    between atoms: C_19  and  N_20
REMARK                            x       y       z     vdW  Elec       q    Type
REMARK                         _______ _______ _______ _____ _____    ______ ____
ROOT
ATOM      1  N   UNL     1       3.867   3.776  17.751  0.00  0.00    +0.000 NA
ENDROOT
BRANCH   1   2
ATOM      2  C   UNL     1       5.033   3.896  16.845  0.00  0.00    +0.000 C 
ATOM      3  C   UNL     1       4.633   4.570  15.514  0.00  0.00    +0.000 C 
ATOM      4  C   UNL     1       5.740   4.510  14.461  0.00  0.00    +0.000 C 
ATOM      5  C   UNL     1       7.112   4.940  14.969  0.00  0.00    +0.000 C 
ATOM      6  C   UNL     1       7.481   4.284  16.297  0.00  0.00    +0.000 C 
ATOM      7  C   UNL     1       6.411   4.417  17.411  0.00  0.00    +0.000 C 
BRANCH   7   8
ATOM      8  N   UNL     1       6.423   5.705  18.128  0.00  0.00    +0.000 NA
ATOM      9  C   UNL     1       6.132   6.947  17.424  0.00  0.00    +0.000 C 
ATOM     10  C   UNL     1       7.464   7.655  17.284  0.00  0.00    +0.000 C 
ATOM     11  C   UNL     1       8.155   7.316  18.585  0.00  0.00    +0.000 C 
ATOM     12  C   UNL     1       7.630   5.929  18.940  0.00  0.00    +0.000 C 
ENDBRANCH   7   8
ENDBRANCH   1   2
BRANCH   1  14
ATOM     13  C   UNL     1       2.659   2.061  19.231  0.00  0.00    +0.000 C 
ATOM     14  C   UNL     1       3.192   2.484  17.865  0.00  0.00    +0.000 C 
ENDBRANCH   1  14
BRANCH   1  15
ATOM     15  C   UNL     1       3.021   4.974  17.858  0.00  0.00    +0.000 C 
BRANCH  15  16
ATOM     16  C   UNL     1       3.095   5.594  19.275  0.00  0.00    +0.000 C 
BRANCH  16  17
ATOM     17  C   UNL     1       2.301   6.859  19.546  0.00  0.00    +0.000 A 
ATOM     18  C   UNL     1       1.656   7.000  20.790  0.00  0.00    +0.000 A 
ATOM     19  C   UNL     1       1.000   8.184  21.133  0.00  0.00    +0.000 A 
ATOM     20  C   UNL     1       0.981   9.260  20.245  0.00  0.00    +0.000 A 
ATOM     21 CL   UNL     1       0.174  10.702  20.742  0.00  0.00    +0.000 Cl
ATOM     22  C   UNL     1       1.622   9.138  19.004  0.00  0.00    +0.000 A 
ATOM     23 CL   UNL     1       1.653  10.435  17.859  0.00  0.00    +0.000 Cl
ATOM     24  C   UNL     1       2.278   7.952  18.664  0.00  0.00    +0.000 A 
ENDBRANCH  16  17
ENDBRANCH  15  16
ENDBRANCH   1  15
TORSDOF 6
ENDMDL
MODEL 5
REMARK VINA RESULT:      -7.0      1.968      3.951
REMARK  Name = 
REMARK  7 active torsions:
REMARK  status: ('A' for Active; 'I' for Inactive)
REMARK    1  A    between atoms: C_1  and  C_2
REMARK    2  A    between atoms: C_2  and  N_3
REMARK    3  A    between atoms: N_3  and  C_4
REMARK    4  A    between atoms: N_3  and  C_14
REMARK    5  A    between atoms: C_4  and  C_5
REMARK    6  A    between atoms: C_5  and  C_6
REMARK    7  A    between atoms: C_19  and  N_20
REMARK                            x       y       z     vdW  Elec       q    Type
REMARK                         _______ _______ _______ _____ _____    ______ ____
ROOT
ATOM      1  N   UNL     1       2.110   6.880  18.986  0.00  0.00    +0.000 NA
ENDROOT
BRANCH   1   2
ATOM      2  C   UNL     1       2.503   5.453  19.022  0.00  0.00    +0.000 C 
ATOM      3  C   UNL     1       1.966   4.698  17.785  0.00  0.00    +0.000 C 
ATOM      4  C   UNL     1       2.146   3.183  17.888  0.00  0.00    +0.000 C 
ATOM      5  C   UNL     1       3.546   2.746  18.304  0.00  0.00    +0.000 C 
ATOM      6  C   UNL     1       4.070   3.517  19.512  0.00  0.00    +0.000 C 
ATOM      7  C   UNL     1       3.987   5.060  19.388  0.00  0.00    +0.000 C 
BRANCH   7   8
ATOM      8  N   UNL     1       5.078   5.677  18.612  0.00  0.00    +0.000 NA
ATOM      9  C   UNL     1       5.116   5.554  17.161  0.00  0.00    +0.000 C 
ATOM     10  C   UNL     1       6.226   4.564  16.868  0.00  0.00    +0.000 C 
ATOM     11  C   UNL     1       7.253   4.898  17.927  0.00  0.00    +0.000 C 
ATOM     12  C   UNL     1       6.426   5.367  19.118  0.00  0.00    +0.000 C 
ENDBRANCH   7   8
ENDBRANCH   1   2
BRANCH   1  14
ATOM     13  C   UNL     1       2.035   9.140  17.770  0.00  0.00    +0.000 C 
ATOM     14  C   UNL     1       2.343   7.646  17.762  0.00  0.00    +0.000 C 
ENDBRANCH   1  14
BRANCH   1  15
ATOM     15  C   UNL     1       2.248   7.609  20.256  0.00  0.00    +0.000 C 
BRANCH  15  16
ATOM     16  C   UNL     1       0.917   7.624  21.047  0.00  0.00    +0.000 C 
BRANCH  16  17
ATOM     17  C   UNL     1       0.343   8.968  21.458  0.00  0.00    +0.000 A 
ATOM     18  C   UNL     1      -0.423   9.045  22.637  0.00  0.00    +0.000 A 
ATOM     19  C   UNL     1      -0.887  10.271  23.117  0.00  0.00    +0.000 A 
ATOM     20  C   UNL     1      -0.588  11.452  22.436  0.00  0.00    +0.000 A 
ATOM     21 CL   UNL     1      -1.173  12.935  23.097  0.00  0.00    +0.000 Cl
ATOM     22  C   UNL     1       0.176  11.393  21.262  0.00  0.00    +0.000 A 
ATOM     23 CL   UNL     1       0.599  12.816  20.374  0.00  0.00    +0.000 Cl
ATOM     24  C   UNL     1       0.640  10.164  20.785  0.00  0.00    +0.000 A 
ENDBRANCH  16  17
ENDBRANCH  15  16
ENDBRANCH   1  15
TORSDOF 6
ENDMDL
MODEL 6
REMARK VINA RESULT:      -6.9      1.330      3.031
REMARK  Name = 
REMARK  7 active torsions:
REMARK  status: ('A' for Active; 'I' for Inactive)
REMARK    1  A    between atoms: C_1  and  C_2
REMARK    2  A    between atoms: C_2  and  N_3
REMARK    3  A    between atoms: N_3  and  C_4
REMARK    4  A    between atoms: N_3  and  C_14
REMARK    5  A    between atoms: C_4  and  C_5
REMARK    6  A    between atoms: C_5  and  C_6
REMARK    7  A    between atoms: C_19  and  N_20
REMARK                            x       y       z     vdW  Elec       q    Type
REMARK                         _______ _______ _______ _____ _____    ______ ____
ROOT
ATOM      1  N   UNL     1       4.199   4.565  19.419  0.00  0.00    +0.000 NA
ENDROOT
BRANCH   1   2
ATOM      2  C   UNL     1       5.217   5.528  18.942  0.00  0.00    +0.000 C 
ATOM      3  C   UNL     1       6.645   5.023  19.245  0.00  0.00    +0.000 C 
ATOM      4  C   UNL     1       7.719   6.078  18.981  0.00  0.00    +0.000 C 
ATOM      5  C   UNL     1       7.597   6.771  17.629  0.00  0.00    +0.000 C 
ATOM      6  C   UNL     1       6.176   7.243  17.334  0.00  0.00    +0.000 C 
ATOM      7  C   UNL     1       5.080   6.160  17.502  0.00  0.00    +0.000 C 
BRANCH   7   8
ATOM      8  N   UNL     1       4.935   5.245  16.355  0.00  0.00    +0.000 NA
ATOM      9  C   UNL     1       5.513   3.909  16.397  0.00  0.00    +0.000 C 
ATOM     10  C   UNL     1       6.719   3.960  15.482  0.00  0.00    +0.000 C 
ATOM     11  C   UNL     1       6.252   4.874  14.372  0.00  0.00    +0.000 C 
ATOM     12  C   UNL     1       5.298   5.844  15.059  0.00  0.00    +0.000 C 
ENDBRANCH   7   8
ENDBRANCH   1   2
BRANCH   1  14
ATOM     13  C   UNL     1       4.127   2.253  20.533  0.00  0.00    +0.000 C 
ATOM     14  C   UNL     1       4.489   3.134  19.341  0.00  0.00    +0.000 C 
ENDBRANCH   1  14
BRANCH   1  15
ATOM     15  C   UNL     1       2.799   4.966  19.213  0.00  0.00    +0.000 C 
BRANCH  15  16
ATOM     16  C   UNL     1       2.223   5.676  20.463  0.00  0.00    +0.000 C 
BRANCH  16  17
ATOM     17  C   UNL     1       1.688   7.087  20.304  0.00  0.00    +0.000 A 
ATOM     18  C   UNL     1       0.938   7.649  21.356  0.00  0.00    +0.000 A 
ATOM     19  C   UNL     1       0.511   8.977  21.308  0.00  0.00    +0.000 A 
ATOM     20  C   UNL     1       0.832   9.780  20.212  0.00  0.00    +0.000 A 
ATOM     21 CL   UNL     1       0.293  11.419  20.227  0.00  0.00    +0.000 Cl
ATOM     22  C   UNL     1       1.581   9.237  19.158  0.00  0.00    +0.000 A 
ATOM     23 CL   UNL     1       2.028  10.175  17.775  0.00  0.00    +0.000 Cl
ATOM     24  C   UNL     1       2.007   7.907  19.210  0.00  0.00    +0.000 A 
ENDBRANCH  16  17
ENDBRANCH  15  16
ENDBRANCH   1  15
TORSDOF 6
ENDMDL
MODEL 7
REMARK VINA RESULT:      -6.9      3.642      6.576
REMARK  Name = 
REMARK  7 active torsions:
REMARK  status: ('A' for Active; 'I' for Inactive)
REMARK    1  A    between atoms: C_1  and  C_2
REMARK    2  A    between atoms: C_2  and  N_3
REMARK    3  A    between atoms: N_3  and  C_4
REMARK    4  A    between atoms: N_3  and  C_14
REMARK    5  A    between atoms: C_4  and  C_5
REMARK    6  A    between atoms: C_5  and  C_6
REMARK    7  A    between atoms: C_19  and  N_20
REMARK                            x       y       z     vdW  Elec       q    Type
REMARK                         _______ _______ _______ _____ _____    ______ ____
ROOT
ATOM      1  N   UNL     1       6.818   6.255  17.628  0.00  0.00    +0.000 NA
ENDROOT
BRANCH   1   2
ATOM      2  C   UNL     1       5.454   6.402  18.187  0.00  0.00    +0.000 C 
ATOM      3  C   UNL     1       4.496   7.032  17.152  0.00  0.00    +0.000 C 
ATOM      4  C   UNL     1       3.142   7.416  17.750  0.00  0.00    +0.000 C 
ATOM      5  C   UNL     1       2.494   6.318  18.587  0.00  0.00    +0.000 C 
ATOM      6  C   UNL     1       3.460   5.690  19.587  0.00  0.00    +0.000 C 
ATOM      7  C   UNL     1       4.802   5.205  18.982  0.00  0.00    +0.000 C 
BRANCH   7   8
ATOM      8  N   UNL     1       4.742   3.887  18.324  0.00  0.00    +0.000 NA
ATOM      9  C   UNL     1       3.980   3.707  17.096  0.00  0.00    +0.000 C 
ATOM     10  C   UNL     1       2.740   2.933  17.499  0.00  0.00    +0.000 C 
ATOM     11  C   UNL     1       3.268   1.996  18.562  0.00  0.00    +0.000 C 
ATOM     12  C   UNL     1       4.394   2.779  19.229  0.00  0.00    +0.000 C 
ENDBRANCH   7   8
ENDBRANCH   1   2
BRANCH   1  14
ATOM     13  C   UNL     1       7.206   4.562  15.737  0.00  0.00    +0.000 C 
ATOM     14  C   UNL     1       7.273   4.928  17.217  0.00  0.00    +0.000 C 
ENDBRANCH   1  14
BRANCH   1  15
ATOM     15  C   UNL     1       7.835   7.156  18.191  0.00  0.00    +0.000 C 
BRANCH  15  16
ATOM     16  C   UNL     1       7.776   8.557  17.535  0.00  0.00    +0.000 C 
BRANCH  16  17
ATOM     17  C   UNL     1       8.485   9.705  18.231  0.00  0.00    +0.000 A 
ATOM     18  C   UNL     1       8.992   9.500  19.528  0.00  0.00    +0.000 A 
ATOM     19  C   UNL     1       9.743  10.484  20.173  0.00  0.00    +0.000 A 
ATOM     20  C   UNL     1      10.014  11.695  19.533  0.00  0.00    +0.000 A 
ATOM     21 CL   UNL     1      10.968  12.858  20.377  0.00  0.00    +0.000 Cl
ATOM     22  C   UNL     1       9.520  11.913  18.239  0.00  0.00    +0.000 A 
ATOM     23 CL   UNL     1       9.828  13.381  17.378  0.00  0.00    +0.000 Cl
ATOM     24  C   UNL     1       8.769  10.925  17.596  0.00  0.00    +0.000 A 
ENDBRANCH  16  17
ENDBRANCH  15  16
ENDBRANCH   1  15
TORSDOF 6
ENDMDL
MODEL 8
REMARK VINA RESULT:      -6.8      1.687      2.372
REMARK  Name = 
REMARK  7 active torsions:
REMARK  status: ('A' for Active; 'I' for Inactive)
REMARK    1  A    between atoms: C_1  and  C_2
REMARK    2  A    between atoms: C_2  and  N_3
REMARK    3  A    between atoms: N_3  and  C_4
REMARK    4  A    between atoms: N_3  and  C_14
REMARK    5  A    between atoms: C_4  and  C_5
REMARK    6  A    between atoms: C_5  and  C_6
REMARK    7  A    between atoms: C_19  and  N_20
REMARK                            x       y       z     vdW  Elec       q    Type
REMARK                         _______ _______ _______ _____ _____    ______ ____
ROOT
ATOM      1  N   UNL     1       2.548   4.671  20.573  0.00  0.00    +0.000 NA
ENDROOT
BRANCH   1   2
ATOM      2  C   UNL     1       3.082   4.058  19.336  0.00  0.00    +0.000 C 
ATOM      3  C   UNL     1       2.191   4.396  18.120  0.00  0.00    +0.000 C 
ATOM      4  C   UNL     1       2.566   3.604  16.868  0.00  0.00    +0.000 C 
ATOM      5  C   UNL     1       4.056   3.610  16.546  0.00  0.00    +0.000 C 
ATOM      6  C   UNL     1       4.924   3.298  17.762  0.00  0.00    +0.000 C 
ATOM      7  C   UNL     1       4.624   4.159  19.016  0.00  0.00    +0.000 C 
BRANCH   7   8
ATOM      8  N   UNL     1       5.244   5.497  19.008  0.00  0.00    +0.000 NA
ATOM      9  C   UNL     1       5.031   6.405  17.890  0.00  0.00    +0.000 C 
ATOM     10  C   UNL     1       6.338   6.415  17.122  0.00  0.00    +0.000 C 
ATOM     11  C   UNL     1       7.368   6.320  18.224  0.00  0.00    +0.000 C 
ATOM     12  C   UNL     1       6.686   5.493  19.308  0.00  0.00    +0.000 C 
ENDBRANCH   7   8
ENDBRANCH   1   2
BRANCH   1  14
ATOM     13  C   UNL     1       1.536   2.565  21.636  0.00  0.00    +0.000 C 
ATOM     14  C   UNL     1       2.374   3.833  21.759  0.00  0.00    +0.000 C 
ENDBRANCH   1  14
BRANCH   1  15
ATOM     15  C   UNL     1       1.564   5.746  20.375  0.00  0.00    +0.000 C 
BRANCH  15  16
ATOM     16  C   UNL     1       2.255   7.112  20.141  0.00  0.00    +0.000 C 
BRANCH  16  17
ATOM     17  C   UNL     1       1.441   8.374  20.361  0.00  0.00    +0.000 A 
ATOM     18  C   UNL     1       1.207   9.227  19.265  0.00  0.00    +0.000 A 
ATOM     19  C   UNL     1       0.380  10.345  19.385  0.00  0.00    +0.000 A 
ATOM     20  C   UNL     1      -0.242  10.633  20.600  0.00  0.00    +0.000 A 
ATOM     21 CL   UNL     1      -1.271  12.016  20.673  0.00  0.00    +0.000 Cl
ATOM     22  C   UNL     1      -0.022   9.791  21.701  0.00  0.00    +0.000 A 
ATOM     23 CL   UNL     1      -0.771  10.076  23.234  0.00  0.00    +0.000 Cl
ATOM     24  C   UNL     1       0.806   8.672  21.577  0.00  0.00    +0.000 A 
ENDBRANCH  16  17
ENDBRANCH  15  16
ENDBRANCH   1  15
TORSDOF 6
ENDMDL
MODEL 9
REMARK VINA RESULT:      -6.8      1.525      2.980
REMARK  Name = 
REMARK  7 active torsions:
REMARK  status: ('A' for Active; 'I' for Inactive)
REMARK    1  A    between atoms: C_1  and  C_2
REMARK    2  A    between atoms: C_2  and  N_3
REMARK    3  A    between atoms: N_3  and  C_4
REMARK    4  A    between atoms: N_3  and  C_14
REMARK    5  A    between atoms: C_4  and  C_5
REMARK    6  A    between atoms: C_5  and  C_6
REMARK    7  A    between atoms: C_19  and  N_20
REMARK                            x       y       z     vdW  Elec       q    Type
REMARK                         _______ _______ _______ _____ _____    ______ ____
ROOT
ATOM      1  N   UNL     1       3.556   5.585  19.362  0.00  0.00    +0.000 NA
ENDROOT
BRANCH   1   2
ATOM      2  C   UNL     1       4.899   6.042  18.939  0.00  0.00    +0.000 C 
ATOM      3  C   UNL     1       6.000   5.097  19.471  0.00  0.00    +0.000 C 
ATOM      4  C   UNL     1       7.410   5.646  19.259  0.00  0.00    +0.000 C 
ATOM      5  C   UNL     1       7.679   6.155  17.847  0.00  0.00    +0.000 C 
ATOM      6  C   UNL     1       6.572   7.067  17.328  0.00  0.00    +0.000 C 
ATOM      7  C   UNL     1       5.139   6.487  17.445  0.00  0.00    +0.000 C 
BRANCH   7   8
ATOM      8  N   UNL     1       4.765   5.547  16.373  0.00  0.00    +0.000 NA
ATOM      9  C   UNL     1       4.973   4.115  16.539  0.00  0.00    +0.000 C 
ATOM     10  C   UNL     1       6.155   3.772  15.654  0.00  0.00    +0.000 C 
ATOM     11  C   UNL     1       5.946   4.677  14.462  0.00  0.00    +0.000 C 
ATOM     12  C   UNL     1       5.275   5.917  15.042  0.00  0.00    +0.000 C 
ENDBRANCH   7   8
ENDBRANCH   1   2
BRANCH   1  14
ATOM     13  C   UNL     1       1.895   3.814  18.528  0.00  0.00    +0.000 C 
ATOM     14  C   UNL     1       3.211   4.172  19.212  0.00  0.00    +0.000 C 
ENDBRANCH   1  14
BRANCH   1  15
ATOM     15  C   UNL     1       2.466   6.553  19.169  0.00  0.00    +0.000 C 
BRANCH  15  16
ATOM     16  C   UNL     1       1.845   6.983  20.521  0.00  0.00    +0.000 C 
BRANCH  16  17
ATOM     17  C   UNL     1       1.215   8.361  20.615  0.00  0.00    +0.000 A 
ATOM     18  C   UNL     1       1.220   9.186  19.474  0.00  0.00    +0.000 A 
ATOM     19  C   UNL     1       0.564  10.419  19.472  0.00  0.00    +0.000 A 
ATOM     20  C   UNL     1      -0.121  10.852  20.608  0.00  0.00    +0.000 A 
ATOM     21 CL   UNL     1      -0.930  12.375  20.530  0.00  0.00    +0.000 Cl
ATOM     22  C   UNL     1      -0.139  10.041  21.751  0.00  0.00    +0.000 A 
ATOM     23 CL   UNL     1      -0.980  10.505  23.189  0.00  0.00    +0.000 Cl
ATOM     24  C   UNL     1       0.518   8.807  21.749  0.00  0.00    +0.000 A 
ENDBRANCH  16  17
ENDBRANCH  15  16
ENDBRANCH   1  15
TORSDOF 6
ENDMDL
