MODEL 1
REMARK VINA RESULT:      -7.2      0.000      0.000
REMARK  Name = 
REMARK  7 active torsions:
REMARK  status: ('A' for Active; 'I' for Inactive)
REMARK    1  A    between atoms: N_15  and  C_16
REMARK    2  A    between atoms: C_16  and  C_17
REMARK    3  A    between atoms: C_17  and  C_18
REMARK    4  A    between atoms: C_18  and  C_19
REMARK    5  A    between atoms: C_19  and  O_20
REMARK    6  A    between atoms: C_19  and  C_21
REMARK    7  A    between atoms: C_21  and  N_22
REMARK                            x       y       z     vdW  Elec       q    Type
REMARK                         _______ _______ _______ _____ _____    ______ ____
ROOT
ATOM      1  O   UNL     1       4.401   2.915  18.893  0.00  0.00    +0.000 OA
ATOM      2  C   UNL     1       4.164   4.079  18.589  0.00  0.00    +0.000 C 
ATOM      3  C   UNL     1       4.762   4.680  17.370  0.00  0.00    +0.000 A 
ATOM      4  C   UNL     1       5.596   3.894  16.568  0.00  0.00    +0.000 A 
ATOM      5  C   UNL     1       6.137   4.472  15.437  0.00  0.00    +0.000 A 
ATOM      6  N   UNL     1       5.901   5.750  15.070  0.00  0.00    +0.000 NA
ATOM      7  C   UNL     1       5.087   6.491  15.864  0.00  0.00    +0.000 A 
ATOM      8  C   UNL     1       4.498   6.009  17.022  0.00  0.00    +0.000 A 
ATOM      9  C   UNL     1       3.630   6.890  17.850  0.00  0.00    +0.000 C 
ATOM     10  O   UNL     1       3.467   8.054  17.517  0.00  0.00    +0.000 OA
ATOM     11  C   UNL     1       3.051   6.265  19.021  0.00  0.00    +0.000 A 
ATOM     12  C   UNL     1       3.300   4.943  19.368  0.00  0.00    +0.000 A 
ATOM     13  C   UNL     1       2.574   4.652  20.543  0.00  0.00    +0.000 A 
ATOM     14  C   UNL     1       1.886   5.790  20.882  0.00  0.00    +0.000 A 
ATOM     15  N   UNL     1       2.193   6.781  19.973  0.00  0.00    +0.000 N 
ENDROOT
BRANCH  15  16
ATOM     16  C   UNL     1       1.603   8.111  20.042  0.00  0.00    +0.000 C 
BRANCH  16  17
ATOM     17  C   UNL     1       1.197   8.540  21.461  0.00  0.00    +0.000 C 
BRANCH  17  18
ATOM     18  C   UNL     1      -0.267   8.986  21.610  0.00  0.00    +0.000 C 
BRANCH  18  19
ATOM     19  C   UNL     1      -0.591   9.501  23.014  0.00  0.00    +0.000 C 
BRANCH  19  20
ATOM     20  O   UNL     1       0.634   9.599  23.756  0.00  0.00    +0.000 OA
ATOM     21  H   UNL     1       1.061   8.724  23.734  0.00  0.00    +0.000 HD
ENDBRANCH  19  20
BRANCH  19  22
ATOM     22  C   UNL     1      -1.293  10.873  23.045  0.00  0.00    +0.000 C 
BRANCH  22  23
ATOM     23  N   UNL     1      -0.436  12.064  22.970  0.00  0.00    +0.000 NA
ATOM     24  C   UNL     1      -0.164  12.603  21.644  0.00  0.00    +0.000 C 
ATOM     25  C   UNL     1      -1.194  13.242  22.529  0.00  0.00    +0.000 C 
ENDBRANCH  22  23
ENDBRANCH  19  22
ENDBRANCH  18  19
ENDBRANCH  17  18
ENDBRANCH  16  17
ENDBRANCH  15  16
TORSDOF 7
ENDMDL
MODEL 2
REMARK VINA RESULT:      -6.9      1.368      1.589
REMARK  Name = 
REMARK  7 active torsions:
REMARK  status: ('A' for Active; 'I' for Inactive)
REMARK    1  A    between atoms: N_15  and  C_16
REMARK    2  A    between atoms: C_16  and  C_17
REMARK    3  A    between atoms: C_17  and  C_18
REMARK    4  A    between atoms: C_18  and  C_19
REMARK    5  A    between atoms: C_19  and  O_20
REMARK    6  A    between atoms: C_19  and  C_21
REMARK    7  A    between atoms: C_21  and  N_22
REMARK                            x       y       z     vdW  Elec       q    Type
REMARK                         _______ _______ _______ _____ _____    ______ ____
ROOT
ATOM      1  O   UNL     1       3.723   2.368  17.806  0.00  0.00    +0.000 OA
ATOM      2  C   UNL     1       3.747   3.594  17.778  0.00  0.00    +0.000 C 
ATOM      3  C   UNL     1       4.556   4.313  16.761  0.00  0.00    +0.000 A 
ATOM      4  C   UNL     1       5.286   3.569  15.829  0.00  0.00    +0.000 A 
ATOM      5  C   UNL     1       6.027   4.257  14.889  0.00  0.00    +0.000 A 
ATOM      6  N   UNL     1       6.079   5.606  14.827  0.00  0.00    +0.000 NA
ATOM      7  C   UNL     1       5.360   6.305  15.742  0.00  0.00    +0.000 A 
ATOM      8  C   UNL     1       4.589   5.711  16.728  0.00  0.00    +0.000 A 
ATOM      9  C   UNL     1       3.842   6.547  17.707  0.00  0.00    +0.000 C 
ATOM     10  O   UNL     1       3.941   7.764  17.653  0.00  0.00    +0.000 OA
ATOM     11  C   UNL     1       3.051   5.813  18.672  0.00  0.00    +0.000 A 
ATOM     12  C   UNL     1       3.005   4.424  18.706  0.00  0.00    +0.000 A 
ATOM     13  C   UNL     1       2.137   4.038  19.749  0.00  0.00    +0.000 A 
ATOM     14  C   UNL     1       1.658   5.189  20.321  0.00  0.00    +0.000 A 
ATOM     15  N   UNL     1       2.232   6.271  19.685  0.00  0.00    +0.000 N 
ENDROOT
BRANCH  15  16
ATOM     16  C   UNL     1       1.911   7.645  20.045  0.00  0.00    +0.000 C 
BRANCH  16  17
ATOM     17  C   UNL     1       0.977   7.771  21.259  0.00  0.00    +0.000 C 
BRANCH  17  18
ATOM     18  C   UNL     1       1.237   8.993  22.154  0.00  0.00    +0.000 C 
BRANCH  18  19
ATOM     19  C   UNL     1       0.227  10.121  21.927  0.00  0.00    +0.000 C 
BRANCH  19  20
ATOM     20  O   UNL     1      -0.174  10.635  23.207  0.00  0.00    +0.000 OA
ATOM     21  H   UNL     1      -0.903  11.263  23.055  0.00  0.00    +0.000 HD
ENDBRANCH  19  20
BRANCH  19  22
ATOM     22  C   UNL     1       0.758  11.291  21.075  0.00  0.00    +0.000 C 
BRANCH  22  23
ATOM     23  N   UNL     1       0.409  11.291  19.649  0.00  0.00    +0.000 NA
ATOM     24  C   UNL     1      -0.584  10.320  19.209  0.00  0.00    +0.000 C 
ATOM     25  C   UNL     1      -0.969  11.752  19.434  0.00  0.00    +0.000 C 
ENDBRANCH  22  23
ENDBRANCH  19  22
ENDBRANCH  18  19
ENDBRANCH  17  18
ENDBRANCH  16  17
ENDBRANCH  15  16
TORSDOF 7
ENDMDL
MODEL 3
REMARK VINA RESULT:      -6.9      4.318      7.426
REMARK  Name = 
REMARK  7 active torsions:
REMARK  status: ('A' for Active; 'I' for Inactive)
REMARK    1  A    between atoms: N_15  and  C_16
REMARK    2  A    between atoms: C_16  and  C_17
REMARK    3  A    between atoms: C_17  and  C_18
REMARK    4  A    between atoms: C_18  and  C_19
REMARK    5  A    between atoms: C_19  and  O_20
REMARK    6  A    between atoms: C_19  and  C_21
REMARK    7  A    between atoms: C_21  and  N_22
REMARK                            x       y       z     vdW  Elec       q    Type
REMARK                         _______ _______ _______ _____ _____    ______ ____
ROOT
ATOM      1  O   UNL     1       2.469   6.981  20.021  0.00  0.00    +0.000 OA
ATOM      2  C   UNL     1       2.774   6.005  19.344  0.00  0.00    +0.000 C 
ATOM      3  C   UNL     1       2.396   4.635  19.776  0.00  0.00    +0.000 A 
ATOM      4  C   UNL     1       1.679   4.476  20.966  0.00  0.00    +0.000 A 
ATOM      5  C   UNL     1       1.334   3.194  21.347  0.00  0.00    +0.000 A 
ATOM      6  N   UNL     1       1.652   2.095  20.629  0.00  0.00    +0.000 NA
ATOM      7  C   UNL     1       2.345   2.277  19.477  0.00  0.00    +0.000 A 
ATOM      8  C   UNL     1       2.744   3.518  19.009  0.00  0.00    +0.000 A 
ATOM      9  C   UNL     1       3.519   3.635  17.743  0.00  0.00    +0.000 C 
ATOM     10  O   UNL     1       3.829   2.621  17.135  0.00  0.00    +0.000 OA
ATOM     11  C   UNL     1       3.855   4.986  17.344  0.00  0.00    +0.000 A 
ATOM     12  C   UNL     1       3.504   6.100  18.096  0.00  0.00    +0.000 A 
ATOM     13  C   UNL     1       3.967   7.250  17.421  0.00  0.00    +0.000 A 
ATOM     14  C   UNL     1       4.576   6.822  16.268  0.00  0.00    +0.000 A 
ATOM     15  N   UNL     1       4.532   5.443  16.231  0.00  0.00    +0.000 N 
ENDROOT
BRANCH  15  16
ATOM     16  C   UNL     1       5.076   4.677  15.118  0.00  0.00    +0.000 C 
BRANCH  16  17
ATOM     17  C   UNL     1       6.388   3.947  15.443  0.00  0.00    +0.000 C 
BRANCH  17  18
ATOM     18  C   UNL     1       7.473   4.821  16.093  0.00  0.00    +0.000 C 
BRANCH  18  19
ATOM     19  C   UNL     1       7.476   4.728  17.621  0.00  0.00    +0.000 C 
BRANCH  19  20
ATOM     20  O   UNL     1       8.621   3.964  18.027  0.00  0.00    +0.000 OA
ATOM     21  H   UNL     1       8.359   3.026  18.038  0.00  0.00    +0.000 HD
ENDBRANCH  19  20
BRANCH  19  22
ATOM     22  C   UNL     1       7.515   6.089  18.343  0.00  0.00    +0.000 C 
BRANCH  22  23
ATOM     23  N   UNL     1       8.085   7.222  17.603  0.00  0.00    +0.000 NA
ATOM     24  C   UNL     1       7.350   8.480  17.645  0.00  0.00    +0.000 C 
ATOM     25  C   UNL     1       8.556   8.275  18.513  0.00  0.00    +0.000 C 
ENDBRANCH  22  23
ENDBRANCH  19  22
ENDBRANCH  18  19
ENDBRANCH  17  18
ENDBRANCH  16  17
ENDBRANCH  15  16
TORSDOF 7
ENDMDL
MODEL 4
REMARK VINA RESULT:      -6.8      1.794      8.498
REMARK  Name = 
REMARK  7 active torsions:
REMARK  status: ('A' for Active; 'I' for Inactive)
REMARK    1  A    between atoms: N_15  and  C_16
REMARK    2  A    between atoms: C_16  and  C_17
REMARK    3  A    between atoms: C_17  and  C_18
REMARK    4  A    between atoms: C_18  and  C_19
REMARK    5  A    between atoms: C_19  and  O_20
REMARK    6  A    between atoms: C_19  and  C_21
REMARK    7  A    between atoms: C_21  and  N_22
REMARK                            x       y       z     vdW  Elec       q    Type
REMARK                         _______ _______ _______ _____ _____    ______ ____
ROOT
ATOM      1  O   UNL     1       0.406  11.804  18.661  0.00  0.00    +0.000 OA
ATOM      2  C   UNL     1       0.611  10.814  19.356  0.00  0.00    +0.000 C 
ATOM      3  C   UNL     1       0.073  10.735  20.738  0.00  0.00    +0.000 A 
ATOM      4  C   UNL     1      -0.679  11.805  21.233  0.00  0.00    +0.000 A 
ATOM      5  C   UNL     1      -1.173  11.709  22.518  0.00  0.00    +0.000 A 
ATOM      6  N   UNL     1      -0.968  10.636  23.314  0.00  0.00    +0.000 NA
ATOM      7  C   UNL     1      -0.237   9.610  22.809  0.00  0.00    +0.000 A 
ATOM      8  C   UNL     1       0.308   9.610  21.536  0.00  0.00    +0.000 A 
ATOM      9  C   UNL     1       1.113   8.452  21.060  0.00  0.00    +0.000 C 
ATOM     10  O   UNL     1       1.318   7.514  21.816  0.00  0.00    +0.000 OA
ATOM     11  C   UNL     1       1.607   8.557  19.702  0.00  0.00    +0.000 A 
ATOM     12  C   UNL     1       1.370   9.667  18.901  0.00  0.00    +0.000 A 
ATOM     13  C   UNL     1       1.972   9.439  17.644  0.00  0.00    +0.000 A 
ATOM     14  C   UNL     1       2.550   8.195  17.696  0.00  0.00    +0.000 A 
ATOM     15  N   UNL     1       2.351   7.666  18.955  0.00  0.00    +0.000 N 
ENDROOT
BRANCH  15  16
ATOM     16  C   UNL     1       2.826   6.340  19.325  0.00  0.00    +0.000 C 
BRANCH  16  17
ATOM     17  C   UNL     1       2.309   5.215  18.415  0.00  0.00    +0.000 C 
BRANCH  17  18
ATOM     18  C   UNL     1       3.402   4.352  17.764  0.00  0.00    +0.000 C 
BRANCH  18  19
ATOM     19  C   UNL     1       4.748   4.452  18.487  0.00  0.00    +0.000 C 
BRANCH  19  20
ATOM     20  O   UNL     1       5.028   3.185  19.101  0.00  0.00    +0.000 OA
ATOM     21  H   UNL     1       4.177   2.731  19.240  0.00  0.00    +0.000 HD
ENDBRANCH  19  20
BRANCH  19  22
ATOM     22  C   UNL     1       5.934   4.828  17.579  0.00  0.00    +0.000 C 
BRANCH  22  23
ATOM     23  N   UNL     1       5.666   4.936  16.139  0.00  0.00    +0.000 NA
ATOM     24  C   UNL     1       6.820   5.051  15.256  0.00  0.00    +0.000 C 
ATOM     25  C   UNL     1       6.114   3.737  15.419  0.00  0.00    +0.000 C 
ENDBRANCH  22  23
ENDBRANCH  19  22
ENDBRANCH  18  19
ENDBRANCH  17  18
ENDBRANCH  16  17
ENDBRANCH  15  16
TORSDOF 7
ENDMDL
MODEL 5
REMARK VINA RESULT:      -6.7      0.907      1.017
REMARK  Name = 
REMARK  7 active torsions:
REMARK  status: ('A' for Active; 'I' for Inactive)
REMARK    1  A    between atoms: N_15  and  C_16
REMARK    2  A    between atoms: C_16  and  C_17
REMARK    3  A    between atoms: C_17  and  C_18
REMARK    4  A    between atoms: C_18  and  C_19
REMARK    5  A    between atoms: C_19  and  O_20
REMARK    6  A    between atoms: C_19  and  C_21
REMARK    7  A    between atoms: C_21  and  N_22
REMARK                            x       y       z     vdW  Elec       q    Type
REMARK                         _______ _______ _______ _____ _____    ______ ____
ROOT
ATOM      1  O   UNL     1       3.890   2.276  17.752  0.00  0.00    +0.000 OA
ATOM      2  C   UNL     1       3.885   3.502  17.713  0.00  0.00    +0.000 C 
ATOM      3  C   UNL     1       4.669   4.229  16.681  0.00  0.00    +0.000 A 
ATOM      4  C   UNL     1       5.406   3.493  15.749  0.00  0.00    +0.000 A 
ATOM      5  C   UNL     1       6.123   4.188  14.796  0.00  0.00    +0.000 A 
ATOM      6  N   UNL     1       6.144   5.537  14.721  0.00  0.00    +0.000 NA
ATOM      7  C   UNL     1       5.418   6.228  15.636  0.00  0.00    +0.000 A 
ATOM      8  C   UNL     1       4.671   5.627  16.635  0.00  0.00    +0.000 A 
ATOM      9  C   UNL     1       3.914   6.455  17.614  0.00  0.00    +0.000 C 
ATOM     10  O   UNL     1       3.985   7.673  17.548  0.00  0.00    +0.000 OA
ATOM     11  C   UNL     1       3.149   5.712  18.593  0.00  0.00    +0.000 A 
ATOM     12  C   UNL     1       3.134   4.324  18.639  0.00  0.00    +0.000 A 
ATOM     13  C   UNL     1       2.284   3.927  19.694  0.00  0.00    +0.000 A 
ATOM     14  C   UNL     1       1.785   5.073  20.261  0.00  0.00    +0.000 A 
ATOM     15  N   UNL     1       2.329   6.161  19.610  0.00  0.00    +0.000 N 
ENDROOT
BRANCH  15  16
ATOM     16  C   UNL     1       1.980   7.531  19.960  0.00  0.00    +0.000 C 
BRANCH  16  17
ATOM     17  C   UNL     1       1.263   7.667  21.312  0.00  0.00    +0.000 C 
BRANCH  17  18
ATOM     18  C   UNL     1       0.031   8.587  21.304  0.00  0.00    +0.000 C 
BRANCH  18  19
ATOM     19  C   UNL     1       0.166   9.769  22.267  0.00  0.00    +0.000 C 
BRANCH  19  20
ATOM     20  O   UNL     1       1.362   9.589  23.042  0.00  0.00    +0.000 OA
ATOM     21  H   UNL     1       1.093   9.343  23.944  0.00  0.00    +0.000 HD
ENDBRANCH  19  20
BRANCH  19  22
ATOM     22  C   UNL     1       0.230  11.148  21.581  0.00  0.00    +0.000 C 
BRANCH  22  23
ATOM     23  N   UNL     1      -0.423  12.268  22.270  0.00  0.00    +0.000 NA
ATOM     24  C   UNL     1      -1.740  12.665  21.789  0.00  0.00    +0.000 C 
ATOM     25  C   UNL     1      -1.604  11.821  23.022  0.00  0.00    +0.000 C 
ENDBRANCH  22  23
ENDBRANCH  19  22
ENDBRANCH  18  19
ENDBRANCH  17  18
ENDBRANCH  16  17
ENDBRANCH  15  16
TORSDOF 7
ENDMDL
MODEL 6
REMARK VINA RESULT:      -6.7      2.426      8.047
REMARK  Name = 
REMARK  7 active torsions:
REMARK  status: ('A' for Active; 'I' for Inactive)
REMARK    1  A    between atoms: N_15  and  C_16
REMARK    2  A    between atoms: C_16  and  C_17
REMARK    3  A    between atoms: C_17  and  C_18
REMARK    4  A    between atoms: C_18  and  C_19
REMARK    5  A    between atoms: C_19  and  O_20
REMARK    6  A    between atoms: C_19  and  C_21
REMARK    7  A    between atoms: C_21  and  N_22
REMARK                            x       y       z     vdW  Elec       q    Type
REMARK                         _______ _______ _______ _____ _____    ______ ____
ROOT
ATOM      1  O   UNL     1      -0.483  11.729  18.507  0.00  0.00    +0.000 OA
ATOM      2  C   UNL     1      -0.074  10.870  19.282  0.00  0.00    +0.000 C 
ATOM      3  C   UNL     1      -0.470  10.893  20.713  0.00  0.00    +0.000 A 
ATOM      4  C   UNL     1      -1.323  11.905  21.163  0.00  0.00    +0.000 A 
ATOM      5  C   UNL     1      -1.683  11.904  22.496  0.00  0.00    +0.000 A 
ATOM      6  N   UNL     1      -1.253  10.977  23.380  0.00  0.00    +0.000 NA
ATOM      7  C   UNL     1      -0.428  10.004  22.918  0.00  0.00    +0.000 A 
ATOM      8  C   UNL     1      -0.004   9.918  21.602  0.00  0.00    +0.000 A 
ATOM      9  C   UNL     1       0.917   8.829  21.175  0.00  0.00    +0.000 C 
ATOM     10  O   UNL     1       1.323   8.029  22.005  0.00  0.00    +0.000 OA
ATOM     11  C   UNL     1       1.268   8.829  19.770  0.00  0.00    +0.000 A 
ATOM     12  C   UNL     1       0.801   9.788  18.879  0.00  0.00    +0.000 A 
ATOM     13  C   UNL     1       1.316   9.488  17.600  0.00  0.00    +0.000 A 
ATOM     14  C   UNL     1       2.071   8.350  17.728  0.00  0.00    +0.000 A 
ATOM     15  N   UNL     1       2.065   7.960  19.052  0.00  0.00    +0.000 N 
ENDROOT
BRANCH  15  16
ATOM     16  C   UNL     1       2.759   6.767  19.515  0.00  0.00    +0.000 C 
BRANCH  16  17
ATOM     17  C   UNL     1       3.662   6.118  18.454  0.00  0.00    +0.000 C 
BRANCH  17  18
ATOM     18  C   UNL     1       3.125   4.806  17.859  0.00  0.00    +0.000 C 
BRANCH  18  19
ATOM     19  C   UNL     1       1.696   4.491  18.307  0.00  0.00    +0.000 C 
BRANCH  19  20
ATOM     20  O   UNL     1       0.892   4.269  17.138  0.00  0.00    +0.000 OA
ATOM     21  H   UNL     1       1.498   4.128  16.388  0.00  0.00    +0.000 HD
ENDBRANCH  19  20
BRANCH  19  22
ATOM     22  C   UNL     1       1.572   3.260  19.226  0.00  0.00    +0.000 C 
BRANCH  22  23
ATOM     23  N   UNL     1       2.515   3.165  20.348  0.00  0.00    +0.000 NA
ATOM     24  C   UNL     1       2.208   3.945  21.540  0.00  0.00    +0.000 C 
ATOM     25  C   UNL     1       1.913   2.475  21.497  0.00  0.00    +0.000 C 
ENDBRANCH  22  23
ENDBRANCH  19  22
ENDBRANCH  18  19
ENDBRANCH  17  18
ENDBRANCH  16  17
ENDBRANCH  15  16
TORSDOF 7
ENDMDL
MODEL 7
REMARK VINA RESULT:      -6.7      1.082      1.156
REMARK  Name = 
REMARK  7 active torsions:
REMARK  status: ('A' for Active; 'I' for Inactive)
REMARK    1  A    between atoms: N_15  and  C_16
REMARK    2  A    between atoms: C_16  and  C_17
REMARK    3  A    between atoms: C_17  and  C_18
REMARK    4  A    between atoms: C_18  and  C_19
REMARK    5  A    between atoms: C_19  and  O_20
REMARK    6  A    between atoms: C_19  and  C_21
REMARK    7  A    between atoms: C_21  and  N_22
REMARK                            x       y       z     vdW  Elec       q    Type
REMARK                         _______ _______ _______ _____ _____    ______ ____
ROOT
ATOM      1  O   UNL     1       3.868   2.602  18.269  0.00  0.00    +0.000 OA
ATOM      2  C   UNL     1       3.810   3.822  18.154  0.00  0.00    +0.000 C 
ATOM      3  C   UNL     1       4.537   4.515  17.060  0.00  0.00    +0.000 A 
ATOM      4  C   UNL     1       5.283   3.753  16.156  0.00  0.00    +0.000 A 
ATOM      5  C   UNL     1       5.947   4.417  15.143  0.00  0.00    +0.000 A 
ATOM      6  N   UNL     1       5.909   5.758  14.985  0.00  0.00    +0.000 NA
ATOM      7  C   UNL     1       5.175   6.474  15.874  0.00  0.00    +0.000 A 
ATOM      8  C   UNL     1       4.477   5.907  16.927  0.00  0.00    +0.000 A 
ATOM      9  C   UNL     1       3.708   6.762  17.872  0.00  0.00    +0.000 C 
ATOM     10  O   UNL     1       3.725   7.976  17.729  0.00  0.00    +0.000 OA
ATOM     11  C   UNL     1       2.999   6.051  18.915  0.00  0.00    +0.000 A 
ATOM     12  C   UNL     1       3.045   4.669  19.047  0.00  0.00    +0.000 A 
ATOM     13  C   UNL     1       2.238   4.304  20.146  0.00  0.00    +0.000 A 
ATOM     14  C   UNL     1       1.704   5.461  20.653  0.00  0.00    +0.000 A 
ATOM     15  N   UNL     1       2.184   6.529  19.922  0.00  0.00    +0.000 N 
ENDROOT
BRANCH  15  16
ATOM     16  C   UNL     1       1.785   7.902  20.197  0.00  0.00    +0.000 C 
BRANCH  16  17
ATOM     17  C   UNL     1       0.671   8.031  21.247  0.00  0.00    +0.000 C 
BRANCH  17  18
ATOM     18  C   UNL     1       0.876   9.154  22.277  0.00  0.00    +0.000 C 
BRANCH  18  19
ATOM     19  C   UNL     1       0.100  10.427  21.931  0.00  0.00    +0.000 C 
BRANCH  19  20
ATOM     20  O   UNL     1      -0.502  10.255  20.638  0.00  0.00    +0.000 OA
ATOM     21  H   UNL     1      -0.983  11.075  20.426  0.00  0.00    +0.000 HD
ENDBRANCH  19  20
BRANCH  19  22
ATOM     22  C   UNL     1      -1.006  10.795  22.939  0.00  0.00    +0.000 C 
BRANCH  22  23
ATOM     23  N   UNL     1      -1.530  12.166  22.887  0.00  0.00    +0.000 NA
ATOM     24  C   UNL     1      -2.723  12.390  22.081  0.00  0.00    +0.000 C 
ATOM     25  C   UNL     1      -2.825  12.272  23.573  0.00  0.00    +0.000 C 
ENDBRANCH  22  23
ENDBRANCH  19  22
ENDBRANCH  18  19
ENDBRANCH  17  18
ENDBRANCH  16  17
ENDBRANCH  15  16
TORSDOF 7
ENDMDL
MODEL 8
REMARK VINA RESULT:      -6.6      1.371      1.594
REMARK  Name = 
REMARK  7 active torsions:
REMARK  status: ('A' for Active; 'I' for Inactive)
REMARK    1  A    between atoms: N_15  and  C_16
REMARK    2  A    between atoms: C_16  and  C_17
REMARK    3  A    between atoms: C_17  and  C_18
REMARK    4  A    between atoms: C_18  and  C_19
REMARK    5  A    between atoms: C_19  and  O_20
REMARK    6  A    between atoms: C_19  and  C_21
REMARK    7  A    between atoms: C_21  and  N_22
REMARK                            x       y       z     vdW  Elec       q    Type
REMARK                         _______ _______ _______ _____ _____    ______ ____
ROOT
ATOM      1  O   UNL     1       3.981   2.692  18.527  0.00  0.00    +0.000 OA
ATOM      2  C   UNL     1       3.882   3.898  18.327  0.00  0.00    +0.000 C 
ATOM      3  C   UNL     1       4.586   4.537  17.185  0.00  0.00    +0.000 A 
ATOM      4  C   UNL     1       5.357   3.738  16.335  0.00  0.00    +0.000 A 
ATOM      5  C   UNL     1       5.999   4.351  15.277  0.00  0.00    +0.000 A 
ATOM      6  N   UNL     1       5.915   5.676  15.025  0.00  0.00    +0.000 NA
ATOM      7  C   UNL     1       5.158   6.428  15.864  0.00  0.00    +0.000 A 
ATOM      8  C   UNL     1       4.480   5.913  16.955  0.00  0.00    +0.000 A 
ATOM      9  C   UNL     1       3.682   6.806  17.840  0.00  0.00    +0.000 C 
ATOM     10  O   UNL     1       3.659   8.007  17.613  0.00  0.00    +0.000 OA
ATOM     11  C   UNL     1       2.997   6.147  18.932  0.00  0.00    +0.000 A 
ATOM     12  C   UNL     1       3.090   4.780  19.160  0.00  0.00    +0.000 A 
ATOM     13  C   UNL     1       2.295   4.466  20.284  0.00  0.00    +0.000 A 
ATOM     14  C   UNL     1       1.722   5.638  20.710  0.00  0.00    +0.000 A 
ATOM     15  N   UNL     1       2.167   6.667  19.905  0.00  0.00    +0.000 N 
ENDROOT
BRANCH  15  16
ATOM     16  C   UNL     1       1.722   8.042  20.083  0.00  0.00    +0.000 C 
BRANCH  16  17
ATOM     17  C   UNL     1       0.929   8.279  21.378  0.00  0.00    +0.000 C 
BRANCH  17  18
ATOM     18  C   UNL     1      -0.412   9.008  21.194  0.00  0.00    +0.000 C 
BRANCH  18  19
ATOM     19  C   UNL     1      -0.281  10.530  21.296  0.00  0.00    +0.000 C 
BRANCH  19  20
ATOM     20  O   UNL     1       0.761  10.833  22.236  0.00  0.00    +0.000 OA
ATOM     21  H   UNL     1       1.559  11.061  21.726  0.00  0.00    +0.000 HD
ENDBRANCH  19  20
BRANCH  19  22
ATOM     22  C   UNL     1       0.043  11.234  19.964  0.00  0.00    +0.000 C 
BRANCH  22  23
ATOM     23  N   UNL     1       1.277  12.027  19.909  0.00  0.00    +0.000 NA
ATOM     24  C   UNL     1       1.768  12.401  18.589  0.00  0.00    +0.000 C 
ATOM     25  C   UNL     1       1.017  13.391  19.430  0.00  0.00    +0.000 C 
ENDBRANCH  22  23
ENDBRANCH  19  22
ENDBRANCH  18  19
ENDBRANCH  17  18
ENDBRANCH  16  17
ENDBRANCH  15  16
TORSDOF 7
ENDMDL
MODEL 9
REMARK VINA RESULT:      -6.6      4.203      7.134
REMARK  Name = 
REMARK  7 active torsions:
REMARK  status: ('A' for Active; 'I' for Inactive)
REMARK    1  A    between atoms: N_15  and  C_16
REMARK    2  A    between atoms: C_16  and  C_17
REMARK    3  A    between atoms: C_17  and  C_18
REMARK    4  A    between atoms: C_18  and  C_19
REMARK    5  A    between atoms: C_19  and  O_20
REMARK    6  A    between atoms: C_19  and  C_21
REMARK    7  A    between atoms: C_21  and  N_22
REMARK                            x       y       z     vdW  Elec       q    Type
REMARK                         _______ _______ _______ _____ _____    ______ ____
ROOT
ATOM      1  O   UNL     1       1.868   6.950  19.997  0.00  0.00    +0.000 OA
ATOM      2  C   UNL     1       2.423   6.046  19.381  0.00  0.00    +0.000 C 
ATOM      3  C   UNL     1       2.190   4.626  19.749  0.00  0.00    +0.000 A 
ATOM      4  C   UNL     1       1.321   4.334  20.805  0.00  0.00    +0.000 A 
ATOM      5  C   UNL     1       1.115   3.008  21.127  0.00  0.00    +0.000 A 
ATOM      6  N   UNL     1       1.709   1.985  20.473  0.00  0.00    +0.000 NA
ATOM      7  C   UNL     1       2.546   2.294  19.451  0.00  0.00    +0.000 A 
ATOM      8  C   UNL     1       2.824   3.591  19.052  0.00  0.00    +0.000 A 
ATOM      9  C   UNL     1       3.768   3.850  17.931  0.00  0.00    +0.000 C 
ATOM     10  O   UNL     1       4.322   2.908  17.385  0.00  0.00    +0.000 OA
ATOM     11  C   UNL     1       3.957   5.245  17.590  0.00  0.00    +0.000 A 
ATOM     12  C   UNL     1       3.324   6.277  18.270  0.00  0.00    +0.000 A 
ATOM     13  C   UNL     1       3.712   7.498  17.678  0.00  0.00    +0.000 A 
ATOM     14  C   UNL     1       4.558   7.191  16.643  0.00  0.00    +0.000 A 
ATOM     15  N   UNL     1       4.730   5.822  16.602  0.00  0.00    +0.000 N 
ENDROOT
BRANCH  15  16
ATOM     16  C   UNL     1       5.557   5.172  15.595  0.00  0.00    +0.000 C 
BRANCH  16  17
ATOM     17  C   UNL     1       7.055   5.146  15.939  0.00  0.00    +0.000 C 
BRANCH  17  18
ATOM     18  C   UNL     1       7.384   4.702  17.373  0.00  0.00    +0.000 C 
BRANCH  18  19
ATOM     19  C   UNL     1       7.488   5.876  18.350  0.00  0.00    +0.000 C 
BRANCH  19  20
ATOM     20  O   UNL     1       8.330   5.483  19.445  0.00  0.00    +0.000 OA
ATOM     21  H   UNL     1       7.751   5.165  20.161  0.00  0.00    +0.000 HD
ENDBRANCH  19  20
BRANCH  19  22
ATOM     22  C   UNL     1       8.057   7.170  17.736  0.00  0.00    +0.000 C 
BRANCH  22  23
ATOM     23  N   UNL     1       7.729   8.432  18.411  0.00  0.00    +0.000 NA
ATOM     24  C   UNL     1       8.844   9.273  18.824  0.00  0.00    +0.000 C 
ATOM     25  C   UNL     1       8.072   9.591  17.577  0.00  0.00    +0.000 C 
ENDBRANCH  22  23
ENDBRANCH  19  22
ENDBRANCH  18  19
ENDBRANCH  17  18
ENDBRANCH  16  17
ENDBRANCH  15  16
TORSDOF 7
ENDMDL
