MODEL 1
REMARK VINA RESULT:      -7.6      0.000      0.000
REMARK  Name = 
REMARK  9 active torsions:
REMARK  status: ('A' for Active; 'I' for Inactive)
REMARK    1  A    between atoms: C_1  and  C_2
REMARK    2  A    between atoms: C_2  and  O_3
REMARK    3  A    between atoms: O_3  and  C_4
REMARK    4  A    between atoms: C_4  and  C_6
REMARK    5  A    between atoms: C_7  and  N_8
REMARK    6  A    between atoms: C_9  and  C_11
REMARK    7  A    between atoms: C_11  and  C_12
REMARK    8  A    between atoms: C_20  and  C_21
REMARK    9  A    between atoms: C_27  and  C_28
REMARK                            x       y       z     vdW  Elec       q    Type
REMARK                         _______ _______ _______ _____ _____    ______ ____
ROOT
ATOM      1  C   UNL     1       6.054   5.463  16.774  0.00  0.00    +0.000 A 
ATOM      2  C   UNL     1       5.872   6.781  17.180  0.00  0.00    +0.000 A 
ATOM      3  S   UNL     1       4.402   6.975  18.010  0.00  0.00    +0.000 S 
ATOM      4  C   UNL     1       4.006   5.315  17.968  0.00  0.00    +0.000 A 
ATOM      5  C   UNL     1       4.919   4.620  17.183  0.00  0.00    +0.000 A 
ATOM      6  C   UNL     1       4.818   3.163  16.824  0.00  0.00    +0.000 C 
ENDROOT
BRANCH   4   7
ATOM      7  C   UNL     1       2.845   4.835  18.756  0.00  0.00    +0.000 A 
ATOM      8  C   UNL     1       2.633   5.227  20.088  0.00  0.00    +0.000 A 
ATOM      9  C   UNL     1       1.577   4.697  20.839  0.00  0.00    +0.000 A 
ATOM     10  C   UNL     1       0.698   3.785  20.262  0.00  0.00    +0.000 A 
ATOM     11  C   UNL     1       0.876   3.398  18.938  0.00  0.00    +0.000 A 
ATOM     12  C   UNL     1       1.948   3.908  18.199  0.00  0.00    +0.000 A 
ENDBRANCH   4   7
BRANCH   2  13
ATOM     13  N   UNL     1       6.690   7.897  16.968  0.00  0.00    +0.000 N 
ATOM     14  C   UNL     1       7.816   8.210  17.723  0.00  0.00    +0.000 C 
ATOM     15  O   UNL     1       8.337   7.511  18.587  0.00  0.00    +0.000 OA
ATOM     16  H   UNL     1       6.489   8.443  16.132  0.00  0.00    +0.000 HD
BRANCH  14  17
ATOM     17  C   UNL     1       8.464   9.539  17.394  0.00  0.00    +0.000 C 
BRANCH  17  18
ATOM     18  C   UNL     1       8.365  10.582  18.500  0.00  0.00    +0.000 C 
ATOM     19  S   UNL     1       9.669  10.558  19.784  0.00  0.00    +0.000 S 
ATOM     20  C   UNL     1       9.959  12.245  19.612  0.00  0.00    +0.000 C 
ATOM     21  N   UNL     1      10.799  12.914  20.302  0.00  0.00    +0.000 NA
ATOM     22  N   UNL     1       9.202  12.807  18.657  0.00  0.00    +0.000 N 
ATOM     23  C   UNL     1       8.382  11.990  17.944  0.00  0.00    +0.000 C 
ATOM     24  O   UNL     1       7.737  12.351  16.964  0.00  0.00    +0.000 OA
ATOM     25  H   UNL     1      11.257  12.262  20.953  0.00  0.00    +0.000 HD
ATOM     26  H   UNL     1       9.326  13.781  18.426  0.00  0.00    +0.000 HD
ENDBRANCH  17  18
ENDBRANCH  14  17
ENDBRANCH   2  13
BRANCH   1  27
ATOM     27  C   UNL     1       7.248   4.920  16.111  0.00  0.00    +0.000 C 
ATOM     28  O   UNL     1       8.084   4.254  16.709  0.00  0.00    +0.000 OA
BRANCH  27  29
ATOM     29  O   UNL     1       7.363   5.254  14.792  0.00  0.00    +0.000 OA
BRANCH  29  31
ATOM     30  C   UNL     1       5.557   4.188  13.496  0.00  0.00    +0.000 C 
ATOM     31  C   UNL     1       7.029   4.190  13.883  0.00  0.00    +0.000 C 
ENDBRANCH  29  31
ENDBRANCH  27  29
ENDBRANCH   1  27
TORSDOF 7
ENDMDL
MODEL 2
REMARK VINA RESULT:      -7.6      4.999      7.437
REMARK  Name = 
REMARK  9 active torsions:
REMARK  status: ('A' for Active; 'I' for Inactive)
REMARK    1  A    between atoms: C_1  and  C_2
REMARK    2  A    between atoms: C_2  and  O_3
REMARK    3  A    between atoms: O_3  and  C_4
REMARK    4  A    between atoms: C_4  and  C_6
REMARK    5  A    between atoms: C_7  and  N_8
REMARK    6  A    between atoms: C_9  and  C_11
REMARK    7  A    between atoms: C_11  and  C_12
REMARK    8  A    between atoms: C_20  and  C_21
REMARK    9  A    between atoms: C_27  and  C_28
REMARK                            x       y       z     vdW  Elec       q    Type
REMARK                         _______ _______ _______ _____ _____    ______ ____
ROOT
ATOM      1  C   UNL     1       2.650   5.036  18.508  0.00  0.00    +0.000 A 
ATOM      2  C   UNL     1       2.860   6.409  18.453  0.00  0.00    +0.000 A 
ATOM      3  S   UNL     1       4.182   6.793  17.457  0.00  0.00    +0.000 S 
ATOM      4  C   UNL     1       4.453   5.180  16.969  0.00  0.00    +0.000 A 
ATOM      5  C   UNL     1       3.634   4.315  17.684  0.00  0.00    +0.000 A 
ATOM      6  C   UNL     1       3.684   2.813  17.604  0.00  0.00    +0.000 C 
ENDROOT
BRANCH   4   7
ATOM      7  C   UNL     1       5.427   4.915  15.883  0.00  0.00    +0.000 A 
ATOM      8  C   UNL     1       6.758   5.361  15.947  0.00  0.00    +0.000 A 
ATOM      9  C   UNL     1       7.636   5.171  14.874  0.00  0.00    +0.000 A 
ATOM     10  C   UNL     1       7.208   4.508  13.727  0.00  0.00    +0.000 A 
ATOM     11  C   UNL     1       5.901   4.039  13.650  0.00  0.00    +0.000 A 
ATOM     12  C   UNL     1       5.017   4.255  14.712  0.00  0.00    +0.000 A 
ENDBRANCH   4   7
BRANCH   2  13
ATOM     13  N   UNL     1       2.174   7.439  19.109  0.00  0.00    +0.000 N 
ATOM     14  C   UNL     1       1.801   8.643  18.520  0.00  0.00    +0.000 C 
ATOM     15  O   UNL     1       1.890   8.936  17.331  0.00  0.00    +0.000 OA
ATOM     16  H   UNL     1       1.844   7.226  20.048  0.00  0.00    +0.000 HD
BRANCH  14  17
ATOM     17  C   UNL     1       1.189   9.659  19.462  0.00  0.00    +0.000 C 
BRANCH  17  18
ATOM     18  C   UNL     1       0.448  10.796  18.770  0.00  0.00    +0.000 C 
ATOM     19  S   UNL     1      -1.289  10.484  18.287  0.00  0.00    +0.000 S 
ATOM     20  C   UNL     1      -1.825  11.941  19.028  0.00  0.00    +0.000 C 
ATOM     21  N   UNL     1      -3.030  12.362  19.020  0.00  0.00    +0.000 NA
ATOM     22  N   UNL     1      -0.833  12.610  19.635  0.00  0.00    +0.000 N 
ATOM     23  C   UNL     1       0.402  12.041  19.631  0.00  0.00    +0.000 C 
ATOM     24  O   UNL     1       1.362  12.480  20.256  0.00  0.00    +0.000 OA
ATOM     25  H   UNL     1      -3.597  11.675  18.506  0.00  0.00    +0.000 HD
ATOM     26  H   UNL     1      -1.037  13.450  20.154  0.00  0.00    +0.000 HD
ENDBRANCH  17  18
ENDBRANCH  14  17
ENDBRANCH   2  13
BRANCH   1  27
ATOM     27  C   UNL     1       1.545   4.357  19.200  0.00  0.00    +0.000 C 
ATOM     28  O   UNL     1       0.805   3.563  18.633  0.00  0.00    +0.000 OA
BRANCH  27  29
ATOM     29  O   UNL     1       1.393   4.716  20.508  0.00  0.00    +0.000 OA
BRANCH  29  31
ATOM     30  C   UNL     1       1.704   2.595  21.726  0.00  0.00    +0.000 C 
ATOM     31  C   UNL     1       2.234   3.988  21.422  0.00  0.00    +0.000 C 
ENDBRANCH  29  31
ENDBRANCH  27  29
ENDBRANCH   1  27
TORSDOF 7
ENDMDL
MODEL 3
REMARK VINA RESULT:      -7.5      4.840      7.273
REMARK  Name = 
REMARK  9 active torsions:
REMARK  status: ('A' for Active; 'I' for Inactive)
REMARK    1  A    between atoms: C_1  and  C_2
REMARK    2  A    between atoms: C_2  and  O_3
REMARK    3  A    between atoms: O_3  and  C_4
REMARK    4  A    between atoms: C_4  and  C_6
REMARK    5  A    between atoms: C_7  and  N_8
REMARK    6  A    between atoms: C_9  and  C_11
REMARK    7  A    between atoms: C_11  and  C_12
REMARK    8  A    between atoms: C_20  and  C_21
REMARK    9  A    between atoms: C_27  and  C_28
REMARK                            x       y       z     vdW  Elec       q    Type
REMARK                         _______ _______ _______ _____ _____    ______ ____
ROOT
ATOM      1  C   UNL     1       2.914   5.125  18.341  0.00  0.00    +0.000 A 
ATOM      2  C   UNL     1       3.143   6.492  18.221  0.00  0.00    +0.000 A 
ATOM      3  S   UNL     1       4.403   6.813  17.127  0.00  0.00    +0.000 S 
ATOM      4  C   UNL     1       4.614   5.178  16.684  0.00  0.00    +0.000 A 
ATOM      5  C   UNL     1       3.830   4.356  17.483  0.00  0.00    +0.000 A 
ATOM      6  C   UNL     1       3.849   2.852  17.457  0.00  0.00    +0.000 C 
ENDROOT
BRANCH   4   7
ATOM      7  C   UNL     1       5.510   4.855  15.548  0.00  0.00    +0.000 A 
ATOM      8  C   UNL     1       6.851   5.275  15.509  0.00  0.00    +0.000 A 
ATOM      9  C   UNL     1       7.653   5.029  14.390  0.00  0.00    +0.000 A 
ATOM     10  C   UNL     1       7.139   4.334  13.298  0.00  0.00    +0.000 A 
ATOM     11  C   UNL     1       5.821   3.890  13.323  0.00  0.00    +0.000 A 
ATOM     12  C   UNL     1       5.013   4.162  14.431  0.00  0.00    +0.000 A 
ENDBRANCH   4   7
BRANCH   2  13
ATOM     13  N   UNL     1       2.519   7.558  18.880  0.00  0.00    +0.000 N 
ATOM     14  C   UNL     1       2.055   8.713  18.257  0.00  0.00    +0.000 C 
ATOM     15  O   UNL     1       1.997   8.920  17.049  0.00  0.00    +0.000 OA
ATOM     16  H   UNL     1       2.307   7.409  19.865  0.00  0.00    +0.000 HD
BRANCH  14  17
ATOM     17  C   UNL     1       1.538   9.787  19.192  0.00  0.00    +0.000 C 
BRANCH  17  18
ATOM     18  C   UNL     1       0.524   9.296  20.218  0.00  0.00    +0.000 C 
ATOM     19  S   UNL     1       1.182   8.676  21.808  0.00  0.00    +0.000 S 
ATOM     20  C   UNL     1       0.103   9.663  22.714  0.00  0.00    +0.000 C 
ATOM     21  N   UNL     1       0.026   9.678  23.988  0.00  0.00    +0.000 NA
ATOM     22  N   UNL     1      -0.668  10.438  21.936  0.00  0.00    +0.000 N 
ATOM     23  C   UNL     1      -0.461  10.383  20.593  0.00  0.00    +0.000 C 
ATOM     24  O   UNL     1      -1.004  11.129  19.784  0.00  0.00    +0.000 OA
ATOM     25  H   UNL     1       0.720   9.011  24.350  0.00  0.00    +0.000 HD
ATOM     26  H   UNL     1      -1.299  11.102  22.357  0.00  0.00    +0.000 HD
ENDBRANCH  17  18
ENDBRANCH  14  17
ENDBRANCH   2  13
BRANCH   1  27
ATOM     27  C   UNL     1       1.846   4.494  19.129  0.00  0.00    +0.000 C 
ATOM     28  O   UNL     1       0.972   3.805  18.616  0.00  0.00    +0.000 OA
BRANCH  27  29
ATOM     29  O   UNL     1       1.889   4.773  20.465  0.00  0.00    +0.000 OA
BRANCH  29  31
ATOM     30  C   UNL     1       2.765   2.649  21.360  0.00  0.00    +0.000 C 
ATOM     31  C   UNL     1       1.614   3.643  21.313  0.00  0.00    +0.000 C 
ENDBRANCH  29  31
ENDBRANCH  27  29
ENDBRANCH   1  27
TORSDOF 7
ENDMDL
MODEL 4
REMARK VINA RESULT:      -7.5      4.055      6.482
REMARK  Name = 
REMARK  9 active torsions:
REMARK  status: ('A' for Active; 'I' for Inactive)
REMARK    1  A    between atoms: C_1  and  C_2
REMARK    2  A    between atoms: C_2  and  O_3
REMARK    3  A    between atoms: O_3  and  C_4
REMARK    4  A    between atoms: C_4  and  C_6
REMARK    5  A    between atoms: C_7  and  N_8
REMARK    6  A    between atoms: C_9  and  C_11
REMARK    7  A    between atoms: C_11  and  C_12
REMARK    8  A    between atoms: C_20  and  C_21
REMARK    9  A    between atoms: C_27  and  C_28
REMARK                            x       y       z     vdW  Elec       q    Type
REMARK                         _______ _______ _______ _____ _____    ______ ____
ROOT
ATOM      1  C   UNL     1       3.327   5.553  18.666  0.00  0.00    +0.000 A 
ATOM      2  C   UNL     1       3.707   6.522  17.745  0.00  0.00    +0.000 A 
ATOM      3  S   UNL     1       2.906   7.993  18.030  0.00  0.00    +0.000 S 
ATOM      4  C   UNL     1       2.119   7.444  19.442  0.00  0.00    +0.000 A 
ATOM      5  C   UNL     1       2.341   6.084  19.620  0.00  0.00    +0.000 A 
ATOM      6  C   UNL     1       1.707   5.238  20.691  0.00  0.00    +0.000 C 
ENDROOT
BRANCH   4   7
ATOM      7  C   UNL     1       1.383   8.422  20.278  0.00  0.00    +0.000 A 
ATOM      8  C   UNL     1       0.669   9.496  19.720  0.00  0.00    +0.000 A 
ATOM      9  C   UNL     1       0.052  10.454  20.532  0.00  0.00    +0.000 A 
ATOM     10  C   UNL     1       0.114  10.342  21.918  0.00  0.00    +0.000 A 
ATOM     11  C   UNL     1       0.798   9.276  22.493  0.00  0.00    +0.000 A 
ATOM     12  C   UNL     1       1.437   8.335  21.680  0.00  0.00    +0.000 A 
ENDBRANCH   4   7
BRANCH   2  13
ATOM     13  N   UNL     1       4.590   6.422  16.662  0.00  0.00    +0.000 N 
ATOM     14  C   UNL     1       5.970   6.284  16.774  0.00  0.00    +0.000 C 
ATOM     15  O   UNL     1       6.606   6.099  17.807  0.00  0.00    +0.000 OA
ATOM     16  H   UNL     1       4.159   6.341  15.744  0.00  0.00    +0.000 HD
BRANCH  14  17
ATOM     17  C   UNL     1       6.731   6.332  15.465  0.00  0.00    +0.000 C 
BRANCH  17  18
ATOM     18  C   UNL     1       7.002   4.969  14.842  0.00  0.00    +0.000 C 
ATOM     19  S   UNL     1       5.551   3.907  14.502  0.00  0.00    +0.000 S 
ATOM     20  C   UNL     1       6.060   3.618  12.885  0.00  0.00    +0.000 C 
ATOM     21  N   UNL     1       5.450   2.867  12.052  0.00  0.00    +0.000 NA
ATOM     22  N   UNL     1       7.187   4.275  12.570  0.00  0.00    +0.000 N 
ATOM     23  C   UNL     1       7.722   5.093  13.516  0.00  0.00    +0.000 C 
ATOM     24  O   UNL     1       8.670   5.845  13.316  0.00  0.00    +0.000 OA
ATOM     25  H   UNL     1       4.618   2.490  12.524  0.00  0.00    +0.000 HD
ATOM     26  H   UNL     1       7.550   4.229  11.631  0.00  0.00    +0.000 HD
ENDBRANCH  17  18
ENDBRANCH  14  17
ENDBRANCH   2  13
BRANCH   1  27
ATOM     27  C   UNL     1       3.883   4.196  18.772  0.00  0.00    +0.000 C 
ATOM     28  O   UNL     1       4.760   3.907  19.578  0.00  0.00    +0.000 OA
BRANCH  27  29
ATOM     29  O   UNL     1       3.371   3.304  17.874  0.00  0.00    +0.000 OA
BRANCH  29  31
ATOM     30  C   UNL     1       1.251   2.280  18.607  0.00  0.00    +0.000 C 
ATOM     31  C   UNL     1       2.761   2.146  18.475  0.00  0.00    +0.000 C 
ENDBRANCH  29  31
ENDBRANCH  27  29
ENDBRANCH   1  27
TORSDOF 7
ENDMDL
MODEL 5
REMARK VINA RESULT:      -7.4      5.186      7.529
REMARK  Name = 
REMARK  9 active torsions:
REMARK  status: ('A' for Active; 'I' for Inactive)
REMARK    1  A    between atoms: C_1  and  C_2
REMARK    2  A    between atoms: C_2  and  O_3
REMARK    3  A    between atoms: O_3  and  C_4
REMARK    4  A    between atoms: C_4  and  C_6
REMARK    5  A    between atoms: C_7  and  N_8
REMARK    6  A    between atoms: C_9  and  C_11
REMARK    7  A    between atoms: C_11  and  C_12
REMARK    8  A    between atoms: C_20  and  C_21
REMARK    9  A    between atoms: C_27  and  C_28
REMARK                            x       y       z     vdW  Elec       q    Type
REMARK                         _______ _______ _______ _____ _____    ______ ____
ROOT
ATOM      1  C   UNL     1       2.945   5.535  19.407  0.00  0.00    +0.000 A 
ATOM      2  C   UNL     1       2.814   6.836  18.936  0.00  0.00    +0.000 A 
ATOM      3  S   UNL     1       3.885   7.139  17.651  0.00  0.00    +0.000 S 
ATOM      4  C   UNL     1       4.476   5.538  17.591  0.00  0.00    +0.000 A 
ATOM      5  C   UNL     1       3.973   4.798  18.655  0.00  0.00    +0.000 A 
ATOM      6  C   UNL     1       4.369   3.386  18.988  0.00  0.00    +0.000 C 
ENDROOT
BRANCH   4   7
ATOM      7  C   UNL     1       5.355   5.141  16.466  0.00  0.00    +0.000 A 
ATOM      8  C   UNL     1       6.716   5.491  16.420  0.00  0.00    +0.000 A 
ATOM      9  C   UNL     1       7.506   5.178  15.309  0.00  0.00    +0.000 A 
ATOM     10  C   UNL     1       6.958   4.483  14.234  0.00  0.00    +0.000 A 
ATOM     11  C   UNL     1       5.619   4.108  14.266  0.00  0.00    +0.000 A 
ATOM     12  C   UNL     1       4.824   4.448  15.365  0.00  0.00    +0.000 A 
ENDBRANCH   4   7
BRANCH   2  13
ATOM     13  N   UNL     1       1.982   7.867  19.390  0.00  0.00    +0.000 N 
ATOM     14  C   UNL     1       1.574   8.953  18.623  0.00  0.00    +0.000 C 
ATOM     15  O   UNL     1       1.762   9.113  17.420  0.00  0.00    +0.000 OA
ATOM     16  H   UNL     1       1.575   7.734  20.314  0.00  0.00    +0.000 HD
BRANCH  14  17
ATOM     17  C   UNL     1       0.786  10.010  19.369  0.00  0.00    +0.000 C 
BRANCH  17  18
ATOM     18  C   UNL     1      -0.073  10.902  18.481  0.00  0.00    +0.000 C 
ATOM     19  S   UNL     1      -1.762  10.313  18.095  0.00  0.00    +0.000 S 
ATOM     20  C   UNL     1      -2.460  11.819  18.548  0.00  0.00    +0.000 C 
ATOM     21  N   UNL     1      -3.704  12.095  18.478  0.00  0.00    +0.000 NA
ATOM     22  N   UNL     1      -1.551  12.698  18.998  0.00  0.00    +0.000 N 
ATOM     23  C   UNL     1      -0.261  12.278  19.085  0.00  0.00    +0.000 C 
ATOM     24  O   UNL     1       0.641  12.933  19.597  0.00  0.00    +0.000 OA
ATOM     25  H   UNL     1      -4.188  11.263  18.116  0.00  0.00    +0.000 HD
ATOM     26  H   UNL     1      -1.850  13.595  19.347  0.00  0.00    +0.000 HD
ENDBRANCH  17  18
ENDBRANCH  14  17
ENDBRANCH   2  13
BRANCH   1  27
ATOM     27  C   UNL     1       2.119   4.906  20.448  0.00  0.00    +0.000 C 
ATOM     28  O   UNL     1       2.491   4.809  21.611  0.00  0.00    +0.000 OA
BRANCH  27  29
ATOM     29  O   UNL     1       0.930   4.407  20.000  0.00  0.00    +0.000 OA
BRANCH  29  31
ATOM     30  C   UNL     1       0.834   2.314  18.700  0.00  0.00    +0.000 C 
ATOM     31  C   UNL     1       0.826   2.973  20.072  0.00  0.00    +0.000 C 
ENDBRANCH  29  31
ENDBRANCH  27  29
ENDBRANCH   1  27
TORSDOF 7
ENDMDL
MODEL 6
REMARK VINA RESULT:      -7.4      5.180      7.513
REMARK  Name = 
REMARK  9 active torsions:
REMARK  status: ('A' for Active; 'I' for Inactive)
REMARK    1  A    between atoms: C_1  and  C_2
REMARK    2  A    between atoms: C_2  and  O_3
REMARK    3  A    between atoms: O_3  and  C_4
REMARK    4  A    between atoms: C_4  and  C_6
REMARK    5  A    between atoms: C_7  and  N_8
REMARK    6  A    between atoms: C_9  and  C_11
REMARK    7  A    between atoms: C_11  and  C_12
REMARK    8  A    between atoms: C_20  and  C_21
REMARK    9  A    between atoms: C_27  and  C_28
REMARK                            x       y       z     vdW  Elec       q    Type
REMARK                         _______ _______ _______ _____ _____    ______ ____
ROOT
ATOM      1  C   UNL     1       2.888   4.353  20.320  0.00  0.00    +0.000 A 
ATOM      2  C   UNL     1       2.694   5.713  20.104  0.00  0.00    +0.000 A 
ATOM      3  S   UNL     1       3.751   6.306  18.913  0.00  0.00    +0.000 S 
ATOM      4  C   UNL     1       4.421   4.777  18.556  0.00  0.00    +0.000 A 
ATOM      5  C   UNL     1       3.953   3.824  19.453  0.00  0.00    +0.000 A 
ATOM      6  C   UNL     1       4.418   2.394  19.517  0.00  0.00    +0.000 C 
ENDROOT
BRANCH   4   7
ATOM      7  C   UNL     1       5.321   4.644  17.386  0.00  0.00    +0.000 A 
ATOM      8  C   UNL     1       6.705   4.871  17.478  0.00  0.00    +0.000 A 
ATOM      9  C   UNL     1       7.523   4.821  16.344  0.00  0.00    +0.000 A 
ATOM     10  C   UNL     1       6.976   4.518  15.100  0.00  0.00    +0.000 A 
ATOM     11  C   UNL     1       5.613   4.270  14.988  0.00  0.00    +0.000 A 
ATOM     12  C   UNL     1       4.793   4.347  16.118  0.00  0.00    +0.000 A 
ENDBRANCH   4   7
BRANCH   2  13
ATOM     13  N   UNL     1       1.811   6.596  20.736  0.00  0.00    +0.000 N 
ATOM     14  C   UNL     1       1.533   7.888  20.300  0.00  0.00    +0.000 C 
ATOM     15  O   UNL     1       1.902   8.401  19.248  0.00  0.00    +0.000 OA
ATOM     16  H   UNL     1       1.267   6.207  21.504  0.00  0.00    +0.000 HD
BRANCH  14  17
ATOM     17  C   UNL     1       0.648   8.704  21.220  0.00  0.00    +0.000 C 
BRANCH  17  18
ATOM     18  C   UNL     1       0.494  10.165  20.817  0.00  0.00    +0.000 C 
ATOM     19  S   UNL     1      -0.335  10.503  19.221  0.00  0.00    +0.000 S 
ATOM     20  C   UNL     1      -1.401  11.643  19.943  0.00  0.00    +0.000 C 
ATOM     21  N   UNL     1      -2.281  12.319  19.312  0.00  0.00    +0.000 NA
ATOM     22  N   UNL     1      -1.219  11.758  21.267  0.00  0.00    +0.000 N 
ATOM     23  C   UNL     1      -0.293  10.949  21.846  0.00  0.00    +0.000 C 
ATOM     24  O   UNL     1      -0.119  10.861  23.058  0.00  0.00    +0.000 OA
ATOM     25  H   UNL     1      -2.231  12.047  18.321  0.00  0.00    +0.000 HD
ATOM     26  H   UNL     1      -1.826  12.355  21.808  0.00  0.00    +0.000 HD
ENDBRANCH  17  18
ENDBRANCH  14  17
ENDBRANCH   2  13
BRANCH   1  27
ATOM     27  C   UNL     1       2.092   3.498  21.212  0.00  0.00    +0.000 C 
ATOM     28  O   UNL     1       2.585   2.905  22.164  0.00  0.00    +0.000 OA
BRANCH  27  29
ATOM     29  O   UNL     1       0.775   3.392  20.867  0.00  0.00    +0.000 OA
BRANCH  29  31
ATOM     30  C   UNL     1       0.804   1.946  18.870  0.00  0.00    +0.000 C 
ATOM     31  C   UNL     1       0.540   3.329  19.448  0.00  0.00    +0.000 C 
ENDBRANCH  29  31
ENDBRANCH  27  29
ENDBRANCH   1  27
TORSDOF 7
ENDMDL
MODEL 7
REMARK VINA RESULT:      -7.3      5.005      7.460
REMARK  Name = 
REMARK  9 active torsions:
REMARK  status: ('A' for Active; 'I' for Inactive)
REMARK    1  A    between atoms: C_1  and  C_2
REMARK    2  A    between atoms: C_2  and  O_3
REMARK    3  A    between atoms: O_3  and  C_4
REMARK    4  A    between atoms: C_4  and  C_6
REMARK    5  A    between atoms: C_7  and  N_8
REMARK    6  A    between atoms: C_9  and  C_11
REMARK    7  A    between atoms: C_11  and  C_12
REMARK    8  A    between atoms: C_20  and  C_21
REMARK    9  A    between atoms: C_27  and  C_28
REMARK                            x       y       z     vdW  Elec       q    Type
REMARK                         _______ _______ _______ _____ _____    ______ ____
ROOT
ATOM      1  C   UNL     1       2.602   4.890  18.648  0.00  0.00    +0.000 A 
ATOM      2  C   UNL     1       2.766   6.270  18.640  0.00  0.00    +0.000 A 
ATOM      3  S   UNL     1       4.043   6.736  17.621  0.00  0.00    +0.000 S 
ATOM      4  C   UNL     1       4.352   5.152  17.063  0.00  0.00    +0.000 A 
ATOM      5  C   UNL     1       3.584   4.233  17.769  0.00  0.00    +0.000 A 
ATOM      6  C   UNL     1       3.679   2.738  17.630  0.00  0.00    +0.000 C 
ENDROOT
BRANCH   4   7
ATOM      7  C   UNL     1       5.300   4.960  15.940  0.00  0.00    +0.000 A 
ATOM      8  C   UNL     1       4.914   4.358  14.730  0.00  0.00    +0.000 A 
ATOM      9  C   UNL     1       5.846   4.112  13.716  0.00  0.00    +0.000 A 
ATOM     10  C   UNL     1       7.177   4.488  13.881  0.00  0.00    +0.000 A 
ATOM     11  C   UNL     1       7.577   5.104  15.062  0.00  0.00    +0.000 A 
ATOM     12  C   UNL     1       6.650   5.323  16.085  0.00  0.00    +0.000 A 
ENDBRANCH   4   7
BRANCH   2  13
ATOM     13  N   UNL     1       2.068   7.252  19.354  0.00  0.00    +0.000 N 
ATOM     14  C   UNL     1       1.757   8.518  18.866  0.00  0.00    +0.000 C 
ATOM     15  O   UNL     1       1.922   8.921  17.719  0.00  0.00    +0.000 OA
ATOM     16  H   UNL     1       1.679   6.959  20.248  0.00  0.00    +0.000 HD
BRANCH  14  17
ATOM     17  C   UNL     1       1.115   9.455  19.867  0.00  0.00    +0.000 C 
BRANCH  17  18
ATOM     18  C   UNL     1       0.574  10.747  19.267  0.00  0.00    +0.000 C 
ATOM     19  S   UNL     1      -1.047  10.655  18.423  0.00  0.00    +0.000 S 
ATOM     20  C   UNL     1      -1.654  12.003  19.303  0.00  0.00    +0.000 C 
ATOM     21  N   UNL     1      -2.815  12.511  19.147  0.00  0.00    +0.000 NA
ATOM     22  N   UNL     1      -0.772  12.481  20.193  0.00  0.00    +0.000 N 
ATOM     23  C   UNL     1       0.415  11.827  20.315  0.00  0.00    +0.000 C 
ATOM     24  O   UNL     1       1.252  12.080  21.176  0.00  0.00    +0.000 OA
ATOM     25  H   UNL     1      -3.299  11.966  18.422  0.00  0.00    +0.000 HD
ATOM     26  H   UNL     1      -1.037  13.235  20.808  0.00  0.00    +0.000 HD
ENDBRANCH  17  18
ENDBRANCH  14  17
ENDBRANCH   2  13
BRANCH   1  27
ATOM     27  C   UNL     1       1.542   4.149  19.346  0.00  0.00    +0.000 C 
ATOM     28  O   UNL     1       0.749   3.425  18.755  0.00  0.00    +0.000 OA
BRANCH  27  29
ATOM     29  O   UNL     1       1.493   4.368  20.693  0.00  0.00    +0.000 OA
BRANCH  29  31
ATOM     30  C   UNL     1       2.983   2.523  21.367  0.00  0.00    +0.000 C 
ATOM     31  C   UNL     1       1.614   3.175  21.490  0.00  0.00    +0.000 C 
ENDBRANCH  29  31
ENDBRANCH  27  29
ENDBRANCH   1  27
TORSDOF 7
ENDMDL
MODEL 8
REMARK VINA RESULT:      -7.3      0.936      1.078
REMARK  Name = 
REMARK  9 active torsions:
REMARK  status: ('A' for Active; 'I' for Inactive)
REMARK    1  A    between atoms: C_1  and  C_2
REMARK    2  A    between atoms: C_2  and  O_3
REMARK    3  A    between atoms: O_3  and  C_4
REMARK    4  A    between atoms: C_4  and  C_6
REMARK    5  A    between atoms: C_7  and  N_8
REMARK    6  A    between atoms: C_9  and  C_11
REMARK    7  A    between atoms: C_11  and  C_12
REMARK    8  A    between atoms: C_20  and  C_21
REMARK    9  A    between atoms: C_27  and  C_28
REMARK                            x       y       z     vdW  Elec       q    Type
REMARK                         _______ _______ _______ _____ _____    ______ ____
ROOT
ATOM      1  C   UNL     1       5.613   5.504  16.407  0.00  0.00    +0.000 A 
ATOM      2  C   UNL     1       5.773   6.657  17.168  0.00  0.00    +0.000 A 
ATOM      3  S   UNL     1       4.724   6.666  18.505  0.00  0.00    +0.000 S 
ATOM      4  C   UNL     1       4.104   5.105  18.197  0.00  0.00    +0.000 A 
ATOM      5  C   UNL     1       4.581   4.627  16.982  0.00  0.00    +0.000 A 
ATOM      6  C   UNL     1       4.155   3.338  16.333  0.00  0.00    +0.000 C 
ENDROOT
BRANCH   4   7
ATOM      7  C   UNL     1       3.231   4.469  19.212  0.00  0.00    +0.000 A 
ATOM      8  C   UNL     1       1.980   5.004  19.564  0.00  0.00    +0.000 A 
ATOM      9  C   UNL     1       1.210   4.433  20.583  0.00  0.00    +0.000 A 
ATOM     10  C   UNL     1       1.664   3.299  21.252  0.00  0.00    +0.000 A 
ATOM     11  C   UNL     1       2.890   2.740  20.907  0.00  0.00    +0.000 A 
ATOM     12  C   UNL     1       3.670   3.329  19.907  0.00  0.00    +0.000 A 
ENDBRANCH   4   7
BRANCH   2  13
ATOM     13  N   UNL     1       6.619   7.752  16.955  0.00  0.00    +0.000 N 
ATOM     14  C   UNL     1       7.751   8.040  17.713  0.00  0.00    +0.000 C 
ATOM     15  O   UNL     1       8.252   7.330  18.579  0.00  0.00    +0.000 OA
ATOM     16  H   UNL     1       6.433   8.301  16.118  0.00  0.00    +0.000 HD
BRANCH  14  17
ATOM     17  C   UNL     1       8.432   9.352  17.381  0.00  0.00    +0.000 C 
BRANCH  17  18
ATOM     18  C   UNL     1       8.308  10.419  18.462  0.00  0.00    +0.000 C 
ATOM     19  S   UNL     1       9.628  10.476  19.727  0.00  0.00    +0.000 S 
ATOM     20  C   UNL     1       9.853  12.168  19.509  0.00  0.00    +0.000 C 
ATOM     21  N   UNL     1      10.677  12.884  20.170  0.00  0.00    +0.000 NA
ATOM     22  N   UNL     1       9.064  12.677  18.551  0.00  0.00    +0.000 N 
ATOM     23  C   UNL     1       8.265  11.812  17.870  0.00  0.00    +0.000 C 
ATOM     24  O   UNL     1       7.595  12.122  16.890  0.00  0.00    +0.000 OA
ATOM     25  H   UNL     1      11.167  12.267  20.830  0.00  0.00    +0.000 HD
ATOM     26  H   UNL     1       9.148  13.648  18.293  0.00  0.00    +0.000 HD
ENDBRANCH  17  18
ENDBRANCH  14  17
ENDBRANCH   2  13
BRANCH   1  27
ATOM     27  C   UNL     1       6.415   5.124  15.235  0.00  0.00    +0.000 C 
ATOM     28  O   UNL     1       7.634   5.246  15.206  0.00  0.00    +0.000 OA
BRANCH  27  29
ATOM     29  O   UNL     1       5.685   4.666  14.176  0.00  0.00    +0.000 OA
BRANCH  29  31
ATOM     30  C   UNL     1       5.581   3.323  12.111  0.00  0.00    +0.000 C 
ATOM     31  C   UNL     1       6.389   3.735  13.333  0.00  0.00    +0.000 C 
ENDBRANCH  29  31
ENDBRANCH  27  29
ENDBRANCH   1  27
TORSDOF 7
ENDMDL
MODEL 9
REMARK VINA RESULT:      -7.2      5.059      7.353
REMARK  Name = 
REMARK  9 active torsions:
REMARK  status: ('A' for Active; 'I' for Inactive)
REMARK    1  A    between atoms: C_1  and  C_2
REMARK    2  A    between atoms: C_2  and  O_3
REMARK    3  A    between atoms: O_3  and  C_4
REMARK    4  A    between atoms: C_4  and  C_6
REMARK    5  A    between atoms: C_7  and  N_8
REMARK    6  A    between atoms: C_9  and  C_11
REMARK    7  A    between atoms: C_11  and  C_12
REMARK    8  A    between atoms: C_20  and  C_21
REMARK    9  A    between atoms: C_27  and  C_28
REMARK                            x       y       z     vdW  Elec       q    Type
REMARK                         _______ _______ _______ _____ _____    ______ ____
ROOT
ATOM      1  C   UNL     1       2.534   4.420  18.709  0.00  0.00    +0.000 A 
ATOM      2  C   UNL     1       3.056   5.641  19.120  0.00  0.00    +0.000 A 
ATOM      3  S   UNL     1       4.467   6.031  18.257  0.00  0.00    +0.000 S 
ATOM      4  C   UNL     1       4.379   4.668  17.234  0.00  0.00    +0.000 A 
ATOM      5  C   UNL     1       3.356   3.821  17.645  0.00  0.00    +0.000 A 
ATOM      6  C   UNL     1       3.062   2.470  17.052  0.00  0.00    +0.000 C 
ENDROOT
BRANCH   4   7
ATOM      7  C   UNL     1       5.305   4.577  16.080  0.00  0.00    +0.000 A 
ATOM      8  C   UNL     1       6.657   4.951  16.175  0.00  0.00    +0.000 A 
ATOM      9  C   UNL     1       7.492   4.935  15.053  0.00  0.00    +0.000 A 
ATOM     10  C   UNL     1       6.999   4.519  13.819  0.00  0.00    +0.000 A 
ATOM     11  C   UNL     1       5.670   4.124  13.706  0.00  0.00    +0.000 A 
ATOM     12  C   UNL     1       4.830   4.168  14.823  0.00  0.00    +0.000 A 
ENDBRANCH   4   7
BRANCH   2  13
ATOM     13  N   UNL     1       2.602   6.511  20.119  0.00  0.00    +0.000 N 
ATOM     14  C   UNL     1       2.014   7.750  19.884  0.00  0.00    +0.000 C 
ATOM     15  O   UNL     1       1.685   8.210  18.795  0.00  0.00    +0.000 OA
ATOM     16  H   UNL     1       2.617   6.144  21.068  0.00  0.00    +0.000 HD
BRANCH  14  17
ATOM     17  C   UNL     1       1.726   8.572  21.123  0.00  0.00    +0.000 C 
BRANCH  17  18
ATOM     18  C   UNL     1       0.401   9.324  21.090  0.00  0.00    +0.000 C 
ATOM     19  S   UNL     1      -0.562   9.381  22.644  0.00  0.00    +0.000 S 
ATOM     20  C   UNL     1      -0.754  11.087  22.537  0.00  0.00    +0.000 C 
ATOM     21  N   UNL     1      -1.411  11.800  23.368  0.00  0.00    +0.000 NA
ATOM     22  N   UNL     1      -0.130  11.614  21.473  0.00  0.00    +0.000 N 
ATOM     23  C   UNL     1       0.589  10.770  20.685  0.00  0.00    +0.000 C 
ATOM     24  O   UNL     1       1.308  11.139  19.762  0.00  0.00    +0.000 OA
ATOM     25  H   UNL     1      -1.781  11.172  24.093  0.00  0.00    +0.000 HD
ATOM     26  H   UNL     1      -0.123  12.614  21.338  0.00  0.00    +0.000 HD
ENDBRANCH  17  18
ENDBRANCH  14  17
ENDBRANCH   2  13
BRANCH   1  27
ATOM     27  C   UNL     1       1.277   3.816  19.175  0.00  0.00    +0.000 C 
ATOM     28  O   UNL     1       0.517   3.218  18.422  0.00  0.00    +0.000 OA
BRANCH  27  29
ATOM     29  O   UNL     1       1.013   4.014  20.500  0.00  0.00    +0.000 OA
BRANCH  29  31
ATOM     30  C   UNL     1       2.683   2.592  21.627  0.00  0.00    +0.000 C 
ATOM     31  C   UNL     1       1.215   2.849  21.322  0.00  0.00    +0.000 C 
ENDBRANCH  29  31
ENDBRANCH  27  29
ENDBRANCH   1  27
TORSDOF 7
ENDMDL
