MODEL 1
REMARK VINA RESULT:      -8.5      0.000      0.000
REMARK  Name = 
REMARK  6 active torsions:
REMARK  status: ('A' for Active; 'I' for Inactive)
REMARK    1  A    between atoms: C_1  and  O_2
REMARK    2  A    between atoms: O_2  and  C_3
REMARK    3  A    between atoms: C_6  and  N_7
REMARK    4  A    between atoms: N_7  and  C_8
REMARK    5  A    between atoms: C_9  and  C_10
REMARK    6  A    between atoms: C_13  and  C_14
REMARK                            x       y       z     vdW  Elec       q    Type
REMARK                         _______ _______ _______ _____ _____    ______ ____
ROOT
ATOM      1  C   UNL     1       5.820   4.036  16.203  0.00  0.00    +0.000 A 
ATOM      2  C   UNL     1       6.364   4.537  15.029  0.00  0.00    +0.000 A 
ATOM      3  N   UNL     1       7.193   5.609  15.262  0.00  0.00    +0.000 NA
ATOM      4  C   UNL     1       7.173   5.778  16.566  0.00  0.00    +0.000 A 
ATOM      5  C   UNL     1       7.804   6.761  17.380  0.00  0.00    +0.000 A 
ATOM      6  C   UNL     1       7.657   6.724  18.718  0.00  0.00    +0.000 A 
ATOM      7  C   UNL     1       6.888   5.675  19.362  0.00  0.00    +0.000 A 
ATOM      8  C   UNL     1       6.298   4.739  18.602  0.00  0.00    +0.000 A 
ATOM      9  N   UNL     1       6.399   4.809  17.207  0.00  0.00    +0.000 N 
ENDROOT
BRANCH   2  10
ATOM     10  C   UNL     1       6.068   4.039  13.659  0.00  0.00    +0.000 A 
ATOM     11  C   UNL     1       7.011   3.818  12.674  0.00  0.00    +0.000 A 
ATOM     12  C   UNL     1       6.309   3.391  11.520  0.00  0.00    +0.000 A 
ATOM     13  C   UNL     1       4.976   3.381  11.866  0.00  0.00    +0.000 A 
ATOM     14  C   UNL     1       3.740   3.080  11.120  0.00  0.00    +0.000 C 
ATOM     15  O   UNL     1       4.821   3.752  13.168  0.00  0.00    +0.000 OA
ENDBRANCH   2  10
BRANCH   1  16
ATOM     16  N   UNL     1       4.971   2.985  16.416  0.00  0.00    +0.000 N 
ATOM     17  H   UNL     1       4.745   2.423  15.590  0.00  0.00    +0.000 HD
BRANCH  16  21
ATOM     18  C   UNL     1       1.807   2.888  19.225  0.00  0.00    +0.000 A 
ATOM     19  C   UNL     1       1.967   4.002  18.404  0.00  0.00    +0.000 A 
ATOM     20  C   UNL     1       2.978   4.031  17.441  0.00  0.00    +0.000 A 
ATOM     21  C   UNL     1       3.879   2.968  17.317  0.00  0.00    +0.000 A 
ATOM     22  C   UNL     1       3.706   1.849  18.141  0.00  0.00    +0.000 A 
ATOM     23  C   UNL     1       2.683   1.810  19.097  0.00  0.00    +0.000 A 
BRANCH  18  25
ATOM     24  C   UNL     1       1.204   2.942  21.502  0.00  0.00    +0.000 C 
ATOM     25  O   UNL     1       0.795   2.976  20.139  0.00  0.00    +0.000 OA
ENDBRANCH  18  25
ENDBRANCH  16  21
ENDBRANCH   1  16
TORSDOF 4
ENDMDL
MODEL 2
REMARK VINA RESULT:      -8.4      4.023      6.240
REMARK  Name = 
REMARK  6 active torsions:
REMARK  status: ('A' for Active; 'I' for Inactive)
REMARK    1  A    between atoms: C_1  and  O_2
REMARK    2  A    between atoms: O_2  and  C_3
REMARK    3  A    between atoms: C_6  and  N_7
REMARK    4  A    between atoms: N_7  and  C_8
REMARK    5  A    between atoms: C_9  and  C_10
REMARK    6  A    between atoms: C_13  and  C_14
REMARK                            x       y       z     vdW  Elec       q    Type
REMARK                         _______ _______ _______ _____ _____    ______ ____
ROOT
ATOM      1  C   UNL     1       3.682   5.300  18.263  0.00  0.00    +0.000 A 
ATOM      2  C   UNL     1       4.952   4.864  18.614  0.00  0.00    +0.000 A 
ATOM      3  N   UNL     1       4.943   3.568  19.074  0.00  0.00    +0.000 NA
ATOM      4  C   UNL     1       3.685   3.193  19.012  0.00  0.00    +0.000 A 
ATOM      5  C   UNL     1       3.065   1.971  19.398  0.00  0.00    +0.000 A 
ATOM      6  C   UNL     1       1.742   1.800  19.218  0.00  0.00    +0.000 A 
ATOM      7  C   UNL     1       0.926   2.829  18.600  0.00  0.00    +0.000 A 
ATOM      8  C   UNL     1       1.505   3.981  18.225  0.00  0.00    +0.000 A 
ATOM      9  N   UNL     1       2.870   4.186  18.466  0.00  0.00    +0.000 N 
ENDROOT
BRANCH   2  10
ATOM     10  C   UNL     1       6.191   5.686  18.565  0.00  0.00    +0.000 A 
ATOM     11  C   UNL     1       7.345   5.425  19.277  0.00  0.00    +0.000 A 
ATOM     12  C   UNL     1       8.258   6.466  18.977  0.00  0.00    +0.000 A 
ATOM     13  C   UNL     1       7.605   7.307  18.103  0.00  0.00    +0.000 A 
ATOM     14  C   UNL     1       7.977   8.577  17.454  0.00  0.00    +0.000 C 
ATOM     15  O   UNL     1       6.358   6.830  17.829  0.00  0.00    +0.000 OA
ENDBRANCH   2  10
BRANCH   1  16
ATOM     16  N   UNL     1       3.257   6.496  17.756  0.00  0.00    +0.000 N 
ATOM     17  H   UNL     1       3.889   6.944  17.086  0.00  0.00    +0.000 HD
BRANCH  16  21
ATOM     18  C   UNL     1       0.983   9.461  19.743  0.00  0.00    +0.000 A 
ATOM     19  C   UNL     1       1.398   8.327  20.440  0.00  0.00    +0.000 A 
ATOM     20  C   UNL     1       2.187   7.361  19.811  0.00  0.00    +0.000 A 
ATOM     21  C   UNL     1       2.532   7.486  18.461  0.00  0.00    +0.000 A 
ATOM     22  C   UNL     1       2.117   8.634  17.771  0.00  0.00    +0.000 A 
ATOM     23  C   UNL     1       1.339   9.612  18.404  0.00  0.00    +0.000 A 
BRANCH  18  25
ATOM     24  C   UNL     1       0.189  10.117  21.862  0.00  0.00    +0.000 C 
ATOM     25  O   UNL     1       0.204  10.330  20.455  0.00  0.00    +0.000 OA
ENDBRANCH  18  25
ENDBRANCH  16  21
ENDBRANCH   1  16
TORSDOF 4
ENDMDL
MODEL 3
REMARK VINA RESULT:      -8.4      3.927      6.387
REMARK  Name = 
REMARK  6 active torsions:
REMARK  status: ('A' for Active; 'I' for Inactive)
REMARK    1  A    between atoms: C_1  and  O_2
REMARK    2  A    between atoms: O_2  and  C_3
REMARK    3  A    between atoms: C_6  and  N_7
REMARK    4  A    between atoms: N_7  and  C_8
REMARK    5  A    between atoms: C_9  and  C_10
REMARK    6  A    between atoms: C_13  and  C_14
REMARK                            x       y       z     vdW  Elec       q    Type
REMARK                         _______ _______ _______ _____ _____    ______ ____
ROOT
ATOM      1  C   UNL     1       3.565   5.139  19.389  0.00  0.00    +0.000 A 
ATOM      2  C   UNL     1       4.702   4.739  18.701  0.00  0.00    +0.000 A 
ATOM      3  N   UNL     1       4.550   3.495  18.134  0.00  0.00    +0.000 NA
ATOM      4  C   UNL     1       3.333   3.119  18.459  0.00  0.00    +0.000 A 
ATOM      5  C   UNL     1       2.639   1.905  18.190  0.00  0.00    +0.000 A 
ATOM      6  C   UNL     1       1.370   1.747  18.610  0.00  0.00    +0.000 A 
ATOM      7  C   UNL     1       0.669   2.810  19.308  0.00  0.00    +0.000 A 
ATOM      8  C   UNL     1       1.314   3.961  19.557  0.00  0.00    +0.000 A 
ATOM      9  N   UNL     1       2.654   4.106  19.176  0.00  0.00    +0.000 N 
ENDROOT
BRANCH   2  10
ATOM     10  C   UNL     1       5.971   5.509  18.610  0.00  0.00    +0.000 A 
ATOM     11  C   UNL     1       7.139   5.195  19.277  0.00  0.00    +0.000 A 
ATOM     12  C   UNL     1       8.083   6.200  18.949  0.00  0.00    +0.000 A 
ATOM     13  C   UNL     1       7.434   7.073  18.105  0.00  0.00    +0.000 A 
ATOM     14  C   UNL     1       7.834   8.332  17.450  0.00  0.00    +0.000 C 
ATOM     15  O   UNL     1       6.158   6.651  17.875  0.00  0.00    +0.000 OA
ENDBRANCH   2  10
BRANCH   1  16
ATOM     16  N   UNL     1       3.294   6.292  20.073  0.00  0.00    +0.000 N 
ATOM     17  H   UNL     1       3.195   6.192  21.087  0.00  0.00    +0.000 HD
BRANCH  16  21
ATOM     18  C   UNL     1       0.919   9.566  18.831  0.00  0.00    +0.000 A 
ATOM     19  C   UNL     1       1.695   8.883  17.897  0.00  0.00    +0.000 A 
ATOM     20  C   UNL     1       2.450   7.772  18.282  0.00  0.00    +0.000 A 
ATOM     21  C   UNL     1       2.481   7.357  19.617  0.00  0.00    +0.000 A 
ATOM     22  C   UNL     1       1.692   8.045  20.548  0.00  0.00    +0.000 A 
ATOM     23  C   UNL     1       0.921   9.150  20.161  0.00  0.00    +0.000 A 
BRANCH  18  25
ATOM     24  C   UNL     1      -1.077  10.365  17.867  0.00  0.00    +0.000 C 
ATOM     25  O   UNL     1       0.234  10.645  18.344  0.00  0.00    +0.000 OA
ENDBRANCH  18  25
ENDBRANCH  16  21
ENDBRANCH   1  16
TORSDOF 4
ENDMDL
MODEL 4
REMARK VINA RESULT:      -8.4      3.829      6.177
REMARK  Name = 
REMARK  6 active torsions:
REMARK  status: ('A' for Active; 'I' for Inactive)
REMARK    1  A    between atoms: C_1  and  O_2
REMARK    2  A    between atoms: O_2  and  C_3
REMARK    3  A    between atoms: C_6  and  N_7
REMARK    4  A    between atoms: N_7  and  C_8
REMARK    5  A    between atoms: C_9  and  C_10
REMARK    6  A    between atoms: C_13  and  C_14
REMARK                            x       y       z     vdW  Elec       q    Type
REMARK                         _______ _______ _______ _____ _____    ______ ____
ROOT
ATOM      1  C   UNL     1       3.343   5.201  18.964  0.00  0.00    +0.000 A 
ATOM      2  C   UNL     1       4.198   4.707  17.988  0.00  0.00    +0.000 A 
ATOM      3  N   UNL     1       3.836   3.447  17.576  0.00  0.00    +0.000 NA
ATOM      4  C   UNL     1       2.766   3.152  18.280  0.00  0.00    +0.000 A 
ATOM      5  C   UNL     1       1.981   1.964  18.315  0.00  0.00    +0.000 A 
ATOM      6  C   UNL     1       0.898   1.895  19.112  0.00  0.00    +0.000 A 
ATOM      7  C   UNL     1       0.484   3.027  19.921  0.00  0.00    +0.000 A 
ATOM      8  C   UNL     1       1.214   4.154  19.887  0.00  0.00    +0.000 A 
ATOM      9  N   UNL     1       2.376   4.208  19.106  0.00  0.00    +0.000 N 
ENDROOT
BRANCH   2  10
ATOM     10  C   UNL     1       5.403   5.404  17.465  0.00  0.00    +0.000 A 
ATOM     11  C   UNL     1       6.192   4.952  16.425  0.00  0.00    +0.000 A 
ATOM     12  C   UNL     1       7.251   5.882  16.277  0.00  0.00    +0.000 A 
ATOM     13  C   UNL     1       7.050   6.846  17.240  0.00  0.00    +0.000 A 
ATOM     14  C   UNL     1       7.805   8.047  17.641  0.00  0.00    +0.000 C 
ATOM     15  O   UNL     1       5.919   6.577  17.952  0.00  0.00    +0.000 OA
ENDBRANCH   2  10
BRANCH   1  16
ATOM     16  N   UNL     1       3.337   6.399  19.622  0.00  0.00    +0.000 N 
ATOM     17  H   UNL     1       3.525   6.353  20.628  0.00  0.00    +0.000 HD
BRANCH  16  21
ATOM     18  C   UNL     1       0.841   9.746  18.930  0.00  0.00    +0.000 A 
ATOM     19  C   UNL     1       1.600   9.223  17.885  0.00  0.00    +0.000 A 
ATOM     20  C   UNL     1       2.394   8.092  18.085  0.00  0.00    +0.000 A 
ATOM     21  C   UNL     1       2.483   7.494  19.347  0.00  0.00    +0.000 A 
ATOM     22  C   UNL     1       1.711   8.023  20.390  0.00  0.00    +0.000 A 
ATOM     23  C   UNL     1       0.901   9.148  20.188  0.00  0.00    +0.000 A 
BRANCH  18  25
ATOM     24  C   UNL     1      -1.260  10.629  18.336  0.00  0.00    +0.000 C 
ATOM     25  O   UNL     1       0.114  10.862  18.622  0.00  0.00    +0.000 OA
ENDBRANCH  18  25
ENDBRANCH  16  21
ENDBRANCH   1  16
TORSDOF 4
ENDMDL
MODEL 5
REMARK VINA RESULT:      -8.3      4.016      6.249
REMARK  Name = 
REMARK  6 active torsions:
REMARK  status: ('A' for Active; 'I' for Inactive)
REMARK    1  A    between atoms: C_1  and  O_2
REMARK    2  A    between atoms: O_2  and  C_3
REMARK    3  A    between atoms: C_6  and  N_7
REMARK    4  A    between atoms: N_7  and  C_8
REMARK    5  A    between atoms: C_9  and  C_10
REMARK    6  A    between atoms: C_13  and  C_14
REMARK                            x       y       z     vdW  Elec       q    Type
REMARK                         _______ _______ _______ _____ _____    ______ ____
ROOT
ATOM      1  C   UNL     1       3.692   5.311  18.242  0.00  0.00    +0.000 A 
ATOM      2  C   UNL     1       4.965   4.882  18.593  0.00  0.00    +0.000 A 
ATOM      3  N   UNL     1       4.964   3.586  19.052  0.00  0.00    +0.000 NA
ATOM      4  C   UNL     1       3.708   3.203  18.989  0.00  0.00    +0.000 A 
ATOM      5  C   UNL     1       3.096   1.977  19.375  0.00  0.00    +0.000 A 
ATOM      6  C   UNL     1       1.774   1.797  19.194  0.00  0.00    +0.000 A 
ATOM      7  C   UNL     1       0.952   2.822  18.577  0.00  0.00    +0.000 A 
ATOM      8  C   UNL     1       1.523   3.978  18.202  0.00  0.00    +0.000 A 
ATOM      9  N   UNL     1       2.886   4.191  18.444  0.00  0.00    +0.000 N 
ENDROOT
BRANCH   2  10
ATOM     10  C   UNL     1       6.198   5.713  18.545  0.00  0.00    +0.000 A 
ATOM     11  C   UNL     1       7.357   5.453  19.250  0.00  0.00    +0.000 A 
ATOM     12  C   UNL     1       8.262   6.503  18.954  0.00  0.00    +0.000 A 
ATOM     13  C   UNL     1       7.601   7.346  18.089  0.00  0.00    +0.000 A 
ATOM     14  C   UNL     1       7.962   8.623  17.447  0.00  0.00    +0.000 C 
ATOM     15  O   UNL     1       6.355   6.863  17.817  0.00  0.00    +0.000 OA
ENDBRANCH   2  10
BRANCH   1  16
ATOM     16  N   UNL     1       3.259   6.505  17.736  0.00  0.00    +0.000 N 
ATOM     17  H   UNL     1       3.908   6.977  17.099  0.00  0.00    +0.000 HD
BRANCH  16  21
ATOM     18  C   UNL     1       1.045   9.379  19.913  0.00  0.00    +0.000 A 
ATOM     19  C   UNL     1       1.295   9.583  18.558  0.00  0.00    +0.000 A 
ATOM     20  C   UNL     1       1.986   8.623  17.814  0.00  0.00    +0.000 A 
ATOM     21  C   UNL     1       2.483   7.466  18.425  0.00  0.00    +0.000 A 
ATOM     22  C   UNL     1       2.219   7.267  19.787  0.00  0.00    +0.000 A 
ATOM     23  C   UNL     1       1.513   8.220  20.531  0.00  0.00    +0.000 A 
BRANCH  18  25
ATOM     24  C   UNL     1       0.978  11.676  20.435  0.00  0.00    +0.000 C 
ATOM     25  O   UNL     1       0.374  10.391  20.541  0.00  0.00    +0.000 OA
ENDBRANCH  18  25
ENDBRANCH  16  21
ENDBRANCH   1  16
TORSDOF 4
ENDMDL
MODEL 6
REMARK VINA RESULT:      -8.3      3.908      6.399
REMARK  Name = 
REMARK  6 active torsions:
REMARK  status: ('A' for Active; 'I' for Inactive)
REMARK    1  A    between atoms: C_1  and  O_2
REMARK    2  A    between atoms: O_2  and  C_3
REMARK    3  A    between atoms: C_6  and  N_7
REMARK    4  A    between atoms: N_7  and  C_8
REMARK    5  A    between atoms: C_9  and  C_10
REMARK    6  A    between atoms: C_13  and  C_14
REMARK                            x       y       z     vdW  Elec       q    Type
REMARK                         _______ _______ _______ _____ _____    ______ ____
ROOT
ATOM      1  C   UNL     1       3.474   5.153  19.378  0.00  0.00    +0.000 A 
ATOM      2  C   UNL     1       4.597   4.768  18.660  0.00  0.00    +0.000 A 
ATOM      3  N   UNL     1       4.426   3.547  18.050  0.00  0.00    +0.000 NA
ATOM      4  C   UNL     1       3.210   3.171  18.377  0.00  0.00    +0.000 A 
ATOM      5  C   UNL     1       2.501   1.974  18.073  0.00  0.00    +0.000 A 
ATOM      6  C   UNL     1       1.235   1.813  18.504  0.00  0.00    +0.000 A 
ATOM      7  C   UNL     1       0.554   2.855  19.250  0.00  0.00    +0.000 A 
ATOM      8  C   UNL     1       1.214   3.990  19.533  0.00  0.00    +0.000 A 
ATOM      9  N   UNL     1       2.550   4.136  19.139  0.00  0.00    +0.000 N 
ENDROOT
BRANCH   2  10
ATOM     10  C   UNL     1       5.873   5.529  18.582  0.00  0.00    +0.000 A 
ATOM     11  C   UNL     1       7.019   5.232  19.292  0.00  0.00    +0.000 A 
ATOM     12  C   UNL     1       7.977   6.221  18.959  0.00  0.00    +0.000 A 
ATOM     13  C   UNL     1       7.359   7.068  18.067  0.00  0.00    +0.000 A 
ATOM     14  C   UNL     1       7.785   8.302  17.382  0.00  0.00    +0.000 C 
ATOM     15  O   UNL     1       6.088   6.644  17.814  0.00  0.00    +0.000 OA
ENDBRANCH   2  10
BRANCH   1  16
ATOM     16  N   UNL     1       3.223   6.281  20.108  0.00  0.00    +0.000 N 
ATOM     17  H   UNL     1       3.093   6.139  21.114  0.00  0.00    +0.000 HD
BRANCH  16  21
ATOM     18  C   UNL     1       0.890   9.522  18.709  0.00  0.00    +0.000 A 
ATOM     19  C   UNL     1       0.821   9.151  20.050  0.00  0.00    +0.000 A 
ATOM     20  C   UNL     1       1.618   8.112  20.537  0.00  0.00    +0.000 A 
ATOM     21  C   UNL     1       2.460   7.394  19.682  0.00  0.00    +0.000 A 
ATOM     22  C   UNL     1       2.528   7.780  18.336  0.00  0.00    +0.000 A 
ATOM     23  C   UNL     1       1.742   8.831  17.848  0.00  0.00    +0.000 A 
BRANCH  18  25
ATOM     24  C   UNL     1      -0.749  11.072  19.388  0.00  0.00    +0.000 C 
ATOM     25  O   UNL     1       0.055  10.540  18.341  0.00  0.00    +0.000 OA
ENDBRANCH  18  25
ENDBRANCH  16  21
ENDBRANCH   1  16
TORSDOF 4
ENDMDL
MODEL 7
REMARK VINA RESULT:      -8.0      1.878      4.969
REMARK  Name = 
REMARK  6 active torsions:
REMARK  status: ('A' for Active; 'I' for Inactive)
REMARK    1  A    between atoms: C_1  and  O_2
REMARK    2  A    between atoms: O_2  and  C_3
REMARK    3  A    between atoms: C_6  and  N_7
REMARK    4  A    between atoms: N_7  and  C_8
REMARK    5  A    between atoms: C_9  and  C_10
REMARK    6  A    between atoms: C_13  and  C_14
REMARK                            x       y       z     vdW  Elec       q    Type
REMARK                         _______ _______ _______ _____ _____    ______ ____
ROOT
ATOM      1  C   UNL     1       5.602   5.097  15.408  0.00  0.00    +0.000 A 
ATOM      2  C   UNL     1       6.904   5.542  15.593  0.00  0.00    +0.000 A 
ATOM      3  N   UNL     1       7.730   5.161  14.562  0.00  0.00    +0.000 NA
ATOM      4  C   UNL     1       6.959   4.487  13.738  0.00  0.00    +0.000 A 
ATOM      5  C   UNL     1       7.271   3.813  12.523  0.00  0.00    +0.000 A 
ATOM      6  C   UNL     1       6.298   3.198  11.825  0.00  0.00    +0.000 A 
ATOM      7  C   UNL     1       4.916   3.232  12.267  0.00  0.00    +0.000 A 
ATOM      8  C   UNL     1       4.612   3.873  13.407  0.00  0.00    +0.000 A 
ATOM      9  N   UNL     1       5.631   4.462  14.167  0.00  0.00    +0.000 N 
ENDROOT
BRANCH   2  10
ATOM     10  C   UNL     1       7.398   6.296  16.776  0.00  0.00    +0.000 A 
ATOM     11  C   UNL     1       7.557   5.769  18.042  0.00  0.00    +0.000 A 
ATOM     12  C   UNL     1       8.004   6.826  18.874  0.00  0.00    +0.000 A 
ATOM     13  C   UNL     1       8.087   7.939  18.068  0.00  0.00    +0.000 A 
ATOM     14  C   UNL     1       8.441   9.348  18.321  0.00  0.00    +0.000 C 
ATOM     15  O   UNL     1       7.742   7.623  16.787  0.00  0.00    +0.000 OA
ENDBRANCH   2  10
BRANCH   1  16
ATOM     16  N   UNL     1       4.483   5.266  16.175  0.00  0.00    +0.000 N 
ATOM     17  H   UNL     1       4.134   6.226  16.244  0.00  0.00    +0.000 HD
BRANCH  16  21
ATOM     18  C   UNL     1       3.436   3.250  19.745  0.00  0.00    +0.000 A 
ATOM     19  C   UNL     1       3.766   2.514  18.609  0.00  0.00    +0.000 A 
ATOM     20  C   UNL     1       4.157   3.164  17.435  0.00  0.00    +0.000 A 
ATOM     21  C   UNL     1       4.176   4.561  17.363  0.00  0.00    +0.000 A 
ATOM     22  C   UNL     1       3.850   5.292  18.513  0.00  0.00    +0.000 A 
ATOM     23  C   UNL     1       3.472   4.643  19.696  0.00  0.00    +0.000 A 
BRANCH  18  25
ATOM     24  C   UNL     1       2.036   3.093  21.633  0.00  0.00    +0.000 C 
ATOM     25  O   UNL     1       3.054   2.509  20.829  0.00  0.00    +0.000 OA
ENDBRANCH  18  25
ENDBRANCH  16  21
ENDBRANCH   1  16
TORSDOF 4
ENDMDL
MODEL 8
REMARK VINA RESULT:      -8.0      0.694      1.415
REMARK  Name = 
REMARK  6 active torsions:
REMARK  status: ('A' for Active; 'I' for Inactive)
REMARK    1  A    between atoms: C_1  and  O_2
REMARK    2  A    between atoms: O_2  and  C_3
REMARK    3  A    between atoms: C_6  and  N_7
REMARK    4  A    between atoms: N_7  and  C_8
REMARK    5  A    between atoms: C_9  and  C_10
REMARK    6  A    between atoms: C_13  and  C_14
REMARK                            x       y       z     vdW  Elec       q    Type
REMARK                         _______ _______ _______ _____ _____    ______ ____
ROOT
ATOM      1  C   UNL     1       5.842   3.980  16.171  0.00  0.00    +0.000 A 
ATOM      2  C   UNL     1       6.322   4.411  14.943  0.00  0.00    +0.000 A 
ATOM      3  N   UNL     1       7.139   5.511  15.066  0.00  0.00    +0.000 NA
ATOM      4  C   UNL     1       7.174   5.766  16.354  0.00  0.00    +0.000 A 
ATOM      5  C   UNL     1       7.822   6.813  17.071  0.00  0.00    +0.000 A 
ATOM      6  C   UNL     1       7.736   6.863  18.414  0.00  0.00    +0.000 A 
ATOM      7  C   UNL     1       7.020   5.846  19.162  0.00  0.00    +0.000 A 
ATOM      8  C   UNL     1       6.414   4.851  18.494  0.00  0.00    +0.000 A 
ATOM      9  N   UNL     1       6.450   4.829  17.094  0.00  0.00    +0.000 N 
ENDROOT
BRANCH   2  10
ATOM     10  C   UNL     1       5.974   3.818  13.624  0.00  0.00    +0.000 A 
ATOM     11  C   UNL     1       4.791   4.031  12.945  0.00  0.00    +0.000 A 
ATOM     12  C   UNL     1       4.849   3.252  11.763  0.00  0.00    +0.000 A 
ATOM     13  C   UNL     1       6.064   2.604  11.790  0.00  0.00    +0.000 A 
ATOM     14  C   UNL     1       6.711   1.629  10.894  0.00  0.00    +0.000 C 
ATOM     15  O   UNL     1       6.764   2.958  12.905  0.00  0.00    +0.000 OA
ENDBRANCH   2  10
BRANCH   1  16
ATOM     16  N   UNL     1       5.025   2.932  16.493  0.00  0.00    +0.000 N 
ATOM     17  H   UNL     1       4.767   2.316  15.716  0.00  0.00    +0.000 HD
BRANCH  16  21
ATOM     18  C   UNL     1       1.803   3.010  19.235  0.00  0.00    +0.000 A 
ATOM     19  C   UNL     1       2.797   2.042  19.366  0.00  0.00    +0.000 A 
ATOM     20  C   UNL     1       3.891   2.030  18.497  0.00  0.00    +0.000 A 
ATOM     21  C   UNL     1       3.983   2.954  17.450  0.00  0.00    +0.000 A 
ATOM     22  C   UNL     1       2.982   3.928  17.331  0.00  0.00    +0.000 A 
ATOM     23  C   UNL     1       1.893   3.952  18.211  0.00  0.00    +0.000 A 
BRANCH  18  25
ATOM     24  C   UNL     1       1.168   2.816  21.495  0.00  0.00    +0.000 C 
ATOM     25  O   UNL     1       0.775   2.915  20.131  0.00  0.00    +0.000 OA
ENDBRANCH  18  25
ENDBRANCH  16  21
ENDBRANCH   1  16
TORSDOF 4
ENDMDL
MODEL 9
REMARK VINA RESULT:      -7.8      3.904      6.201
REMARK  Name = 
REMARK  6 active torsions:
REMARK  status: ('A' for Active; 'I' for Inactive)
REMARK    1  A    between atoms: C_1  and  O_2
REMARK    2  A    between atoms: O_2  and  C_3
REMARK    3  A    between atoms: C_6  and  N_7
REMARK    4  A    between atoms: N_7  and  C_8
REMARK    5  A    between atoms: C_9  and  C_10
REMARK    6  A    between atoms: C_13  and  C_14
REMARK                            x       y       z     vdW  Elec       q    Type
REMARK                         _______ _______ _______ _____ _____    ______ ____
ROOT
ATOM      1  C   UNL     1       3.282   5.130  18.760  0.00  0.00    +0.000 A 
ATOM      2  C   UNL     1       4.603   4.704  18.790  0.00  0.00    +0.000 A 
ATOM      3  N   UNL     1       4.777   3.622  19.621  0.00  0.00    +0.000 NA
ATOM      4  C   UNL     1       3.581   3.369  20.105  0.00  0.00    +0.000 A 
ATOM      5  C   UNL     1       3.155   2.392  21.049  0.00  0.00    +0.000 A 
ATOM      6  C   UNL     1       1.854   2.301  21.384  0.00  0.00    +0.000 A 
ATOM      7  C   UNL     1       0.857   3.162  20.775  0.00  0.00    +0.000 A 
ATOM      8  C   UNL     1       1.250   4.079  19.877  0.00  0.00    +0.000 A 
ATOM      9  N   UNL     1       2.610   4.217  19.571  0.00  0.00    +0.000 N 
ENDROOT
BRANCH   2  10
ATOM     10  C   UNL     1       5.733   5.348  18.069  0.00  0.00    +0.000 A 
ATOM     11  C   UNL     1       6.550   4.719  17.150  0.00  0.00    +0.000 A 
ATOM     12  C   UNL     1       7.516   5.670  16.739  0.00  0.00    +0.000 A 
ATOM     13  C   UNL     1       7.237   6.825  17.435  0.00  0.00    +0.000 A 
ATOM     14  C   UNL     1       7.880   8.149  17.497  0.00  0.00    +0.000 C 
ATOM     15  O   UNL     1       6.143   6.646  18.229  0.00  0.00    +0.000 OA
ENDBRANCH   2  10
BRANCH   1  16
ATOM     16  N   UNL     1       2.687   6.146  18.065  0.00  0.00    +0.000 N 
ATOM     17  H   UNL     1       3.049   6.309  17.121  0.00  0.00    +0.000 HD
BRANCH  16  21
ATOM     18  C   UNL     1       1.175   9.794  19.585  0.00  0.00    +0.000 A 
ATOM     19  C   UNL     1       1.399   8.726  20.451  0.00  0.00    +0.000 A 
ATOM     20  C   UNL     1       1.939   7.530  19.973  0.00  0.00    +0.000 A 
ATOM     21  C   UNL     1       2.218   7.364  18.612  0.00  0.00    +0.000 A 
ATOM     22  C   UNL     1       1.997   8.446  17.750  0.00  0.00    +0.000 A 
ATOM     23  C   UNL     1       1.470   9.653  18.229  0.00  0.00    +0.000 A 
BRANCH  18  25
ATOM     24  C   UNL     1      -0.786  11.009  20.063  0.00  0.00    +0.000 C 
ATOM     25  O   UNL     1       0.631  10.908  20.160  0.00  0.00    +0.000 OA
ENDBRANCH  18  25
ENDBRANCH  16  21
ENDBRANCH   1  16
TORSDOF 4
ENDMDL
