MODEL 1
REMARK VINA RESULT:      -8.4      0.000      0.000
REMARK  Name = 
REMARK  7 active torsions:
REMARK  status: ('A' for Active; 'I' for Inactive)
REMARK    1  A    between atoms: C_1  and  O_2
REMARK    2  A    between atoms: O_2  and  C_3
REMARK    3  A    between atoms: C_6  and  C_7
REMARK    4  A    between atoms: C_7  and  C_8
REMARK    5  A    between atoms: N_9  and  N_10
REMARK    6  A    between atoms: C_11  and  C_13
REMARK    7  A    between atoms: C_13  and  N_14
REMARK                            x       y       z     vdW  Elec       q    Type
REMARK                         _______ _______ _______ _____ _____    ______ ____
ROOT
ATOM      1  N   UNL     1       4.502   5.390  16.895  0.00  0.00    +0.000 N 
ATOM      2  N   UNL     1       3.681   6.368  17.404  0.00  0.00    +0.000 NA
ATOM      3  C   UNL     1       2.801   6.065  18.324  0.00  0.00    +0.000 A 
ATOM      4  N   UNL     1       1.977   7.067  18.805  0.00  0.00    +0.000 N 
ATOM      5  C   UNL     1       1.406   7.108  20.167  0.00  0.00    +0.000 C 
ATOM      6  C   UNL     1       1.628   8.489  20.842  0.00  0.00    +0.000 C 
ATOM      7  N   UNL     1       1.153   9.528  19.931  0.00  0.00    +0.000 N 
ATOM      8  C   UNL     1       0.336  10.542  20.359  0.00  0.00    +0.000 A 
ATOM      9  C   UNL     1      -0.568  11.137  19.476  0.00  0.00    +0.000 A 
ATOM     10  C   UNL     1      -1.403  12.164  19.908  0.00  0.00    +0.000 A 
ATOM     11  C   UNL     1      -1.317  12.590  21.221  0.00  0.00    +0.000 A 
ATOM     12  C   UNL     1      -0.416  11.944  22.047  0.00  0.00    +0.000 A 
ATOM     13  N   UNL     1       0.386  10.926  21.651  0.00  0.00    +0.000 NA
ATOM     14  C   UNL     1       1.825   9.546  18.630  0.00  0.00    +0.000 C 
ATOM     15  C   UNL     1       1.578   8.199  17.935  0.00  0.00    +0.000 C 
ATOM     16  C   UNL     1       2.685   4.675  18.839  0.00  0.00    +0.000 A 
ATOM     17  C   UNL     1       3.442   3.725  18.291  0.00  0.00    +0.000 A 
ATOM     18  C   UNL     1       4.393   4.055  17.220  0.00  0.00    +0.000 A 
ATOM     19  O   UNL     1       5.036   3.161  16.667  0.00  0.00    +0.000 OA
ENDROOT
BRANCH   1  20
ATOM     20  C   UNL     1       5.594   5.847  16.043  0.00  0.00    +0.000 C 
BRANCH  20  22
ATOM     21  N   UNL     1       6.863   7.525  17.303  0.00  0.00    +0.000 N 
ATOM     22  C   UNL     1       6.865   6.233  16.788  0.00  0.00    +0.000 C 
ATOM     23  O   UNL     1       7.847   5.486  16.796  0.00  0.00    +0.000 OA
ATOM     24  H   UNL     1       6.041   8.122  17.191  0.00  0.00    +0.000 HD
BRANCH  21  26
ATOM     25  C   UNL     1       8.188   9.264  17.897  0.00  0.00    +0.000 C 
ATOM     26  N   UNL     1       7.986   7.988  17.926  0.00  0.00    +0.000 NA
BRANCH  25  27
ATOM     27  C   UNL     1       9.372   9.847  18.632  0.00  0.00    +0.000 C 
BRANCH  27  31
ATOM     28  C   UNL     1      10.055  14.043  17.792  0.00  0.00    +0.000 A 
ATOM     29  C   UNL     1      11.094  13.227  18.238  0.00  0.00    +0.000 A 
ATOM     30  C   UNL     1      10.871  11.876  18.521  0.00  0.00    +0.000 A 
ATOM     31  C   UNL     1       9.593  11.320  18.381  0.00  0.00    +0.000 A 
ATOM     32  C   UNL     1       8.548  12.147  17.944  0.00  0.00    +0.000 A 
ATOM     33  C   UNL     1       8.778  13.500  17.654  0.00  0.00    +0.000 A 
BRANCH  28  35
ATOM     34  C   UNL     1      11.769  15.573  17.221  0.00  0.00    +0.000 C 
ATOM     35  O   UNL     1      10.404  15.345  17.552  0.00  0.00    +0.000 OA
ENDBRANCH  28  35
ENDBRANCH  27  31
ENDBRANCH  25  27
ENDBRANCH  21  26
ENDBRANCH  20  22
ENDBRANCH   1  20
TORSDOF 6
ENDMDL
MODEL 2
REMARK VINA RESULT:      -8.2      1.007      1.251
REMARK  Name = 
REMARK  7 active torsions:
REMARK  status: ('A' for Active; 'I' for Inactive)
REMARK    1  A    between atoms: C_1  and  O_2
REMARK    2  A    between atoms: O_2  and  C_3
REMARK    3  A    between atoms: C_6  and  C_7
REMARK    4  A    between atoms: C_7  and  C_8
REMARK    5  A    between atoms: N_9  and  N_10
REMARK    6  A    between atoms: C_11  and  C_13
REMARK    7  A    between atoms: C_13  and  N_14
REMARK                            x       y       z     vdW  Elec       q    Type
REMARK                         _______ _______ _______ _____ _____    ______ ____
ROOT
ATOM      1  N   UNL     1       4.237   5.962  17.112  0.00  0.00    +0.000 N 
ATOM      2  N   UNL     1       3.433   6.973  17.584  0.00  0.00    +0.000 NA
ATOM      3  C   UNL     1       2.680   6.768  18.634  0.00  0.00    +0.000 A 
ATOM      4  N   UNL     1       1.869   7.799  19.075  0.00  0.00    +0.000 N 
ATOM      5  C   UNL     1       1.456   8.005  20.479  0.00  0.00    +0.000 C 
ATOM      6  C   UNL     1       1.687   9.471  20.937  0.00  0.00    +0.000 C 
ATOM      7  N   UNL     1       1.062  10.362  19.962  0.00  0.00    +0.000 N 
ATOM      8  C   UNL     1       0.252  11.397  20.349  0.00  0.00    +0.000 A 
ATOM      9  C   UNL     1      -0.775  11.838  19.509  0.00  0.00    +0.000 A 
ATOM     10  C   UNL     1      -1.604  12.886  19.901  0.00  0.00    +0.000 A 
ATOM     11  C   UNL     1      -1.389  13.488  21.127  0.00  0.00    +0.000 A 
ATOM     12  C   UNL     1      -0.369  12.989  21.917  0.00  0.00    +0.000 A 
ATOM     13  N   UNL     1       0.430  11.953  21.564  0.00  0.00    +0.000 NA
ATOM     14  C   UNL     1       1.580  10.226  18.599  0.00  0.00    +0.000 C 
ATOM     15  C   UNL     1       1.320   8.790  18.120  0.00  0.00    +0.000 C 
ATOM     16  C   UNL     1       2.690   5.458  19.336  0.00  0.00    +0.000 A 
ATOM     17  C   UNL     1       3.424   4.467  18.830  0.00  0.00    +0.000 A 
ATOM     18  C   UNL     1       4.230   4.680  17.619  0.00  0.00    +0.000 A 
ATOM     19  O   UNL     1       4.848   3.741  17.114  0.00  0.00    +0.000 OA
ENDROOT
BRANCH   1  20
ATOM     20  C   UNL     1       5.202   6.335  16.084  0.00  0.00    +0.000 C 
BRANCH  20  22
ATOM     21  N   UNL     1       6.687   7.738  17.440  0.00  0.00    +0.000 N 
ATOM     22  C   UNL     1       6.603   6.631  16.601  0.00  0.00    +0.000 C 
ATOM     23  O   UNL     1       7.579   6.005  16.182  0.00  0.00    +0.000 OA
ATOM     24  H   UNL     1       5.845   8.262  17.685  0.00  0.00    +0.000 HD
BRANCH  21  26
ATOM     25  C   UNL     1       8.116   9.395  18.028  0.00  0.00    +0.000 C 
ATOM     26  N   UNL     1       7.914   8.125  17.899  0.00  0.00    +0.000 NA
BRANCH  25  27
ATOM     27  C   UNL     1       9.424   9.886  18.601  0.00  0.00    +0.000 C 
BRANCH  27  31
ATOM     28  C   UNL     1       9.581  14.196  19.023  0.00  0.00    +0.000 A 
ATOM     29  C   UNL     1       8.874  13.608  17.974  0.00  0.00    +0.000 A 
ATOM     30  C   UNL     1       8.833  12.218  17.831  0.00  0.00    +0.000 A 
ATOM     31  C   UNL     1       9.521  11.388  18.727  0.00  0.00    +0.000 A 
ATOM     32  C   UNL     1      10.239  11.984  19.773  0.00  0.00    +0.000 A 
ATOM     33  C   UNL     1      10.272  13.380  19.917  0.00  0.00    +0.000 A 
BRANCH  28  35
ATOM     34  C   UNL     1       8.787  16.187  18.017  0.00  0.00    +0.000 C 
ATOM     35  O   UNL     1       9.542  15.564  19.050  0.00  0.00    +0.000 OA
ENDBRANCH  28  35
ENDBRANCH  27  31
ENDBRANCH  25  27
ENDBRANCH  21  26
ENDBRANCH  20  22
ENDBRANCH   1  20
TORSDOF 6
ENDMDL
MODEL 3
REMARK VINA RESULT:      -8.2      1.733      2.121
REMARK  Name = 
REMARK  7 active torsions:
REMARK  status: ('A' for Active; 'I' for Inactive)
REMARK    1  A    between atoms: C_1  and  O_2
REMARK    2  A    between atoms: O_2  and  C_3
REMARK    3  A    between atoms: C_6  and  C_7
REMARK    4  A    between atoms: C_7  and  C_8
REMARK    5  A    between atoms: N_9  and  N_10
REMARK    6  A    between atoms: C_11  and  C_13
REMARK    7  A    between atoms: C_13  and  N_14
REMARK                            x       y       z     vdW  Elec       q    Type
REMARK                         _______ _______ _______ _____ _____    ______ ____
ROOT
ATOM      1  N   UNL     1       4.635   4.059  19.001  0.00  0.00    +0.000 N 
ATOM      2  N   UNL     1       3.839   5.178  18.968  0.00  0.00    +0.000 NA
ATOM      3  C   UNL     1       2.814   5.273  19.777  0.00  0.00    +0.000 A 
ATOM      4  N   UNL     1       2.020   6.405  19.707  0.00  0.00    +0.000 N 
ATOM      5  C   UNL     1       1.268   6.977  20.843  0.00  0.00    +0.000 C 
ATOM      6  C   UNL     1       1.512   8.504  20.983  0.00  0.00    +0.000 C 
ATOM      7  N   UNL     1       1.264   9.130  19.687  0.00  0.00    +0.000 N 
ATOM      8  C   UNL     1       0.486  10.253  19.566  0.00  0.00    +0.000 A 
ATOM      9  C   UNL     1      -0.227  10.491  18.389  0.00  0.00    +0.000 A 
ATOM     10  C   UNL     1      -1.022  11.627  18.265  0.00  0.00    +0.000 A 
ATOM     11  C   UNL     1      -1.087  12.518  19.320  0.00  0.00    +0.000 A 
ATOM     12  C   UNL     1      -0.372  12.212  20.463  0.00  0.00    +0.000 A 
ATOM     13  N   UNL     1       0.386  11.098  20.612  0.00  0.00    +0.000 NA
ATOM     14  C   UNL     1       2.113   8.633  18.602  0.00  0.00    +0.000 C 
ATOM     15  C   UNL     1       1.850   7.130  18.427  0.00  0.00    +0.000 C 
ATOM     16  C   UNL     1       2.505   4.187  20.745  0.00  0.00    +0.000 A 
ATOM     17  C   UNL     1       3.246   3.080  20.722  0.00  0.00    +0.000 A 
ATOM     18  C   UNL     1       4.365   2.951  19.777  0.00  0.00    +0.000 A 
ATOM     19  O   UNL     1       4.999   1.897  19.709  0.00  0.00    +0.000 OA
ENDROOT
BRANCH   1  20
ATOM     20  C   UNL     1       5.873   4.127  18.233  0.00  0.00    +0.000 C 
BRANCH  20  22
ATOM     21  N   UNL     1       6.847   6.376  18.171  0.00  0.00    +0.000 N 
ATOM     22  C   UNL     1       6.087   5.436  17.484  0.00  0.00    +0.000 C 
ATOM     23  O   UNL     1       5.505   5.660  16.420  0.00  0.00    +0.000 OA
ATOM     24  H   UNL     1       7.235   6.152  19.089  0.00  0.00    +0.000 HD
BRANCH  21  26
ATOM     25  C   UNL     1       8.030   8.305  18.053  0.00  0.00    +0.000 C 
ATOM     26  N   UNL     1       7.035   7.608  17.612  0.00  0.00    +0.000 NA
BRANCH  25  27
ATOM     27  C   UNL     1       8.336   9.644  17.423  0.00  0.00    +0.000 C 
BRANCH  27  31
ATOM     28  C   UNL     1      10.193  12.500  20.101  0.00  0.00    +0.000 A 
ATOM     29  C   UNL     1       9.893  12.849  18.785  0.00  0.00    +0.000 A 
ATOM     30  C   UNL     1       9.304  11.923  17.917  0.00  0.00    +0.000 A 
ATOM     31  C   UNL     1       9.025  10.620  18.348  0.00  0.00    +0.000 A 
ATOM     32  C   UNL     1       9.340  10.270  19.669  0.00  0.00    +0.000 A 
ATOM     33  C   UNL     1       9.923  11.204  20.539  0.00  0.00    +0.000 A 
BRANCH  28  35
ATOM     34  C   UNL     1       9.872  14.459  21.392  0.00  0.00    +0.000 C 
ATOM     35  O   UNL     1      10.766  13.496  20.846  0.00  0.00    +0.000 OA
ENDBRANCH  28  35
ENDBRANCH  27  31
ENDBRANCH  25  27
ENDBRANCH  21  26
ENDBRANCH  20  22
ENDBRANCH   1  20
TORSDOF 6
ENDMDL
MODEL 4
REMARK VINA RESULT:      -8.1      1.024      1.106
REMARK  Name = 
REMARK  7 active torsions:
REMARK  status: ('A' for Active; 'I' for Inactive)
REMARK    1  A    between atoms: C_1  and  O_2
REMARK    2  A    between atoms: O_2  and  C_3
REMARK    3  A    between atoms: C_6  and  C_7
REMARK    4  A    between atoms: C_7  and  C_8
REMARK    5  A    between atoms: N_9  and  N_10
REMARK    6  A    between atoms: C_11  and  C_13
REMARK    7  A    between atoms: C_13  and  N_14
REMARK                            x       y       z     vdW  Elec       q    Type
REMARK                         _______ _______ _______ _____ _____    ______ ____
ROOT
ATOM      1  N   UNL     1       4.034   5.938  17.700  0.00  0.00    +0.000 N 
ATOM      2  N   UNL     1       3.279   7.016  18.096  0.00  0.00    +0.000 NA
ATOM      3  C   UNL     1       2.412   6.882  19.067  0.00  0.00    +0.000 A 
ATOM      4  N   UNL     1       1.655   7.982  19.432  0.00  0.00    +0.000 N 
ATOM      5  C   UNL     1       1.127   8.228  20.790  0.00  0.00    +0.000 C 
ATOM      6  C   UNL     1       1.439   9.670  21.275  0.00  0.00    +0.000 C 
ATOM      7  N   UNL     1       0.992  10.608  20.248  0.00  0.00    +0.000 N 
ATOM      8  C   UNL     1       0.242  11.712  20.559  0.00  0.00    +0.000 A 
ATOM      9  C   UNL     1      -0.655  12.238  19.626  0.00  0.00    +0.000 A 
ATOM     10  C   UNL     1      -1.423  13.356  19.940  0.00  0.00    +0.000 A 
ATOM     11  C   UNL     1      -1.278  13.941  21.184  0.00  0.00    +0.000 A 
ATOM     12  C   UNL     1      -0.387  13.358  22.067  0.00  0.00    +0.000 A 
ATOM     13  N   UNL     1       0.349  12.255  21.789  0.00  0.00    +0.000 NA
ATOM     14  C   UNL     1       1.627  10.422  18.942  0.00  0.00    +0.000 C 
ATOM     15  C   UNL     1       1.291   9.013  18.432  0.00  0.00    +0.000 C 
ATOM     16  C   UNL     1       2.240   5.578  19.760  0.00  0.00    +0.000 A 
ATOM     17  C   UNL     1       2.930   4.526  19.323  0.00  0.00    +0.000 A 
ATOM     18  C   UNL     1       3.866   4.663  18.198  0.00  0.00    +0.000 A 
ATOM     19  O   UNL     1       4.445   3.672  17.751  0.00  0.00    +0.000 OA
ENDROOT
BRANCH   1  20
ATOM     20  C   UNL     1       5.123   6.221  16.773  0.00  0.00    +0.000 C 
BRANCH  20  22
ATOM     21  N   UNL     1       6.949   7.851  16.924  0.00  0.00    +0.000 N 
ATOM     22  C   UNL     1       6.421   6.668  17.431  0.00  0.00    +0.000 C 
ATOM     23  O   UNL     1       7.000   5.946  18.247  0.00  0.00    +0.000 OA
ATOM     24  H   UNL     1       6.455   8.361  16.189  0.00  0.00    +0.000 HD
BRANCH  21  26
ATOM     25  C   UNL     1       8.120   9.321  18.189  0.00  0.00    +0.000 C 
ATOM     26  N   UNL     1       8.148   8.296  17.402  0.00  0.00    +0.000 NA
BRANCH  25  27
ATOM     27  C   UNL     1       9.405   9.816  18.811  0.00  0.00    +0.000 C 
BRANCH  27  31
ATOM     28  C   UNL     1      10.224  14.017  18.133  0.00  0.00    +0.000 A 
ATOM     29  C   UNL     1      11.115  13.225  18.856  0.00  0.00    +0.000 A 
ATOM     30  C   UNL     1      10.845  11.873  19.085  0.00  0.00    +0.000 A 
ATOM     31  C   UNL     1       9.662  11.291  18.610  0.00  0.00    +0.000 A 
ATOM     32  C   UNL     1       8.764  12.094  17.893  0.00  0.00    +0.000 A 
ATOM     33  C   UNL     1       9.042  13.449  17.659  0.00  0.00    +0.000 A 
BRANCH  28  35
ATOM     34  C   UNL     1       9.808  16.288  18.656  0.00  0.00    +0.000 C 
ATOM     35  O   UNL     1      10.605  15.323  17.979  0.00  0.00    +0.000 OA
ENDBRANCH  28  35
ENDBRANCH  27  31
ENDBRANCH  25  27
ENDBRANCH  21  26
ENDBRANCH  20  22
ENDBRANCH   1  20
TORSDOF 6
ENDMDL
MODEL 5
REMARK VINA RESULT:      -8.1      1.349      1.546
REMARK  Name = 
REMARK  7 active torsions:
REMARK  status: ('A' for Active; 'I' for Inactive)
REMARK    1  A    between atoms: C_1  and  O_2
REMARK    2  A    between atoms: O_2  and  C_3
REMARK    3  A    between atoms: C_6  and  C_7
REMARK    4  A    between atoms: C_7  and  C_8
REMARK    5  A    between atoms: N_9  and  N_10
REMARK    6  A    between atoms: C_11  and  C_13
REMARK    7  A    between atoms: C_13  and  N_14
REMARK                            x       y       z     vdW  Elec       q    Type
REMARK                         _______ _______ _______ _____ _____    ______ ____
ROOT
ATOM      1  N   UNL     1       5.802   6.073  17.791  0.00  0.00    +0.000 N 
ATOM      2  N   UNL     1       4.677   6.851  17.924  0.00  0.00    +0.000 NA
ATOM      3  C   UNL     1       3.711   6.467  18.719  0.00  0.00    +0.000 A 
ATOM      4  N   UNL     1       2.583   7.263  18.820  0.00  0.00    +0.000 N 
ATOM      5  C   UNL     1       1.726   7.363  20.019  0.00  0.00    +0.000 C 
ATOM      6  C   UNL     1       1.451   8.841  20.408  0.00  0.00    +0.000 C 
ATOM      7  N   UNL     1       0.959   9.544  19.225  0.00  0.00    +0.000 N 
ATOM      8  C   UNL     1      -0.152  10.344  19.273  0.00  0.00    +0.000 A 
ATOM      9  C   UNL     1      -0.948  10.511  18.137  0.00  0.00    +0.000 A 
ATOM     10  C   UNL     1      -2.082  11.319  18.184  0.00  0.00    +0.000 A 
ATOM     11  C   UNL     1      -2.400  11.959  19.368  0.00  0.00    +0.000 A 
ATOM     12  C   UNL     1      -1.581  11.734  20.459  0.00  0.00    +0.000 A 
ATOM     13  N   UNL     1      -0.490  10.931  20.440  0.00  0.00    +0.000 NA
ATOM     14  C   UNL     1       1.884   9.538  18.089  0.00  0.00    +0.000 C 
ATOM     15  C   UNL     1       2.132   8.081  17.670  0.00  0.00    +0.000 C 
ATOM     16  C   UNL     1       3.819   5.203  19.495  0.00  0.00    +0.000 A 
ATOM     17  C   UNL     1       4.886   4.426  19.306  0.00  0.00    +0.000 A 
ATOM     18  C   UNL     1       5.947   4.831  18.373  0.00  0.00    +0.000 A 
ATOM     19  O   UNL     1       6.894   4.076  18.147  0.00  0.00    +0.000 OA
ENDROOT
BRANCH   1  20
ATOM     20  C   UNL     1       6.916   6.673  17.065  0.00  0.00    +0.000 C 
BRANCH  20  22
ATOM     21  N   UNL     1       7.709   8.973  17.372  0.00  0.00    +0.000 N 
ATOM     22  C   UNL     1       7.735   7.674  17.869  0.00  0.00    +0.000 C 
ATOM     23  O   UNL     1       8.459   7.302  18.796  0.00  0.00    +0.000 OA
ATOM     24  H   UNL     1       7.148   9.197  16.548  0.00  0.00    +0.000 HD
BRANCH  21  26
ATOM     25  C   UNL     1       8.960   9.632  19.142  0.00  0.00    +0.000 C 
ATOM     26  N   UNL     1       8.470   9.928  17.984  0.00  0.00    +0.000 NA
BRANCH  25  27
ATOM     27  C   UNL     1       9.871  10.616  19.837  0.00  0.00    +0.000 C 
BRANCH  27  31
ATOM     28  C   UNL     1      10.797  14.048  17.359  0.00  0.00    +0.000 A 
ATOM     29  C   UNL     1      11.524  12.864  17.237  0.00  0.00    +0.000 A 
ATOM     30  C   UNL     1      11.233  11.761  18.045  0.00  0.00    +0.000 A 
ATOM     31  C   UNL     1      10.219  11.831  19.009  0.00  0.00    +0.000 A 
ATOM     32  C   UNL     1       9.498  13.027  19.136  0.00  0.00    +0.000 A 
ATOM     33  C   UNL     1       9.788  14.129  18.318  0.00  0.00    +0.000 A 
BRANCH  28  35
ATOM     34  C   UNL     1      11.062  16.376  17.018  0.00  0.00    +0.000 C 
ATOM     35  O   UNL     1      11.180  15.052  16.511  0.00  0.00    +0.000 OA
ENDBRANCH  28  35
ENDBRANCH  27  31
ENDBRANCH  25  27
ENDBRANCH  21  26
ENDBRANCH  20  22
ENDBRANCH   1  20
TORSDOF 6
ENDMDL
MODEL 6
REMARK VINA RESULT:      -8.0      0.737      1.095
REMARK  Name = 
REMARK  7 active torsions:
REMARK  status: ('A' for Active; 'I' for Inactive)
REMARK    1  A    between atoms: C_1  and  O_2
REMARK    2  A    between atoms: O_2  and  C_3
REMARK    3  A    between atoms: C_6  and  C_7
REMARK    4  A    between atoms: C_7  and  C_8
REMARK    5  A    between atoms: N_9  and  N_10
REMARK    6  A    between atoms: C_11  and  C_13
REMARK    7  A    between atoms: C_13  and  N_14
REMARK                            x       y       z     vdW  Elec       q    Type
REMARK                         _______ _______ _______ _____ _____    ______ ____
ROOT
ATOM      1  N   UNL     1       4.746   5.634  17.073  0.00  0.00    +0.000 N 
ATOM      2  N   UNL     1       3.867   6.517  17.654  0.00  0.00    +0.000 NA
ATOM      3  C   UNL     1       2.884   6.066  18.391  0.00  0.00    +0.000 A 
ATOM      4  N   UNL     1       2.005   6.979  18.949  0.00  0.00    +0.000 N 
ATOM      5  C   UNL     1       1.275   6.778  20.218  0.00  0.00    +0.000 C 
ATOM      6  C   UNL     1       1.411   8.006  21.159  0.00  0.00    +0.000 C 
ATOM      7  N   UNL     1       1.046   9.205  20.408  0.00  0.00    +0.000 N 
ATOM      8  C   UNL     1       0.182  10.138  20.917  0.00  0.00    +0.000 A 
ATOM      9  C   UNL     1      -0.611  10.905  20.059  0.00  0.00    +0.000 A 
ATOM     10  C   UNL     1      -1.494  11.850  20.573  0.00  0.00    +0.000 A 
ATOM     11  C   UNL     1      -1.568  12.024  21.943  0.00  0.00    +0.000 A 
ATOM     12  C   UNL     1      -0.771  11.219  22.735  0.00  0.00    +0.000 A 
ATOM     13  N   UNL     1       0.075  10.275  22.255  0.00  0.00    +0.000 NA
ATOM     14  C   UNL     1       1.870   9.450  19.222  0.00  0.00    +0.000 C 
ATOM     15  C   UNL     1       1.712   8.260  18.264  0.00  0.00    +0.000 C 
ATOM     16  C   UNL     1       2.710   4.608  18.621  0.00  0.00    +0.000 A 
ATOM     17  C   UNL     1       3.529   3.760  17.999  0.00  0.00    +0.000 A 
ATOM     18  C   UNL     1       4.602   4.264  17.129  0.00  0.00    +0.000 A 
ATOM     19  O   UNL     1       5.309   3.475  16.499  0.00  0.00    +0.000 OA
ENDROOT
BRANCH   1  20
ATOM     20  C   UNL     1       5.931   6.219  16.457  0.00  0.00    +0.000 C 
BRANCH  20  22
ATOM     21  N   UNL     1       7.615   7.910  17.022  0.00  0.00    +0.000 N 
ATOM     22  C   UNL     1       6.962   6.756  17.441  0.00  0.00    +0.000 C 
ATOM     23  O   UNL     1       7.265   6.119  18.453  0.00  0.00    +0.000 OA
ATOM     24  H   UNL     1       7.368   8.345  16.130  0.00  0.00    +0.000 HD
BRANCH  21  26
ATOM     25  C   UNL     1       8.331   9.507  18.460  0.00  0.00    +0.000 C 
ATOM     26  N   UNL     1       8.607   8.428  17.804  0.00  0.00    +0.000 NA
BRANCH  25  27
ATOM     27  C   UNL     1       9.360  10.088  19.401  0.00  0.00    +0.000 C 
BRANCH  27  31
ATOM     28  C   UNL     1      10.810  14.017  18.289  0.00  0.00    +0.000 A 
ATOM     29  C   UNL     1       9.585  13.549  17.815  0.00  0.00    +0.000 A 
ATOM     30  C   UNL     1       9.122  12.277  18.164  0.00  0.00    +0.000 A 
ATOM     31  C   UNL     1       9.892  11.438  18.981  0.00  0.00    +0.000 A 
ATOM     32  C   UNL     1      11.128  11.908  19.446  0.00  0.00    +0.000 A 
ATOM     33  C   UNL     1      11.585  13.189  19.099  0.00  0.00    +0.000 A 
BRANCH  28  35
ATOM     34  C   UNL     1      12.281  15.370  17.019  0.00  0.00    +0.000 C 
ATOM     35  O   UNL     1      11.147  15.278  17.873  0.00  0.00    +0.000 OA
ENDBRANCH  28  35
ENDBRANCH  27  31
ENDBRANCH  25  27
ENDBRANCH  21  26
ENDBRANCH  20  22
ENDBRANCH   1  20
TORSDOF 6
ENDMDL
MODEL 7
REMARK VINA RESULT:      -7.8      4.718      9.452
REMARK  Name = 
REMARK  7 active torsions:
REMARK  status: ('A' for Active; 'I' for Inactive)
REMARK    1  A    between atoms: C_1  and  O_2
REMARK    2  A    between atoms: O_2  and  C_3
REMARK    3  A    between atoms: C_6  and  C_7
REMARK    4  A    between atoms: C_7  and  C_8
REMARK    5  A    between atoms: N_9  and  N_10
REMARK    6  A    between atoms: C_11  and  C_13
REMARK    7  A    between atoms: C_13  and  N_14
REMARK                            x       y       z     vdW  Elec       q    Type
REMARK                         _______ _______ _______ _____ _____    ______ ____
ROOT
ATOM      1  N   UNL     1       9.274  12.673  18.998  0.00  0.00    +0.000 N 
ATOM      2  N   UNL     1       8.770  12.557  20.272  0.00  0.00    +0.000 NA
ATOM      3  C   UNL     1       8.938  13.532  21.129  0.00  0.00    +0.000 A 
ATOM      4  N   UNL     1       8.434  13.378  22.409  0.00  0.00    +0.000 N 
ATOM      5  C   UNL     1       7.975  14.486  23.273  0.00  0.00    +0.000 C 
ATOM      6  C   UNL     1       6.575  14.200  23.879  0.00  0.00    +0.000 C 
ATOM      7  N   UNL     1       6.607  12.884  24.512  0.00  0.00    +0.000 N 
ATOM      8  C   UNL     1       6.120  12.680  25.777  0.00  0.00    +0.000 A 
ATOM      9  C   UNL     1       6.657  11.675  26.584  0.00  0.00    +0.000 A 
ATOM     10  C   UNL     1       6.169  11.469  27.872  0.00  0.00    +0.000 A 
ATOM     11  C   UNL     1       5.140  12.268  28.334  0.00  0.00    +0.000 A 
ATOM     12  C   UNL     1       4.668  13.258  27.491  0.00  0.00    +0.000 A 
ATOM     13  N   UNL     1       5.148  13.490  26.245  0.00  0.00    +0.000 NA
ATOM     14  C   UNL     1       6.941  11.784  23.604  0.00  0.00    +0.000 C 
ATOM     15  C   UNL     1       8.343  12.036  23.028  0.00  0.00    +0.000 C 
ATOM     16  C   UNL     1       9.656  14.774  20.740  0.00  0.00    +0.000 A 
ATOM     17  C   UNL     1      10.195  14.847  19.524  0.00  0.00    +0.000 A 
ATOM     18  C   UNL     1      10.053  13.730  18.578  0.00  0.00    +0.000 A 
ATOM     19  O   UNL     1      10.616  13.772  17.482  0.00  0.00    +0.000 OA
ENDROOT
BRANCH   1  20
ATOM     20  C   UNL     1       8.858  11.650  18.046  0.00  0.00    +0.000 C 
BRANCH  20  22
ATOM     21  N   UNL     1       8.223   9.287  17.875  0.00  0.00    +0.000 N 
ATOM     22  C   UNL     1       9.014  10.218  18.541  0.00  0.00    +0.000 C 
ATOM     23  O   UNL     1       9.691   9.962  19.540  0.00  0.00    +0.000 OA
ATOM     24  H   UNL     1       7.622   9.582  17.103  0.00  0.00    +0.000 HD
BRANCH  21  26
ATOM     25  C   UNL     1       7.476   7.159  17.662  0.00  0.00    +0.000 C 
ATOM     26  N   UNL     1       8.241   7.988  18.294  0.00  0.00    +0.000 NA
BRANCH  25  27
ATOM     27  C   UNL     1       7.506   5.694  18.027  0.00  0.00    +0.000 C 
BRANCH  27  31
ATOM     28  C   UNL     1       3.734   3.587  17.690  0.00  0.00    +0.000 A 
ATOM     29  C   UNL     1       4.460   3.936  16.552  0.00  0.00    +0.000 A 
ATOM     30  C   UNL     1       5.671   4.625  16.659  0.00  0.00    +0.000 A 
ATOM     31  C   UNL     1       6.168   5.000  17.914  0.00  0.00    +0.000 A 
ATOM     32  C   UNL     1       5.430   4.658  19.056  0.00  0.00    +0.000 A 
ATOM     33  C   UNL     1       4.218   3.959  18.944  0.00  0.00    +0.000 A 
BRANCH  28  35
ATOM     34  C   UNL     1       1.966   2.284  18.574  0.00  0.00    +0.000 C 
ATOM     35  O   UNL     1       2.566   2.915  17.448  0.00  0.00    +0.000 OA
ENDBRANCH  28  35
ENDBRANCH  27  31
ENDBRANCH  25  27
ENDBRANCH  21  26
ENDBRANCH  20  22
ENDBRANCH   1  20
TORSDOF 6
ENDMDL
MODEL 8
REMARK VINA RESULT:      -7.7      2.242      2.583
REMARK  Name = 
REMARK  7 active torsions:
REMARK  status: ('A' for Active; 'I' for Inactive)
REMARK    1  A    between atoms: C_1  and  O_2
REMARK    2  A    between atoms: O_2  and  C_3
REMARK    3  A    between atoms: C_6  and  C_7
REMARK    4  A    between atoms: C_7  and  C_8
REMARK    5  A    between atoms: N_9  and  N_10
REMARK    6  A    between atoms: C_11  and  C_13
REMARK    7  A    between atoms: C_13  and  N_14
REMARK                            x       y       z     vdW  Elec       q    Type
REMARK                         _______ _______ _______ _____ _____    ______ ____
ROOT
ATOM      1  N   UNL     1       5.146   6.097  17.908  0.00  0.00    +0.000 N 
ATOM      2  N   UNL     1       4.082   6.948  18.090  0.00  0.00    +0.000 NA
ATOM      3  C   UNL     1       3.167   6.665  18.982  0.00  0.00    +0.000 A 
ATOM      4  N   UNL     1       2.099   7.533  19.130  0.00  0.00    +0.000 N 
ATOM      5  C   UNL     1       1.354   7.746  20.388  0.00  0.00    +0.000 C 
ATOM      6  C   UNL     1       1.198   9.256  20.715  0.00  0.00    +0.000 C 
ATOM      7  N   UNL     1       0.649   9.927  19.540  0.00  0.00    +0.000 N 
ATOM      8  C   UNL     1      -0.407  10.796  19.634  0.00  0.00    +0.000 A 
ATOM      9  C   UNL     1      -1.285  10.955  18.560  0.00  0.00    +0.000 A 
ATOM     10  C   UNL     1      -2.363  11.833  18.654  0.00  0.00    +0.000 A 
ATOM     11  C   UNL     1      -2.542  12.549  19.823  0.00  0.00    +0.000 A 
ATOM     12  C   UNL     1      -1.648  12.330  20.854  0.00  0.00    +0.000 A 
ATOM     13  N   UNL     1      -0.610  11.461  20.790  0.00  0.00    +0.000 NA
ATOM     14  C   UNL     1       1.472   9.808  18.334  0.00  0.00    +0.000 C 
ATOM     15  C   UNL     1       1.600   8.319  17.977  0.00  0.00    +0.000 C 
ATOM     16  C   UNL     1       3.268   5.438  19.814  0.00  0.00    +0.000 A 
ATOM     17  C   UNL     1       4.268   4.588  19.582  0.00  0.00    +0.000 A 
ATOM     18  C   UNL     1       5.268   4.879  18.544  0.00  0.00    +0.000 A 
ATOM     19  O   UNL     1       6.147   4.057  18.285  0.00  0.00    +0.000 OA
ENDROOT
BRANCH   1  20
ATOM     20  C   UNL     1       6.227   6.590  17.062  0.00  0.00    +0.000 C 
BRANCH  20  22
ATOM     21  N   UNL     1       7.609   8.553  17.561  0.00  0.00    +0.000 N 
ATOM     22  C   UNL     1       7.399   7.202  17.817  0.00  0.00    +0.000 C 
ATOM     23  O   UNL     1       8.161   6.498  18.485  0.00  0.00    +0.000 OA
ATOM     24  H   UNL     1       6.983   9.060  16.932  0.00  0.00    +0.000 HD
BRANCH  21  26
ATOM     25  C   UNL     1       8.682  10.467  18.124  0.00  0.00    +0.000 C 
ATOM     26  N   UNL     1       8.679   9.175  18.137  0.00  0.00    +0.000 NA
BRANCH  25  27
ATOM     27  C   UNL     1       9.801  11.215  18.810  0.00  0.00    +0.000 C 
BRANCH  27  31
ATOM     28  C   UNL     1       8.349  13.896  21.890  0.00  0.00    +0.000 A 
ATOM     29  C   UNL     1       8.334  14.277  20.549  0.00  0.00    +0.000 A 
ATOM     30  C   UNL     1       8.813  13.417  19.556  0.00  0.00    +0.000 A 
ATOM     31  C   UNL     1       9.339  12.162  19.893  0.00  0.00    +0.000 A 
ATOM     32  C   UNL     1       9.363  11.788  21.244  0.00  0.00    +0.000 A 
ATOM     33  C   UNL     1       8.874  12.651  22.236  0.00  0.00    +0.000 A 
BRANCH  28  35
ATOM     34  C   UNL     1       6.715  14.430  23.518  0.00  0.00    +0.000 C 
ATOM     35  O   UNL     1       7.853  14.828  22.762  0.00  0.00    +0.000 OA
ENDBRANCH  28  35
ENDBRANCH  27  31
ENDBRANCH  25  27
ENDBRANCH  21  26
ENDBRANCH  20  22
ENDBRANCH   1  20
TORSDOF 6
ENDMDL
MODEL 9
REMARK VINA RESULT:      -7.7      4.723      9.342
REMARK  Name = 
REMARK  7 active torsions:
REMARK  status: ('A' for Active; 'I' for Inactive)
REMARK    1  A    between atoms: C_1  and  O_2
REMARK    2  A    between atoms: O_2  and  C_3
REMARK    3  A    between atoms: C_6  and  C_7
REMARK    4  A    between atoms: C_7  and  C_8
REMARK    5  A    between atoms: N_9  and  N_10
REMARK    6  A    between atoms: C_11  and  C_13
REMARK    7  A    between atoms: C_13  and  N_14
REMARK                            x       y       z     vdW  Elec       q    Type
REMARK                         _______ _______ _______ _____ _____    ______ ____
ROOT
ATOM      1  N   UNL     1       9.318  13.393  19.011  0.00  0.00    +0.000 N 
ATOM      2  N   UNL     1       8.805  13.082  20.248  0.00  0.00    +0.000 NA
ATOM      3  C   UNL     1       8.896  13.947  21.227  0.00  0.00    +0.000 A 
ATOM      4  N   UNL     1       8.386  13.598  22.465  0.00  0.00    +0.000 N 
ATOM      5  C   UNL     1       7.844  14.555  23.452  0.00  0.00    +0.000 C 
ATOM      6  C   UNL     1       6.456  14.106  23.986  0.00  0.00    +0.000 C 
ATOM      7  N   UNL     1       6.566  12.723  24.446  0.00  0.00    +0.000 N 
ATOM      8  C   UNL     1       6.075  12.328  25.663  0.00  0.00    +0.000 A 
ATOM      9  C   UNL     1       6.665  11.263  26.347  0.00  0.00    +0.000 A 
ATOM     10  C   UNL     1       6.173  10.862  27.587  0.00  0.00    +0.000 A 
ATOM     11  C   UNL     1       5.088  11.529  28.124  0.00  0.00    +0.000 A 
ATOM     12  C   UNL     1       4.565  12.588  27.404  0.00  0.00    +0.000 A 
ATOM     13  N   UNL     1       5.046  13.008  26.210  0.00  0.00    +0.000 NA
ATOM     14  C   UNL     1       6.984  11.773  23.413  0.00  0.00    +0.000 C 
ATOM     15  C   UNL     1       8.374  12.184  22.906  0.00  0.00    +0.000 C 
ATOM     16  C   UNL     1       9.537  15.272  21.016  0.00  0.00    +0.000 A 
ATOM     17  C   UNL     1      10.088  15.534  19.831  0.00  0.00    +0.000 A 
ATOM     18  C   UNL     1      10.033  14.542  18.747  0.00  0.00    +0.000 A 
ATOM     19  O   UNL     1      10.607  14.761  17.679  0.00  0.00    +0.000 OA
ENDROOT
BRANCH   1  20
ATOM     20  C   UNL     1       8.983  12.477  17.928  0.00  0.00    +0.000 C 
BRANCH  20  22
ATOM     21  N   UNL     1       8.155  10.169  17.868  0.00  0.00    +0.000 N 
ATOM     22  C   UNL     1       9.201  11.004  18.248  0.00  0.00    +0.000 C 
ATOM     23  O   UNL     1      10.173  10.636  18.913  0.00  0.00    +0.000 OA
ATOM     24  H   UNL     1       7.339  10.553  17.388  0.00  0.00    +0.000 HD
BRANCH  21  26
ATOM     25  C   UNL     1       7.453   8.044  17.514  0.00  0.00    +0.000 C 
ATOM     26  N   UNL     1       8.227   8.841  18.176  0.00  0.00    +0.000 NA
BRANCH  25  27
ATOM     27  C   UNL     1       7.538   6.555  17.755  0.00  0.00    +0.000 C 
BRANCH  27  31
ATOM     28  C   UNL     1       3.687   4.717  18.510  0.00  0.00    +0.000 A 
ATOM     29  C   UNL     1       4.824   4.301  19.204  0.00  0.00    +0.000 A 
ATOM     30  C   UNL     1       6.068   4.886  18.952  0.00  0.00    +0.000 A 
ATOM     31  C   UNL     1       6.201   5.887  17.981  0.00  0.00    +0.000 A 
ATOM     32  C   UNL     1       5.059   6.294  17.278  0.00  0.00    +0.000 A 
ATOM     33  C   UNL     1       3.810   5.710  17.539  0.00  0.00    +0.000 A 
BRANCH  28  35
ATOM     34  C   UNL     1       2.668   3.005  19.790  0.00  0.00    +0.000 C 
ATOM     35  O   UNL     1       2.532   4.065  18.850  0.00  0.00    +0.000 OA
ENDBRANCH  28  35
ENDBRANCH  27  31
ENDBRANCH  25  27
ENDBRANCH  21  26
ENDBRANCH  20  22
ENDBRANCH   1  20
TORSDOF 6
ENDMDL
