MODEL 1
REMARK VINA RESULT:      -8.1      0.000      0.000
REMARK  Name = 
REMARK  3 active torsions:
REMARK  status: ('A' for Active; 'I' for Inactive)
REMARK    1  A    between atoms: C_4  and  C_5
REMARK    2  A    between atoms: N_16  and  C_17
REMARK    3  A    between atoms: C_17  and  C_18
REMARK                            x       y       z     vdW  Elec       q    Type
REMARK                         _______ _______ _______ _____ _____    ______ ____
ROOT
ATOM      1  O   UNL     1       2.006   9.860  17.383  0.00  0.00    +0.000 OA
ATOM      2  C   UNL     1       1.759   9.308  18.442  0.00  0.00    +0.000 C 
ATOM      3  C   UNL     1       2.230   7.956  18.843  0.00  0.00    +0.000 C 
ATOM      4  C   UNL     1       3.005   7.209  18.044  0.00  0.00    +0.000 C 
ATOM      5  C   UNL     1       1.673   7.628  20.193  0.00  0.00    +0.000 C 
ATOM      6  C   UNL     1       1.073   8.947  20.662  0.00  0.00    +0.000 C 
ATOM      7  N   UNL     1       1.007   9.789  19.492  0.00  0.00    +0.000 N 
ENDROOT
BRANCH   4   8
ATOM      8  C   UNL     1       3.409   5.848  18.390  0.00  0.00    +0.000 A 
ATOM      9  C   UNL     1       4.633   5.640  19.063  0.00  0.00    +0.000 A 
ATOM     10  C   UNL     1       5.073   4.348  19.367  0.00  0.00    +0.000 A 
ATOM     11  C   UNL     1       4.274   3.294  18.982  0.00  0.00    +0.000 A 
ATOM     12  C   UNL     1       3.077   3.492  18.331  0.00  0.00    +0.000 A 
ATOM     13  C   UNL     1       2.614   4.754  18.024  0.00  0.00    +0.000 A 
ATOM     14  O   UNL     1       2.449   2.322  18.038  0.00  0.00    +0.000 OA
ATOM     15  C   UNL     1       3.401   1.366  18.550  0.00  0.00    +0.000 C 
ATOM     16  O   UNL     1       4.547   1.977  19.176  0.00  0.00    +0.000 OA
ENDBRANCH   4   8
BRANCH   7  17
ATOM     17  C   UNL     1       0.450  11.126  19.525  0.00  0.00    +0.000 C 
BRANCH  17  18
ATOM     18  C   UNL     1      -0.983  11.191  19.055  0.00  0.00    +0.000 A 
ATOM     19  C   UNL     1      -1.864  12.144  19.596  0.00  0.00    +0.000 A 
ATOM     20  C   UNL     1      -3.217  12.155  19.239  0.00  0.00    +0.000 A 
ATOM     21  C   UNL     1      -3.701  11.226  18.321  0.00  0.00    +0.000 A 
ATOM     22  C   UNL     1      -2.824  10.309  17.754  0.00  0.00    +0.000 A 
ATOM     23  F   UNL     1      -3.286   9.420  16.865  0.00  0.00    +0.000 F 
ATOM     24  C   UNL     1      -1.477  10.284  18.108  0.00  0.00    +0.000 A 
ENDBRANCH  17  18
ENDBRANCH   7  17
TORSDOF 3
ENDMDL
MODEL 2
REMARK VINA RESULT:      -8.0      6.047      8.869
REMARK  Name = 
REMARK  3 active torsions:
REMARK  status: ('A' for Active; 'I' for Inactive)
REMARK    1  A    between atoms: C_4  and  C_5
REMARK    2  A    between atoms: N_16  and  C_17
REMARK    3  A    between atoms: C_17  and  C_18
REMARK                            x       y       z     vdW  Elec       q    Type
REMARK                         _______ _______ _______ _____ _____    ______ ____
ROOT
ATOM      1  O   UNL     1       6.046   7.439  16.443  0.00  0.00    +0.000 OA
ATOM      2  C   UNL     1       6.789   7.072  17.337  0.00  0.00    +0.000 C 
ATOM      3  C   UNL     1       7.777   7.927  18.048  0.00  0.00    +0.000 C 
ATOM      4  C   UNL     1       7.927   9.227  17.757  0.00  0.00    +0.000 C 
ATOM      5  C   UNL     1       8.520   7.089  19.041  0.00  0.00    +0.000 C 
ATOM      6  C   UNL     1       7.746   5.777  19.052  0.00  0.00    +0.000 C 
ATOM      7  N   UNL     1       6.892   5.813  17.889  0.00  0.00    +0.000 N 
ENDROOT
BRANCH   4   8
ATOM      8  C   UNL     1       8.947  10.060  18.391  0.00  0.00    +0.000 A 
ATOM      9  C   UNL     1       8.958  10.191  19.796  0.00  0.00    +0.000 A 
ATOM     10  C   UNL     1       9.891  11.018  20.431  0.00  0.00    +0.000 A 
ATOM     11  C   UNL     1      10.787  11.699  19.637  0.00  0.00    +0.000 A 
ATOM     12  C   UNL     1      10.784  11.570  18.267  0.00  0.00    +0.000 A 
ATOM     13  C   UNL     1       9.881  10.757  17.612  0.00  0.00    +0.000 A 
ATOM     14  O   UNL     1      11.744  12.328  17.674  0.00  0.00    +0.000 OA
ATOM     15  C   UNL     1      12.331  12.973  18.825  0.00  0.00    +0.000 C 
ATOM     16  O   UNL     1      11.746  12.556  20.075  0.00  0.00    +0.000 OA
ENDBRANCH   4   8
BRANCH   7  17
ATOM     17  C   UNL     1       6.020   4.714  17.529  0.00  0.00    +0.000 C 
BRANCH  17  18
ATOM     18  C   UNL     1       4.634   4.831  18.116  0.00  0.00    +0.000 A 
ATOM     19  C   UNL     1       4.463   5.183  19.467  0.00  0.00    +0.000 A 
ATOM     20  C   UNL     1       3.189   5.202  20.047  0.00  0.00    +0.000 A 
ATOM     21  C   UNL     1       2.071   4.892  19.279  0.00  0.00    +0.000 A 
ATOM     22  C   UNL     1       2.233   4.584  17.934  0.00  0.00    +0.000 A 
ATOM     23  F   UNL     1       1.157   4.292  17.191  0.00  0.00    +0.000 F 
ATOM     24  C   UNL     1       3.496   4.553  17.347  0.00  0.00    +0.000 A 
ENDBRANCH  17  18
ENDBRANCH   7  17
TORSDOF 3
ENDMDL
MODEL 3
REMARK VINA RESULT:      -8.0      0.977      1.384
REMARK  Name = 
REMARK  3 active torsions:
REMARK  status: ('A' for Active; 'I' for Inactive)
REMARK    1  A    between atoms: C_4  and  C_5
REMARK    2  A    between atoms: N_16  and  C_17
REMARK    3  A    between atoms: C_17  and  C_18
REMARK                            x       y       z     vdW  Elec       q    Type
REMARK                         _______ _______ _______ _____ _____    ______ ____
ROOT
ATOM      1  O   UNL     1       2.041   9.827  17.338  0.00  0.00    +0.000 OA
ATOM      2  C   UNL     1       1.786   9.278  18.397  0.00  0.00    +0.000 C 
ATOM      3  C   UNL     1       2.246   7.923  18.803  0.00  0.00    +0.000 C 
ATOM      4  C   UNL     1       3.018   7.170  18.008  0.00  0.00    +0.000 C 
ATOM      5  C   UNL     1       1.681   7.603  20.152  0.00  0.00    +0.000 C 
ATOM      6  C   UNL     1       1.089   8.927  20.616  0.00  0.00    +0.000 C 
ATOM      7  N   UNL     1       1.033   9.766  19.443  0.00  0.00    +0.000 N 
ENDROOT
BRANCH   4   8
ATOM      8  C   UNL     1       3.412   5.806  18.359  0.00  0.00    +0.000 A 
ATOM      9  C   UNL     1       4.612   5.595  19.071  0.00  0.00    +0.000 A 
ATOM     10  C   UNL     1       5.042   4.300  19.381  0.00  0.00    +0.000 A 
ATOM     11  C   UNL     1       4.257   3.249  18.962  0.00  0.00    +0.000 A 
ATOM     12  C   UNL     1       3.083   3.450  18.273  0.00  0.00    +0.000 A 
ATOM     13  C   UNL     1       2.630   4.715  17.959  0.00  0.00    +0.000 A 
ATOM     14  O   UNL     1       2.466   2.283  17.952  0.00  0.00    +0.000 OA
ATOM     15  C   UNL     1       3.400   1.323  18.489  0.00  0.00    +0.000 C 
ATOM     16  O   UNL     1       4.525   1.930  19.157  0.00  0.00    +0.000 OA
ENDBRANCH   4   8
BRANCH   7  17
ATOM     17  C   UNL     1       0.487  11.108  19.471  0.00  0.00    +0.000 C 
BRANCH  17  18
ATOM     18  C   UNL     1      -0.973  11.169  19.090  0.00  0.00    +0.000 A 
ATOM     19  C   UNL     1      -1.467  10.370  18.044  0.00  0.00    +0.000 A 
ATOM     20  C   UNL     1      -2.795  10.486  17.618  0.00  0.00    +0.000 A 
ATOM     21  C   UNL     1      -3.651  11.385  18.248  0.00  0.00    +0.000 A 
ATOM     22  C   UNL     1      -3.176  12.147  19.310  0.00  0.00    +0.000 A 
ATOM     23  F   UNL     1      -4.000  13.007  19.922  0.00  0.00    +0.000 F 
ATOM     24  C   UNL     1      -1.854  12.046  19.736  0.00  0.00    +0.000 A 
ENDBRANCH  17  18
ENDBRANCH   7  17
TORSDOF 3
ENDMDL
MODEL 4
REMARK VINA RESULT:      -7.9      4.766      8.883
REMARK  Name = 
REMARK  3 active torsions:
REMARK  status: ('A' for Active; 'I' for Inactive)
REMARK    1  A    between atoms: C_4  and  C_5
REMARK    2  A    between atoms: N_16  and  C_17
REMARK    3  A    between atoms: C_17  and  C_18
REMARK                            x       y       z     vdW  Elec       q    Type
REMARK                         _______ _______ _______ _____ _____    ______ ____
ROOT
ATOM      1  O   UNL     1       3.768   3.838  16.959  0.00  0.00    +0.000 OA
ATOM      2  C   UNL     1       4.362   4.899  17.050  0.00  0.00    +0.000 C 
ATOM      3  C   UNL     1       3.823   6.144  17.658  0.00  0.00    +0.000 C 
ATOM      4  C   UNL     1       2.592   6.199  18.187  0.00  0.00    +0.000 C 
ATOM      5  C   UNL     1       4.845   7.230  17.531  0.00  0.00    +0.000 C 
ATOM      6  C   UNL     1       6.091   6.493  17.056  0.00  0.00    +0.000 C 
ATOM      7  N   UNL     1       5.639   5.192  16.624  0.00  0.00    +0.000 N 
ENDROOT
BRANCH   4   8
ATOM      8  C   UNL     1       2.019   7.435  18.716  0.00  0.00    +0.000 A 
ATOM      9  C   UNL     1       1.731   8.497  17.831  0.00  0.00    +0.000 A 
ATOM     10  C   UNL     1       1.227   9.711  18.310  0.00  0.00    +0.000 A 
ATOM     11  C   UNL     1       1.029   9.830  19.668  0.00  0.00    +0.000 A 
ATOM     12  C   UNL     1       1.302   8.795  20.533  0.00  0.00    +0.000 A 
ATOM     13  C   UNL     1       1.794   7.585  20.091  0.00  0.00    +0.000 A 
ATOM     14  O   UNL     1       1.042   9.121  21.827  0.00  0.00    +0.000 OA
ATOM     15  C   UNL     1       0.603  10.488  21.681  0.00  0.00    +0.000 C 
ATOM     16  O   UNL     1       0.565  10.934  20.310  0.00  0.00    +0.000 OA
ENDBRANCH   4   8
BRANCH   7  17
ATOM     17  C   UNL     1       6.537   4.204  16.062  0.00  0.00    +0.000 C 
BRANCH  17  18
ATOM     18  C   UNL     1       6.693   4.317  14.564  0.00  0.00    +0.000 A 
ATOM     19  C   UNL     1       6.015   3.428  13.712  0.00  0.00    +0.000 A 
ATOM     20  C   UNL     1       6.224   3.461  12.328  0.00  0.00    +0.000 A 
ATOM     21  C   UNL     1       7.096   4.398  11.779  0.00  0.00    +0.000 A 
ATOM     22  C   UNL     1       7.735   5.305  12.616  0.00  0.00    +0.000 A 
ATOM     23  F   UNL     1       8.567   6.213  12.089  0.00  0.00    +0.000 F 
ATOM     24  C   UNL     1       7.541   5.276  13.996  0.00  0.00    +0.000 A 
ENDBRANCH  17  18
ENDBRANCH   7  17
TORSDOF 3
ENDMDL
MODEL 5
REMARK VINA RESULT:      -7.9      6.171      9.021
REMARK  Name = 
REMARK  3 active torsions:
REMARK  status: ('A' for Active; 'I' for Inactive)
REMARK    1  A    between atoms: C_4  and  C_5
REMARK    2  A    between atoms: N_16  and  C_17
REMARK    3  A    between atoms: C_17  and  C_18
REMARK                            x       y       z     vdW  Elec       q    Type
REMARK                         _______ _______ _______ _____ _____    ______ ____
ROOT
ATOM      1  O   UNL     1       6.160   7.322  16.289  0.00  0.00    +0.000 OA
ATOM      2  C   UNL     1       6.838   6.977  17.242  0.00  0.00    +0.000 C 
ATOM      3  C   UNL     1       7.773   7.850  18.001  0.00  0.00    +0.000 C 
ATOM      4  C   UNL     1       7.943   9.143  17.692  0.00  0.00    +0.000 C 
ATOM      5  C   UNL     1       8.444   7.036  19.063  0.00  0.00    +0.000 C 
ATOM      6  C   UNL     1       7.671   5.724  19.049  0.00  0.00    +0.000 C 
ATOM      7  N   UNL     1       6.902   5.732  17.828  0.00  0.00    +0.000 N 
ENDROOT
BRANCH   4   8
ATOM      8  C   UNL     1       8.915   9.993  18.377  0.00  0.00    +0.000 A 
ATOM      9  C   UNL     1       8.874  10.096  19.784  0.00  0.00    +0.000 A 
ATOM     10  C   UNL     1       9.758  10.937  20.467  0.00  0.00    +0.000 A 
ATOM     11  C   UNL     1      10.661  11.659  19.718  0.00  0.00    +0.000 A 
ATOM     12  C   UNL     1      10.709  11.557  18.346  0.00  0.00    +0.000 A 
ATOM     13  C   UNL     1       9.854  10.732  17.646  0.00  0.00    +0.000 A 
ATOM     14  O   UNL     1      11.666  12.355  17.803  0.00  0.00    +0.000 OA
ATOM     15  C   UNL     1      12.194  12.993  18.985  0.00  0.00    +0.000 C 
ATOM     16  O   UNL     1      11.579  12.534  20.206  0.00  0.00    +0.000 OA
ENDBRANCH   4   8
BRANCH   7  17
ATOM     17  C   UNL     1       6.058   4.623  17.433  0.00  0.00    +0.000 C 
BRANCH  17  18
ATOM     18  C   UNL     1       4.703   4.633  18.099  0.00  0.00    +0.000 A 
ATOM     19  C   UNL     1       3.667   5.435  17.589  0.00  0.00    +0.000 A 
ATOM     20  C   UNL     1       2.437   5.527  18.250  0.00  0.00    +0.000 A 
ATOM     21  C   UNL     1       2.221   4.800  19.418  0.00  0.00    +0.000 A 
ATOM     22  C   UNL     1       3.228   3.974  19.902  0.00  0.00    +0.000 A 
ATOM     23  F   UNL     1       3.019   3.267  21.021  0.00  0.00    +0.000 F 
ATOM     24  C   UNL     1       4.460   3.882  19.257  0.00  0.00    +0.000 A 
ENDBRANCH  17  18
ENDBRANCH   7  17
TORSDOF 3
ENDMDL
MODEL 6
REMARK VINA RESULT:      -7.8      0.821      1.466
REMARK  Name = 
REMARK  3 active torsions:
REMARK  status: ('A' for Active; 'I' for Inactive)
REMARK    1  A    between atoms: C_4  and  C_5
REMARK    2  A    between atoms: N_16  and  C_17
REMARK    3  A    between atoms: C_17  and  C_18
REMARK                            x       y       z     vdW  Elec       q    Type
REMARK                         _______ _______ _______ _____ _____    ______ ____
ROOT
ATOM      1  O   UNL     1       2.015   9.850  17.469  0.00  0.00    +0.000 OA
ATOM      2  C   UNL     1       1.738   9.285  18.513  0.00  0.00    +0.000 C 
ATOM      3  C   UNL     1       2.008   7.856  18.823  0.00  0.00    +0.000 C 
ATOM      4  C   UNL     1       2.614   7.043  17.946  0.00  0.00    +0.000 C 
ATOM      5  C   UNL     1       1.475   7.545  20.186  0.00  0.00    +0.000 C 
ATOM      6  C   UNL     1       1.115   8.913  20.750  0.00  0.00    +0.000 C 
ATOM      7  N   UNL     1       1.124   9.818  19.626  0.00  0.00    +0.000 N 
ENDROOT
BRANCH   4   8
ATOM      8  C   UNL     1       2.816   5.619  18.205  0.00  0.00    +0.000 A 
ATOM      9  C   UNL     1       1.825   4.697  17.802  0.00  0.00    +0.000 A 
ATOM     10  C   UNL     1       1.963   3.332  18.076  0.00  0.00    +0.000 A 
ATOM     11  C   UNL     1       3.092   2.928  18.754  0.00  0.00    +0.000 A 
ATOM     12  C   UNL     1       4.063   3.822  19.143  0.00  0.00    +0.000 A 
ATOM     13  C   UNL     1       3.958   5.172  18.882  0.00  0.00    +0.000 A 
ATOM     14  O   UNL     1       5.088   3.218  19.801  0.00  0.00    +0.000 OA
ATOM     15  C   UNL     1       4.638   1.847  19.808  0.00  0.00    +0.000 C 
ATOM     16  O   UNL     1       3.385   1.652  19.120  0.00  0.00    +0.000 OA
ENDBRANCH   4   8
BRANCH   7  17
ATOM     17  C   UNL     1       0.788  11.221  19.753  0.00  0.00    +0.000 C 
BRANCH  17  18
ATOM     18  C   UNL     1      -0.667  11.518  19.479  0.00  0.00    +0.000 A 
ATOM     19  C   UNL     1      -1.363  12.445  20.273  0.00  0.00    +0.000 A 
ATOM     20  C   UNL     1      -2.735  12.659  20.090  0.00  0.00    +0.000 A 
ATOM     21  C   UNL     1      -3.420  11.965  19.097  0.00  0.00    +0.000 A 
ATOM     22  C   UNL     1      -2.724  11.078  18.283  0.00  0.00    +0.000 A 
ATOM     23  F   UNL     1      -3.381  10.415  17.322  0.00  0.00    +0.000 F 
ATOM     24  C   UNL     1      -1.362  10.851  18.462  0.00  0.00    +0.000 A 
ENDBRANCH  17  18
ENDBRANCH   7  17
TORSDOF 3
ENDMDL
MODEL 7
REMARK VINA RESULT:      -7.8      2.187      2.677
REMARK  Name = 
REMARK  3 active torsions:
REMARK  status: ('A' for Active; 'I' for Inactive)
REMARK    1  A    between atoms: C_4  and  C_5
REMARK    2  A    between atoms: N_16  and  C_17
REMARK    3  A    between atoms: C_17  and  C_18
REMARK                            x       y       z     vdW  Elec       q    Type
REMARK                         _______ _______ _______ _____ _____    ______ ____
ROOT
ATOM      1  O   UNL     1       1.278   7.931  21.130  0.00  0.00    +0.000 OA
ATOM      2  C   UNL     1       1.505   8.354  20.009  0.00  0.00    +0.000 C 
ATOM      3  C   UNL     1       2.260   7.635  18.949  0.00  0.00    +0.000 C 
ATOM      4  C   UNL     1       2.762   6.408  19.145  0.00  0.00    +0.000 C 
ATOM      5  C   UNL     1       2.356   8.513  17.740  0.00  0.00    +0.000 C 
ATOM      6  C   UNL     1       1.409   9.663  18.057  0.00  0.00    +0.000 C 
ATOM      7  N   UNL     1       1.129   9.565  19.470  0.00  0.00    +0.000 N 
ENDROOT
BRANCH   4   8
ATOM      8  C   UNL     1       3.574   5.722  18.141  0.00  0.00    +0.000 A 
ATOM      9  C   UNL     1       3.211   4.421  17.731  0.00  0.00    +0.000 A 
ATOM     10  C   UNL     1       3.993   3.717  16.809  0.00  0.00    +0.000 A 
ATOM     11  C   UNL     1       5.123   4.337  16.324  0.00  0.00    +0.000 A 
ATOM     12  C   UNL     1       5.477   5.608  16.716  0.00  0.00    +0.000 A 
ATOM     13  C   UNL     1       4.724   6.329  17.619  0.00  0.00    +0.000 A 
ATOM     14  O   UNL     1       6.626   6.030  16.124  0.00  0.00    +0.000 OA
ATOM     15  C   UNL     1       6.971   4.869  15.339  0.00  0.00    +0.000 C 
ATOM     16  O   UNL     1       6.006   3.802  15.440  0.00  0.00    +0.000 OA
ENDBRANCH   4   8
BRANCH   7  17
ATOM     17  C   UNL     1       0.287  10.518  20.164  0.00  0.00    +0.000 C 
BRANCH  17  18
ATOM     18  C   UNL     1      -1.003  10.819  19.439  0.00  0.00    +0.000 A 
ATOM     19  C   UNL     1      -1.738  11.976  19.749  0.00  0.00    +0.000 A 
ATOM     20  C   UNL     1      -2.981  12.219  19.153  0.00  0.00    +0.000 A 
ATOM     21  C   UNL     1      -3.493  11.318  18.223  0.00  0.00    +0.000 A 
ATOM     22  C   UNL     1      -2.749  10.194  17.884  0.00  0.00    +0.000 A 
ATOM     23  F   UNL     1      -3.237   9.330  16.983  0.00  0.00    +0.000 F 
ATOM     24  C   UNL     1      -1.515   9.938  18.477  0.00  0.00    +0.000 A 
ENDBRANCH  17  18
ENDBRANCH   7  17
TORSDOF 3
ENDMDL
MODEL 8
REMARK VINA RESULT:      -7.8      4.626      8.805
REMARK  Name = 
REMARK  3 active torsions:
REMARK  status: ('A' for Active; 'I' for Inactive)
REMARK    1  A    between atoms: C_4  and  C_5
REMARK    2  A    between atoms: N_16  and  C_17
REMARK    3  A    between atoms: C_17  and  C_18
REMARK                            x       y       z     vdW  Elec       q    Type
REMARK                         _______ _______ _______ _____ _____    ______ ____
ROOT
ATOM      1  O   UNL     1       3.922   3.815  17.090  0.00  0.00    +0.000 OA
ATOM      2  C   UNL     1       4.484   4.896  17.100  0.00  0.00    +0.000 C 
ATOM      3  C   UNL     1       3.918   6.161  17.639  0.00  0.00    +0.000 C 
ATOM      4  C   UNL     1       2.697   6.213  18.190  0.00  0.00    +0.000 C 
ATOM      5  C   UNL     1       4.903   7.267  17.421  0.00  0.00    +0.000 C 
ATOM      6  C   UNL     1       6.161   6.539  16.966  0.00  0.00    +0.000 C 
ATOM      7  N   UNL     1       5.742   5.200  16.628  0.00  0.00    +0.000 N 
ENDROOT
BRANCH   4   8
ATOM      8  C   UNL     1       2.096   7.463  18.651  0.00  0.00    +0.000 A 
ATOM      9  C   UNL     1       1.803   8.477  17.713  0.00  0.00    +0.000 A 
ATOM     10  C   UNL     1       1.272   9.703  18.127  0.00  0.00    +0.000 A 
ATOM     11  C   UNL     1       1.052   9.883  19.474  0.00  0.00    +0.000 A 
ATOM     12  C   UNL     1       1.330   8.895  20.392  0.00  0.00    +0.000 A 
ATOM     13  C   UNL     1       1.849   7.674  20.015  0.00  0.00    +0.000 A 
ATOM     14  O   UNL     1       1.046   9.278  21.665  0.00  0.00    +0.000 OA
ATOM     15  C   UNL     1       0.586  10.629  21.448  0.00  0.00    +0.000 C 
ATOM     16  O   UNL     1       0.561  11.008  20.057  0.00  0.00    +0.000 OA
ENDBRANCH   4   8
BRANCH   7  17
ATOM     17  C   UNL     1       6.659   4.205  16.111  0.00  0.00    +0.000 C 
BRANCH  17  18
ATOM     18  C   UNL     1       6.783   4.227  14.606  0.00  0.00    +0.000 A 
ATOM     19  C   UNL     1       7.667   5.123  13.981  0.00  0.00    +0.000 A 
ATOM     20  C   UNL     1       7.722   5.220  12.586  0.00  0.00    +0.000 A 
ATOM     21  C   UNL     1       6.910   4.407  11.800  0.00  0.00    +0.000 A 
ATOM     22  C   UNL     1       6.064   3.492  12.416  0.00  0.00    +0.000 A 
ATOM     23  F   UNL     1       5.288   2.703  11.661  0.00  0.00    +0.000 F 
ATOM     24  C   UNL     1       5.995   3.392  13.803  0.00  0.00    +0.000 A 
ENDBRANCH  17  18
ENDBRANCH   7  17
TORSDOF 3
ENDMDL
MODEL 9
REMARK VINA RESULT:      -7.8      3.614      8.569
REMARK  Name = 
REMARK  3 active torsions:
REMARK  status: ('A' for Active; 'I' for Inactive)
REMARK    1  A    between atoms: C_4  and  C_5
REMARK    2  A    between atoms: N_16  and  C_17
REMARK    3  A    between atoms: C_17  and  C_18
REMARK                            x       y       z     vdW  Elec       q    Type
REMARK                         _______ _______ _______ _____ _____    ______ ____
ROOT
ATOM      1  O   UNL     1       2.659   5.655  20.277  0.00  0.00    +0.000 OA
ATOM      2  C   UNL     1       2.507   6.625  19.556  0.00  0.00    +0.000 C 
ATOM      3  C   UNL     1       1.759   7.861  19.912  0.00  0.00    +0.000 C 
ATOM      4  C   UNL     1       1.178   8.016  21.110  0.00  0.00    +0.000 C 
ATOM      5  C   UNL     1       1.768   8.790  18.739  0.00  0.00    +0.000 C 
ATOM      6  C   UNL     1       2.765   8.149  17.783  0.00  0.00    +0.000 C 
ATOM      7  N   UNL     1       2.976   6.808  18.273  0.00  0.00    +0.000 N 
ENDROOT
BRANCH   4   8
ATOM      8  C   UNL     1       0.374   9.189  21.446  0.00  0.00    +0.000 A 
ATOM      9  C   UNL     1       0.009   9.415  22.791  0.00  0.00    +0.000 A 
ATOM     10  C   UNL     1      -0.801  10.501  23.141  0.00  0.00    +0.000 A 
ATOM     11  C   UNL     1      -1.228  11.332  22.129  0.00  0.00    +0.000 A 
ATOM     12  C   UNL     1      -0.870  11.119  20.817  0.00  0.00    +0.000 A 
ATOM     13  C   UNL     1      -0.068  10.061  20.442  0.00  0.00    +0.000 A 
ATOM     14  O   UNL     1      -1.401  12.049  19.980  0.00  0.00    +0.000 OA
ATOM     15  C   UNL     1      -2.158  12.853  20.909  0.00  0.00    +0.000 C 
ATOM     16  O   UNL     1      -2.029  12.419  22.279  0.00  0.00    +0.000 OA
ENDBRANCH   4   8
BRANCH   7  17
ATOM     17  C   UNL     1       3.840   5.860  17.600  0.00  0.00    +0.000 C 
BRANCH  17  18
ATOM     18  C   UNL     1       5.300   6.027  17.948  0.00  0.00    +0.000 A 
ATOM     19  C   UNL     1       5.871   5.272  18.987  0.00  0.00    +0.000 A 
ATOM     20  C   UNL     1       7.197   5.484  19.383  0.00  0.00    +0.000 A 
ATOM     21  C   UNL     1       7.973   6.438  18.730  0.00  0.00    +0.000 A 
ATOM     22  C   UNL     1       7.423   7.157  17.675  0.00  0.00    +0.000 A 
ATOM     23  F   UNL     1       8.170   8.069  17.040  0.00  0.00    +0.000 F 
ATOM     24  C   UNL     1       6.102   6.960  17.278  0.00  0.00    +0.000 A 
ENDBRANCH  17  18
ENDBRANCH   7  17
TORSDOF 3
ENDMDL
