MODEL 1
REMARK VINA RESULT:      -7.7      0.000      0.000
REMARK  Name = 
REMARK  7 active torsions:
REMARK  status: ('A' for Active; 'I' for Inactive)
REMARK    1  A    between atoms: C_2  and  C_3
REMARK    2  A    between atoms: C_3  and  C_4
REMARK    3  A    between atoms: C_4  and  C_5
REMARK    4  A    between atoms: C_5  and  C_6
REMARK    5  A    between atoms: C_6  and  C_7
REMARK    6  A    between atoms: C_7  and  N_8
REMARK    7  A    between atoms: N_23  and  O_24
REMARK                            x       y       z     vdW  Elec       q    Type
REMARK                         _______ _______ _______ _____ _____    ______ ____
ROOT
ATOM      1  N   UNL     1       5.545   5.011  17.565  0.00  0.00    +0.000 N 
ATOM      2  C   UNL     1       5.226   6.330  17.240  0.00  0.00    +0.000 C 
ATOM      3  O   UNL     1       5.919   7.048  16.528  0.00  0.00    +0.000 OA
ATOM      4  C   UNL     1       3.985   6.877  17.832  0.00  0.00    +0.000 A 
ATOM      5  C   UNL     1       3.467   8.088  17.359  0.00  0.00    +0.000 A 
ATOM      6  C   UNL     1       2.315   8.623  17.930  0.00  0.00    +0.000 A 
ATOM      7  C   UNL     1       1.689   7.957  18.985  0.00  0.00    +0.000 A 
ATOM      8  C   UNL     1       2.200   6.740  19.472  0.00  0.00    +0.000 A 
ATOM      9  C   UNL     1       1.598   6.071  20.548  0.00  0.00    +0.000 A 
ATOM     10  C   UNL     1       2.117   4.865  21.021  0.00  0.00    +0.000 A 
ATOM     11  C   UNL     1       3.235   4.303  20.409  0.00  0.00    +0.000 A 
ATOM     12  C   UNL     1       3.841   4.960  19.329  0.00  0.00    +0.000 A 
ATOM     13  C   UNL     1       3.355   6.181  18.867  0.00  0.00    +0.000 A 
ATOM     14  C   UNL     1       4.995   4.323  18.647  0.00  0.00    +0.000 C 
ATOM     15  O   UNL     1       5.418   3.244  19.055  0.00  0.00    +0.000 OA
ENDROOT
BRANCH   1  16
ATOM     16  C   UNL     1       6.668   4.388  16.867  0.00  0.00    +0.000 C 
BRANCH  16  17
ATOM     17  C   UNL     1       6.237   3.745  15.551  0.00  0.00    +0.000 C 
BRANCH  17  18
ATOM     18  C   UNL     1       6.670   4.566  14.335  0.00  0.00    +0.000 C 
BRANCH  18  19
ATOM     19  C   UNL     1       5.841   4.155  13.116  0.00  0.00    +0.000 C 
BRANCH  19  20
ATOM     20  C   UNL     1       6.661   3.379  12.083  0.00  0.00    +0.000 C 
BRANCH  20  22
ATOM     21  O   UNL     1       4.717   2.148  11.271  0.00  0.00    +0.000 OA
ATOM     22  C   UNL     1       5.912   2.159  11.561  0.00  0.00    +0.000 C 
ATOM     23  N   UNL     1       6.699   1.042  11.441  0.00  0.00    +0.000 N 
ATOM     24  H   UNL     1       7.683   1.023  11.674  0.00  0.00    +0.000 HD
BRANCH  23  25
ATOM     25  O   UNL     1       6.143  -0.163  10.973  0.00  0.00    +0.000 OA
ATOM     26  H   UNL     1       5.459   0.122  10.336  0.00  0.00    +0.000 HD
ENDBRANCH  23  25
ENDBRANCH  20  22
ENDBRANCH  19  20
ENDBRANCH  18  19
ENDBRANCH  17  18
ENDBRANCH  16  17
ENDBRANCH   1  16
TORSDOF 7
ENDMDL
MODEL 2
REMARK VINA RESULT:      -7.7      4.003      8.123
REMARK  Name = 
REMARK  7 active torsions:
REMARK  status: ('A' for Active; 'I' for Inactive)
REMARK    1  A    between atoms: C_2  and  C_3
REMARK    2  A    between atoms: C_3  and  C_4
REMARK    3  A    between atoms: C_4  and  C_5
REMARK    4  A    between atoms: C_5  and  C_6
REMARK    5  A    between atoms: C_6  and  C_7
REMARK    6  A    between atoms: C_7  and  N_8
REMARK    7  A    between atoms: N_23  and  O_24
REMARK                            x       y       z     vdW  Elec       q    Type
REMARK                         _______ _______ _______ _____ _____    ______ ____
ROOT
ATOM      1  N   UNL     1       2.846   6.944  18.357  0.00  0.00    +0.000 N 
ATOM      2  C   UNL     1       2.217   6.504  19.522  0.00  0.00    +0.000 C 
ATOM      3  O   UNL     1       1.824   7.250  20.413  0.00  0.00    +0.000 OA
ATOM      4  C   UNL     1       2.056   5.042  19.677  0.00  0.00    +0.000 A 
ATOM      5  C   UNL     1       1.221   4.539  20.681  0.00  0.00    +0.000 A 
ATOM      6  C   UNL     1       1.086   3.164  20.851  0.00  0.00    +0.000 A 
ATOM      7  C   UNL     1       1.800   2.289  20.029  0.00  0.00    +0.000 A 
ATOM      8  C   UNL     1       2.646   2.781  19.018  0.00  0.00    +0.000 A 
ATOM      9  C   UNL     1       3.390   1.916  18.201  0.00  0.00    +0.000 A 
ATOM     10  C   UNL     1       4.225   2.420  17.202  0.00  0.00    +0.000 A 
ATOM     11  C   UNL     1       4.312   3.794  16.997  0.00  0.00    +0.000 A 
ATOM     12  C   UNL     1       3.568   4.666  17.804  0.00  0.00    +0.000 A 
ATOM     13  C   UNL     1       2.755   4.182  18.826  0.00  0.00    +0.000 A 
ATOM     14  C   UNL     1       3.623   6.125  17.536  0.00  0.00    +0.000 C 
ATOM     15  O   UNL     1       4.337   6.548  16.631  0.00  0.00    +0.000 OA
ENDROOT
BRANCH   1  16
ATOM     16  C   UNL     1       2.869   8.382  18.094  0.00  0.00    +0.000 C 
BRANCH  16  17
ATOM     17  C   UNL     1       1.497   8.910  17.680  0.00  0.00    +0.000 C 
BRANCH  17  18
ATOM     18  C   UNL     1       1.126  10.199  18.415  0.00  0.00    +0.000 C 
BRANCH  18  19
ATOM     19  C   UNL     1      -0.307  10.097  18.941  0.00  0.00    +0.000 C 
BRANCH  19  20
ATOM     20  C   UNL     1      -0.520  10.898  20.228  0.00  0.00    +0.000 C 
BRANCH  20  22
ATOM     21  O   UNL     1       1.451  11.700  21.422  0.00  0.00    +0.000 OA
ATOM     22  C   UNL     1       0.668  10.783  21.175  0.00  0.00    +0.000 C 
ATOM     23  N   UNL     1       0.801   9.542  21.742  0.00  0.00    +0.000 N 
ATOM     24  H   UNL     1       0.173   8.771  21.555  0.00  0.00    +0.000 HD
BRANCH  23  25
ATOM     25  O   UNL     1       1.856   9.286  22.637  0.00  0.00    +0.000 OA
ATOM     26  H   UNL     1       2.661   9.455  22.111  0.00  0.00    +0.000 HD
ENDBRANCH  23  25
ENDBRANCH  20  22
ENDBRANCH  19  20
ENDBRANCH  18  19
ENDBRANCH  17  18
ENDBRANCH  16  17
ENDBRANCH   1  16
TORSDOF 7
ENDMDL
MODEL 3
REMARK VINA RESULT:      -7.6      1.364      1.712
REMARK  Name = 
REMARK  7 active torsions:
REMARK  status: ('A' for Active; 'I' for Inactive)
REMARK    1  A    between atoms: C_2  and  C_3
REMARK    2  A    between atoms: C_3  and  C_4
REMARK    3  A    between atoms: C_4  and  C_5
REMARK    4  A    between atoms: C_5  and  C_6
REMARK    5  A    between atoms: C_6  and  C_7
REMARK    6  A    between atoms: C_7  and  N_8
REMARK    7  A    between atoms: N_23  and  O_24
REMARK                            x       y       z     vdW  Elec       q    Type
REMARK                         _______ _______ _______ _____ _____    ______ ____
ROOT
ATOM      1  N   UNL     1       4.083   4.435  16.898  0.00  0.00    +0.000 N 
ATOM      2  C   UNL     1       4.009   5.741  17.382  0.00  0.00    +0.000 C 
ATOM      3  O   UNL     1       4.670   6.675  16.940  0.00  0.00    +0.000 OA
ATOM      4  C   UNL     1       3.090   5.977  18.517  0.00  0.00    +0.000 A 
ATOM      5  C   UNL     1       2.770   7.287  18.889  0.00  0.00    +0.000 A 
ATOM      6  C   UNL     1       1.928   7.517  19.974  0.00  0.00    +0.000 A 
ATOM      7  C   UNL     1       1.418   6.438  20.699  0.00  0.00    +0.000 A 
ATOM      8  C   UNL     1       1.734   5.115  20.337  0.00  0.00    +0.000 A 
ATOM      9  C   UNL     1       1.252   4.021  21.070  0.00  0.00    +0.000 A 
ATOM     10  C   UNL     1       1.574   2.714  20.699  0.00  0.00    +0.000 A 
ATOM     11  C   UNL     1       2.368   2.487  19.579  0.00  0.00    +0.000 A 
ATOM     12  C   UNL     1       2.851   3.573  18.836  0.00  0.00    +0.000 A 
ATOM     13  C   UNL     1       2.566   4.884  19.212  0.00  0.00    +0.000 A 
ATOM     14  C   UNL     1       3.647   3.317  17.610  0.00  0.00    +0.000 C 
ATOM     15  O   UNL     1       3.893   2.160  17.278  0.00  0.00    +0.000 OA
ENDROOT
BRANCH   1  16
ATOM     16  C   UNL     1       4.849   4.202  15.675  0.00  0.00    +0.000 C 
BRANCH  16  17
ATOM     17  C   UNL     1       6.325   3.939  15.967  0.00  0.00    +0.000 C 
BRANCH  17  18
ATOM     18  C   UNL     1       7.249   4.684  15.002  0.00  0.00    +0.000 C 
BRANCH  18  19
ATOM     19  C   UNL     1       6.510   4.957  13.691  0.00  0.00    +0.000 C 
BRANCH  19  20
ATOM     20  C   UNL     1       7.149   4.246  12.496  0.00  0.00    +0.000 C 
BRANCH  20  22
ATOM     21  O   UNL     1       5.064   3.108  11.941  0.00  0.00    +0.000 OA
ATOM     22  C   UNL     1       6.293   3.089  11.996  0.00  0.00    +0.000 C 
ATOM     23  N   UNL     1       7.021   1.996  11.605  0.00  0.00    +0.000 N 
ATOM     24  H   UNL     1       8.031   1.954  11.641  0.00  0.00    +0.000 HD
BRANCH  23  25
ATOM     25  O   UNL     1       6.364   0.849  11.122  0.00  0.00    +0.000 OA
ATOM     26  H   UNL     1       6.694   0.127  11.691  0.00  0.00    +0.000 HD
ENDBRANCH  23  25
ENDBRANCH  20  22
ENDBRANCH  19  20
ENDBRANCH  18  19
ENDBRANCH  17  18
ENDBRANCH  16  17
ENDBRANCH   1  16
TORSDOF 7
ENDMDL
MODEL 4
REMARK VINA RESULT:      -7.6      2.968      5.370
REMARK  Name = 
REMARK  7 active torsions:
REMARK  status: ('A' for Active; 'I' for Inactive)
REMARK    1  A    between atoms: C_2  and  C_3
REMARK    2  A    between atoms: C_3  and  C_4
REMARK    3  A    between atoms: C_4  and  C_5
REMARK    4  A    between atoms: C_5  and  C_6
REMARK    5  A    between atoms: C_6  and  C_7
REMARK    6  A    between atoms: C_7  and  N_8
REMARK    7  A    between atoms: N_23  and  O_24
REMARK                            x       y       z     vdW  Elec       q    Type
REMARK                         _______ _______ _______ _____ _____    ______ ____
ROOT
ATOM      1  N   UNL     1       4.357   3.897  17.023  0.00  0.00    +0.000 N 
ATOM      2  C   UNL     1       3.840   2.898  17.849  0.00  0.00    +0.000 C 
ATOM      3  O   UNL     1       3.881   1.701  17.585  0.00  0.00    +0.000 OA
ATOM      4  C   UNL     1       3.181   3.344  19.096  0.00  0.00    +0.000 A 
ATOM      5  C   UNL     1       2.868   2.408  20.087  0.00  0.00    +0.000 A 
ATOM      6  C   UNL     1       2.223   2.816  21.252  0.00  0.00    +0.000 A 
ATOM      7  C   UNL     1       1.875   4.158  21.420  0.00  0.00    +0.000 A 
ATOM      8  C   UNL     1       2.181   5.109  20.430  0.00  0.00    +0.000 A 
ATOM      9  C   UNL     1       1.815   6.456  20.571  0.00  0.00    +0.000 A 
ATOM     10  C   UNL     1       2.126   7.389  19.580  0.00  0.00    +0.000 A 
ATOM     11  C   UNL     1       2.823   6.988  18.444  0.00  0.00    +0.000 A 
ATOM     12  C   UNL     1       3.199   5.646  18.295  0.00  0.00    +0.000 A 
ATOM     13  C   UNL     1       2.867   4.696  19.260  0.00  0.00    +0.000 A 
ATOM     14  C   UNL     1       3.993   5.242  17.108  0.00  0.00    +0.000 C 
ATOM     15  O   UNL     1       4.287   6.082  16.262  0.00  0.00    +0.000 OA
ENDROOT
BRANCH   1  16
ATOM     16  C   UNL     1       5.159   3.485  15.872  0.00  0.00    +0.000 C 
BRANCH  16  17
ATOM     17  C   UNL     1       6.279   4.479  15.571  0.00  0.00    +0.000 C 
BRANCH  17  18
ATOM     18  C   UNL     1       7.316   4.542  16.693  0.00  0.00    +0.000 C 
BRANCH  18  19
ATOM     19  C   UNL     1       7.678   6.001  16.978  0.00  0.00    +0.000 C 
BRANCH  19  20
ATOM     20  C   UNL     1       6.950   6.560  18.202  0.00  0.00    +0.000 C 
BRANCH  20  22
ATOM     21  O   UNL     1       6.197   4.902  19.827  0.00  0.00    +0.000 OA
ATOM     22  C   UNL     1       7.087   5.645  19.413  0.00  0.00    +0.000 C 
ATOM     23  N   UNL     1       8.312   5.720  20.024  0.00  0.00    +0.000 N 
ATOM     24  H   UNL     1       9.060   6.324  19.705  0.00  0.00    +0.000 HD
BRANCH  23  25
ATOM     25  O   UNL     1       8.583   4.933  21.158  0.00  0.00    +0.000 OA
ATOM     26  H   UNL     1       8.677   5.583  21.882  0.00  0.00    +0.000 HD
ENDBRANCH  23  25
ENDBRANCH  20  22
ENDBRANCH  19  20
ENDBRANCH  18  19
ENDBRANCH  17  18
ENDBRANCH  16  17
ENDBRANCH   1  16
TORSDOF 7
ENDMDL
MODEL 5
REMARK VINA RESULT:      -7.6      1.510      2.066
REMARK  Name = 
REMARK  7 active torsions:
REMARK  status: ('A' for Active; 'I' for Inactive)
REMARK    1  A    between atoms: C_2  and  C_3
REMARK    2  A    between atoms: C_3  and  C_4
REMARK    3  A    between atoms: C_4  and  C_5
REMARK    4  A    between atoms: C_5  and  C_6
REMARK    5  A    between atoms: C_6  and  C_7
REMARK    6  A    between atoms: C_7  and  N_8
REMARK    7  A    between atoms: N_23  and  O_24
REMARK                            x       y       z     vdW  Elec       q    Type
REMARK                         _______ _______ _______ _____ _____    ______ ____
ROOT
ATOM      1  N   UNL     1       4.376   5.336  16.752  0.00  0.00    +0.000 N 
ATOM      2  C   UNL     1       4.068   6.327  17.684  0.00  0.00    +0.000 C 
ATOM      3  O   UNL     1       4.584   7.440  17.699  0.00  0.00    +0.000 OA
ATOM      4  C   UNL     1       3.078   5.973  18.725  0.00  0.00    +0.000 A 
ATOM      5  C   UNL     1       2.531   6.977  19.531  0.00  0.00    +0.000 A 
ATOM      6  C   UNL     1       1.619   6.649  20.531  0.00  0.00    +0.000 A 
ATOM      7  C   UNL     1       1.266   5.313  20.737  0.00  0.00    +0.000 A 
ATOM      8  C   UNL     1       1.810   4.293  19.936  0.00  0.00    +0.000 A 
ATOM      9  C   UNL     1       1.486   2.945  20.147  0.00  0.00    +0.000 A 
ATOM     10  C   UNL     1       2.035   1.944  19.343  0.00  0.00    +0.000 A 
ATOM     11  C   UNL     1       2.900   2.282  18.306  0.00  0.00    +0.000 A 
ATOM     12  C   UNL     1       3.226   3.627  18.083  0.00  0.00    +0.000 A 
ATOM     13  C   UNL     1       2.713   4.635  18.897  0.00  0.00    +0.000 A 
ATOM     14  C   UNL     1       4.102   3.980  16.939  0.00  0.00    +0.000 C 
ATOM     15  O   UNL     1       4.549   3.090  16.221  0.00  0.00    +0.000 OA
ENDROOT
BRANCH   1  16
ATOM     16  C   UNL     1       5.219   5.705  15.616  0.00  0.00    +0.000 C 
BRANCH  16  17
ATOM     17  C   UNL     1       6.659   5.228  15.794  0.00  0.00    +0.000 C 
BRANCH  17  18
ATOM     18  C   UNL     1       7.282   4.758  14.479  0.00  0.00    +0.000 C 
BRANCH  18  19
ATOM     19  C   UNL     1       6.207   4.111  13.604  0.00  0.00    +0.000 C 
BRANCH  19  20
ATOM     20  C   UNL     1       6.735   3.709  12.224  0.00  0.00    +0.000 C 
BRANCH  20  22
ATOM     21  O   UNL     1       4.783   2.480  11.430  0.00  0.00    +0.000 OA
ATOM     22  C   UNL     1       5.992   2.506  11.658  0.00  0.00    +0.000 C 
ATOM     23  N   UNL     1       6.800   1.425  11.416  0.00  0.00    +0.000 N 
ATOM     24  H   UNL     1       7.796   1.420  11.595  0.00  0.00    +0.000 HD
BRANCH  23  25
ATOM     25  O   UNL     1       6.251   0.239  10.894  0.00  0.00    +0.000 OA
ATOM     26  H   UNL     1       7.003  -0.384  10.877  0.00  0.00    +0.000 HD
ENDBRANCH  23  25
ENDBRANCH  20  22
ENDBRANCH  19  20
ENDBRANCH  18  19
ENDBRANCH  17  18
ENDBRANCH  16  17
ENDBRANCH   1  16
TORSDOF 7
ENDMDL
MODEL 6
REMARK VINA RESULT:      -7.6      1.303      2.960
REMARK  Name = 
REMARK  7 active torsions:
REMARK  status: ('A' for Active; 'I' for Inactive)
REMARK    1  A    between atoms: C_2  and  C_3
REMARK    2  A    between atoms: C_3  and  C_4
REMARK    3  A    between atoms: C_4  and  C_5
REMARK    4  A    between atoms: C_5  and  C_6
REMARK    5  A    between atoms: C_6  and  C_7
REMARK    6  A    between atoms: C_7  and  N_8
REMARK    7  A    between atoms: N_23  and  O_24
REMARK                            x       y       z     vdW  Elec       q    Type
REMARK                         _______ _______ _______ _____ _____    ______ ____
ROOT
ATOM      1  N   UNL     1       4.867   4.750  17.407  0.00  0.00    +0.000 N 
ATOM      2  C   UNL     1       4.214   3.572  17.770  0.00  0.00    +0.000 C 
ATOM      3  O   UNL     1       4.396   2.490  17.222  0.00  0.00    +0.000 OA
ATOM      4  C   UNL     1       3.224   3.673  18.864  0.00  0.00    +0.000 A 
ATOM      5  C   UNL     1       2.719   2.507  19.452  0.00  0.00    +0.000 A 
ATOM      6  C   UNL     1       1.766   2.594  20.464  0.00  0.00    +0.000 A 
ATOM      7  C   UNL     1       1.304   3.845  20.877  0.00  0.00    +0.000 A 
ATOM      8  C   UNL     1       1.801   5.025  20.293  0.00  0.00    +0.000 A 
ATOM      9  C   UNL     1       1.328   6.288  20.679  0.00  0.00    +0.000 A 
ATOM     10  C   UNL     1       1.830   7.449  20.090  0.00  0.00    +0.000 A 
ATOM     11  C   UNL     1       2.825   7.361  19.121  0.00  0.00    +0.000 A 
ATOM     12  C   UNL     1       3.309   6.105  18.732  0.00  0.00    +0.000 A 
ATOM     13  C   UNL     1       2.795   4.934  19.286  0.00  0.00    +0.000 A 
ATOM     14  C   UNL     1       4.411   6.026  17.741  0.00  0.00    +0.000 C 
ATOM     15  O   UNL     1       4.865   7.060  17.258  0.00  0.00    +0.000 OA
ENDROOT
BRANCH   1  16
ATOM     16  C   UNL     1       5.968   4.655  16.450  0.00  0.00    +0.000 C 
BRANCH  16  17
ATOM     17  C   UNL     1       5.472   4.680  15.005  0.00  0.00    +0.000 C 
BRANCH  17  18
ATOM     18  C   UNL     1       5.918   3.449  14.217  0.00  0.00    +0.000 C 
BRANCH  18  19
ATOM     19  C   UNL     1       6.253   3.851  12.779  0.00  0.00    +0.000 C 
BRANCH  19  20
ATOM     20  C   UNL     1       5.580   2.948  11.743  0.00  0.00    +0.000 C 
BRANCH  20  22
ATOM     21  O   UNL     1       7.613   1.814  11.014  0.00  0.00    +0.000 OA
ATOM     22  C   UNL     1       6.443   1.744  11.389  0.00  0.00    +0.000 C 
ATOM     23  N   UNL     1       5.795   0.544  11.523  0.00  0.00    +0.000 N 
ATOM     24  H   UNL     1       4.834   0.458  11.829  0.00  0.00    +0.000 HD
BRANCH  23  25
ATOM     25  O   UNL     1       6.467  -0.657  11.229  0.00  0.00    +0.000 OA
ATOM     26  H   UNL     1       5.769  -1.339  11.274  0.00  0.00    +0.000 HD
ENDBRANCH  23  25
ENDBRANCH  20  22
ENDBRANCH  19  20
ENDBRANCH  18  19
ENDBRANCH  17  18
ENDBRANCH  16  17
ENDBRANCH   1  16
TORSDOF 7
ENDMDL
MODEL 7
REMARK VINA RESULT:      -7.6      3.022      4.659
REMARK  Name = 
REMARK  7 active torsions:
REMARK  status: ('A' for Active; 'I' for Inactive)
REMARK    1  A    between atoms: C_2  and  C_3
REMARK    2  A    between atoms: C_3  and  C_4
REMARK    3  A    between atoms: C_4  and  C_5
REMARK    4  A    between atoms: C_5  and  C_6
REMARK    5  A    between atoms: C_6  and  C_7
REMARK    6  A    between atoms: C_7  and  N_8
REMARK    7  A    between atoms: N_23  and  O_24
REMARK                            x       y       z     vdW  Elec       q    Type
REMARK                         _______ _______ _______ _____ _____    ______ ____
ROOT
ATOM      1  N   UNL     1       3.850   4.571  16.894  0.00  0.00    +0.000 N 
ATOM      2  C   UNL     1       3.684   5.881  17.343  0.00  0.00    +0.000 C 
ATOM      3  O   UNL     1       4.154   6.864  16.780  0.00  0.00    +0.000 OA
ATOM      4  C   UNL     1       2.914   6.061  18.593  0.00  0.00    +0.000 A 
ATOM      5  C   UNL     1       2.489   7.341  18.968  0.00  0.00    +0.000 A 
ATOM      6  C   UNL     1       1.788   7.522  20.157  0.00  0.00    +0.000 A 
ATOM      7  C   UNL     1       1.526   6.426  20.982  0.00  0.00    +0.000 A 
ATOM      8  C   UNL     1       1.949   5.134  20.619  0.00  0.00    +0.000 A 
ATOM      9  C   UNL     1       1.716   4.027  21.449  0.00  0.00    +0.000 A 
ATOM     10  C   UNL     1       2.142   2.752  21.075  0.00  0.00    +0.000 A 
ATOM     11  C   UNL     1       2.791   2.566  19.857  0.00  0.00    +0.000 A 
ATOM     12  C   UNL     1       3.024   3.664  19.018  0.00  0.00    +0.000 A 
ATOM     13  C   UNL     1       2.634   4.949  19.391  0.00  0.00    +0.000 A 
ATOM     14  C   UNL     1       3.663   3.445  17.697  0.00  0.00    +0.000 C 
ATOM     15  O   UNL     1       4.001   2.310  17.369  0.00  0.00    +0.000 OA
ENDROOT
BRANCH   1  16
ATOM     16  C   UNL     1       4.458   4.371  15.579  0.00  0.00    +0.000 C 
BRANCH  16  17
ATOM     17  C   UNL     1       5.843   5.008  15.487  0.00  0.00    +0.000 C 
BRANCH  17  18
ATOM     18  C   UNL     1       6.911   4.180  16.202  0.00  0.00    +0.000 C 
BRANCH  18  19
ATOM     19  C   UNL     1       7.900   5.112  16.904  0.00  0.00    +0.000 C 
BRANCH  19  20
ATOM     20  C   UNL     1       7.213   6.081  17.869  0.00  0.00    +0.000 C 
BRANCH  20  22
ATOM     21  O   UNL     1       6.113   5.118  19.823  0.00  0.00    +0.000 OA
ATOM     22  C   UNL     1       7.143   5.522  19.285  0.00  0.00    +0.000 C 
ATOM     23  N   UNL     1       8.353   5.507  19.930  0.00  0.00    +0.000 N 
ATOM     24  H   UNL     1       9.214   5.834  19.511  0.00  0.00    +0.000 HD
BRANCH  23  25
ATOM     25  O   UNL     1       8.443   5.019  21.246  0.00  0.00    +0.000 OA
ATOM     26  H   UNL     1       9.087   4.287  21.186  0.00  0.00    +0.000 HD
ENDBRANCH  23  25
ENDBRANCH  20  22
ENDBRANCH  19  20
ENDBRANCH  18  19
ENDBRANCH  17  18
ENDBRANCH  16  17
ENDBRANCH   1  16
TORSDOF 7
ENDMDL
MODEL 8
REMARK VINA RESULT:      -7.6      1.483      2.001
REMARK  Name = 
REMARK  7 active torsions:
REMARK  status: ('A' for Active; 'I' for Inactive)
REMARK    1  A    between atoms: C_2  and  C_3
REMARK    2  A    between atoms: C_3  and  C_4
REMARK    3  A    between atoms: C_4  and  C_5
REMARK    4  A    between atoms: C_5  and  C_6
REMARK    5  A    between atoms: C_6  and  C_7
REMARK    6  A    between atoms: C_7  and  N_8
REMARK    7  A    between atoms: N_23  and  O_24
REMARK                            x       y       z     vdW  Elec       q    Type
REMARK                         _______ _______ _______ _____ _____    ______ ____
ROOT
ATOM      1  N   UNL     1       4.101   4.360  17.022  0.00  0.00    +0.000 N 
ATOM      2  C   UNL     1       3.992   5.671  17.486  0.00  0.00    +0.000 C 
ATOM      3  O   UNL     1       4.608   6.620  17.013  0.00  0.00    +0.000 OA
ATOM      4  C   UNL     1       3.094   5.892  18.641  0.00  0.00    +0.000 A 
ATOM      5  C   UNL     1       2.737   7.197  19.000  0.00  0.00    +0.000 A 
ATOM      6  C   UNL     1       1.914   7.415  20.103  0.00  0.00    +0.000 A 
ATOM      7  C   UNL     1       1.462   6.330  20.857  0.00  0.00    +0.000 A 
ATOM      8  C   UNL     1       1.816   5.014  20.509  0.00  0.00    +0.000 A 
ATOM      9  C   UNL     1       1.393   3.915  21.272  0.00  0.00    +0.000 A 
ATOM     10  C   UNL     1       1.752   2.615  20.914  0.00  0.00    +0.000 A 
ATOM     11  C   UNL     1       2.526   2.397  19.777  0.00  0.00    +0.000 A 
ATOM     12  C   UNL     1       2.950   3.487  19.004  0.00  0.00    +0.000 A 
ATOM     13  C   UNL     1       2.627   4.793  19.367  0.00  0.00    +0.000 A 
ATOM     14  C   UNL     1       3.724   3.239  17.762  0.00  0.00    +0.000 C 
ATOM     15  O   UNL     1       4.003   2.086  17.443  0.00  0.00    +0.000 OA
ENDROOT
BRANCH   1  16
ATOM     16  C   UNL     1       4.844   4.133  15.783  0.00  0.00    +0.000 C 
BRANCH  16  17
ATOM     17  C   UNL     1       6.353   4.244  15.994  0.00  0.00    +0.000 C 
BRANCH  17  18
ATOM     18  C   UNL     1       7.100   4.535  14.692  0.00  0.00    +0.000 C 
BRANCH  18  19
ATOM     19  C   UNL     1       6.130   4.451  13.512  0.00  0.00    +0.000 C 
BRANCH  19  20
ATOM     20  C   UNL     1       6.665   3.582  12.371  0.00  0.00    +0.000 C 
BRANCH  20  22
ATOM     21  O   UNL     1       5.667   1.568  11.421  0.00  0.00    +0.000 OA
ATOM     22  C   UNL     1       5.563   2.759  11.716  0.00  0.00    +0.000 C 
ATOM     23  N   UNL     1       4.416   3.469  11.474  0.00  0.00    +0.000 N 
ATOM     24  H   UNL     1       4.306   4.448  11.705  0.00  0.00    +0.000 HD
BRANCH  23  25
ATOM     25  O   UNL     1       3.313   2.840  10.870  0.00  0.00    +0.000 OA
ATOM     26  H   UNL     1       3.002   3.487  10.207  0.00  0.00    +0.000 HD
ENDBRANCH  23  25
ENDBRANCH  20  22
ENDBRANCH  19  20
ENDBRANCH  18  19
ENDBRANCH  17  18
ENDBRANCH  16  17
ENDBRANCH   1  16
TORSDOF 7
ENDMDL
MODEL 9
REMARK VINA RESULT:      -7.6      1.212      2.906
REMARK  Name = 
REMARK  7 active torsions:
REMARK  status: ('A' for Active; 'I' for Inactive)
REMARK    1  A    between atoms: C_2  and  C_3
REMARK    2  A    between atoms: C_3  and  C_4
REMARK    3  A    between atoms: C_4  and  C_5
REMARK    4  A    between atoms: C_5  and  C_6
REMARK    5  A    between atoms: C_6  and  C_7
REMARK    6  A    between atoms: C_7  and  N_8
REMARK    7  A    between atoms: N_23  and  O_24
REMARK                            x       y       z     vdW  Elec       q    Type
REMARK                         _______ _______ _______ _____ _____    ______ ____
ROOT
ATOM      1  N   UNL     1       4.965   4.523  17.642  0.00  0.00    +0.000 N 
ATOM      2  C   UNL     1       4.206   3.395  17.954  0.00  0.00    +0.000 C 
ATOM      3  O   UNL     1       4.356   2.299  17.424  0.00  0.00    +0.000 OA
ATOM      4  C   UNL     1       3.143   3.571  18.967  0.00  0.00    +0.000 A 
ATOM      5  C   UNL     1       2.515   2.447  19.515  0.00  0.00    +0.000 A 
ATOM      6  C   UNL     1       1.494   2.605  20.449  0.00  0.00    +0.000 A 
ATOM      7  C   UNL     1       1.088   3.888  20.823  0.00  0.00    +0.000 A 
ATOM      8  C   UNL     1       1.709   5.027  20.278  0.00  0.00    +0.000 A 
ATOM      9  C   UNL     1       1.295   6.322  20.624  0.00  0.00    +0.000 A 
ATOM     10  C   UNL     1       1.921   7.442  20.074  0.00  0.00    +0.000 A 
ATOM     11  C   UNL     1       2.980   7.280  19.186  0.00  0.00    +0.000 A 
ATOM     12  C   UNL     1       3.405   5.990  18.838  0.00  0.00    +0.000 A 
ATOM     13  C   UNL     1       2.770   4.862  19.352  0.00  0.00    +0.000 A 
ATOM     14  C   UNL     1       4.573   5.830  17.937  0.00  0.00    +0.000 C 
ATOM     15  O   UNL     1       5.133   6.827  17.489  0.00  0.00    +0.000 OA
ENDROOT
BRANCH   1  16
ATOM     16  C   UNL     1       6.128   4.346  16.774  0.00  0.00    +0.000 C 
BRANCH  16  17
ATOM     17  C   UNL     1       5.755   4.429  15.295  0.00  0.00    +0.000 C 
BRANCH  17  18
ATOM     18  C   UNL     1       6.938   4.848  14.421  0.00  0.00    +0.000 C 
BRANCH  18  19
ATOM     19  C   UNL     1       6.755   4.293  13.007  0.00  0.00    +0.000 C 
BRANCH  19  20
ATOM     20  C   UNL     1       5.294   3.967  12.687  0.00  0.00    +0.000 C 
BRANCH  20  22
ATOM     21  O   UNL     1       4.206   2.563  11.016  0.00  0.00    +0.000 OA
ATOM     22  C   UNL     1       5.168   2.770  11.754  0.00  0.00    +0.000 C 
ATOM     23  N   UNL     1       6.241   1.917  11.805  0.00  0.00    +0.000 N 
ATOM     24  H   UNL     1       7.043   2.064  12.404  0.00  0.00    +0.000 HD
BRANCH  23  25
ATOM     25  O   UNL     1       6.263   0.765  10.999  0.00  0.00    +0.000 OA
ATOM     26  H   UNL     1       7.212   0.546  10.922  0.00  0.00    +0.000 HD
ENDBRANCH  23  25
ENDBRANCH  20  22
ENDBRANCH  19  20
ENDBRANCH  18  19
ENDBRANCH  17  18
ENDBRANCH  16  17
ENDBRANCH   1  16
TORSDOF 7
ENDMDL
