MODEL 1
REMARK VINA RESULT:      -7.9      0.000      0.000
REMARK  Name = 
REMARK  5 active torsions:
REMARK  status: ('A' for Active; 'I' for Inactive)
REMARK    1  A    between atoms: C_1  and  O_2
REMARK    2  A    between atoms: O_2  and  C_3
REMARK    3  A    between atoms: C_5  and  C_6
REMARK    4  A    between atoms: C_7  and  C_8
REMARK    5  A    between atoms: C_9  and  C_10
REMARK                            x       y       z     vdW  Elec       q    Type
REMARK                         _______ _______ _______ _____ _____    ______ ____
ROOT
ATOM      1  C   UNL     1       7.725   6.934  17.998  0.00  0.00    +0.000 C 
ATOM      2  C   UNL     1       7.799   8.229  17.651  0.00  0.00    +0.000 C 
ENDROOT
BRANCH   1   5
ATOM      3  C   UNL     1       5.410   4.160  16.931  0.00  0.00    +0.000 A 
ATOM      4  C   UNL     1       6.070   5.133  17.763  0.00  0.00    +0.000 A 
ATOM      5  C   UNL     1       7.004   5.933  17.238  0.00  0.00    +0.000 A 
ATOM      6  O   UNL     1       7.364   5.843  15.874  0.00  0.00    +0.000 OA
ATOM      7  C   UNL     1       6.772   4.931  15.054  0.00  0.00    +0.000 A 
ATOM      8  O   UNL     1       7.065   4.825  13.867  0.00  0.00    +0.000 OA
ATOM      9  C   UNL     1       5.744   4.054  15.638  0.00  0.00    +0.000 A 
BRANCH   3  11
ATOM     10  C   UNL     1       3.111   3.569  17.212  0.00  0.00    +0.000 C 
ATOM     11  O   UNL     1       4.470   3.423  17.609  0.00  0.00    +0.000 OA
ENDBRANCH   3  11
ENDBRANCH   1   5
BRANCH   2  12
ATOM     12  C   UNL     1       8.541   9.214  18.403  0.00  0.00    +0.000 C 
ATOM     13  C   UNL     1       8.878  10.408  17.888  0.00  0.00    +0.000 C 
BRANCH  13  14
ATOM     14  C   UNL     1       9.655  11.419  18.618  0.00  0.00    +0.000 A 
ATOM     15  C   UNL     1      10.256  11.140  19.853  0.00  0.00    +0.000 A 
ATOM     16  C   UNL     1      11.000  12.115  20.520  0.00  0.00    +0.000 A 
ATOM     17  C   UNL     1      11.167  13.374  19.948  0.00  0.00    +0.000 A 
ATOM     18  C   UNL     1      10.602  13.655  18.706  0.00  0.00    +0.000 A 
ATOM     19  C   UNL     1       9.855  12.679  18.040  0.00  0.00    +0.000 A 
ENDBRANCH  13  14
ENDBRANCH   2  12
TORSDOF 4
ENDMDL
MODEL 2
REMARK VINA RESULT:      -7.9      0.629      1.265
REMARK  Name = 
REMARK  5 active torsions:
REMARK  status: ('A' for Active; 'I' for Inactive)
REMARK    1  A    between atoms: C_1  and  O_2
REMARK    2  A    between atoms: O_2  and  C_3
REMARK    3  A    between atoms: C_5  and  C_6
REMARK    4  A    between atoms: C_7  and  C_8
REMARK    5  A    between atoms: C_9  and  C_10
REMARK                            x       y       z     vdW  Elec       q    Type
REMARK                         _______ _______ _______ _____ _____    ______ ____
ROOT
ATOM      1  C   UNL     1       7.819   7.110  18.050  0.00  0.00    +0.000 C 
ATOM      2  C   UNL     1       7.836   8.420  17.754  0.00  0.00    +0.000 C 
ENDROOT
BRANCH   1   5
ATOM      3  C   UNL     1       5.213   4.540  17.161  0.00  0.00    +0.000 A 
ATOM      4  C   UNL     1       5.966   5.500  17.923  0.00  0.00    +0.000 A 
ATOM      5  C   UNL     1       7.000   6.135  17.359  0.00  0.00    +0.000 A 
ATOM      6  O   UNL     1       7.375   5.878  16.020  0.00  0.00    +0.000 OA
ATOM      7  C   UNL     1       6.696   4.970  15.266  0.00  0.00    +0.000 A 
ATOM      8  O   UNL     1       6.999   4.723  14.103  0.00  0.00    +0.000 OA
ATOM      9  C   UNL     1       5.559   4.277  15.893  0.00  0.00    +0.000 A 
BRANCH   3  11
ATOM     10  C   UNL     1       4.507   3.251  19.047  0.00  0.00    +0.000 C 
ATOM     11  O   UNL     1       4.177   3.983  17.871  0.00  0.00    +0.000 OA
ENDBRANCH   3  11
ENDBRANCH   1   5
BRANCH   2  12
ATOM     12  C   UNL     1       8.675   9.379  18.432  0.00  0.00    +0.000 C 
ATOM     13  C   UNL     1       8.998  10.564  17.888  0.00  0.00    +0.000 C 
BRANCH  13  14
ATOM     14  C   UNL     1       9.871  11.549  18.542  0.00  0.00    +0.000 A 
ATOM     15  C   UNL     1      10.265  12.730  17.899  0.00  0.00    +0.000 A 
ATOM     16  C   UNL     1      11.084  13.654  18.548  0.00  0.00    +0.000 A 
ATOM     17  C   UNL     1      11.504  13.416  19.854  0.00  0.00    +0.000 A 
ATOM     18  C   UNL     1      11.094  12.261  20.517  0.00  0.00    +0.000 A 
ATOM     19  C   UNL     1      10.275  11.334  19.866  0.00  0.00    +0.000 A 
ENDBRANCH  13  14
ENDBRANCH   2  12
TORSDOF 4
ENDMDL
MODEL 3
REMARK VINA RESULT:      -7.7      1.269      2.642
REMARK  Name = 
REMARK  5 active torsions:
REMARK  status: ('A' for Active; 'I' for Inactive)
REMARK    1  A    between atoms: C_1  and  O_2
REMARK    2  A    between atoms: O_2  and  C_3
REMARK    3  A    between atoms: C_5  and  C_6
REMARK    4  A    between atoms: C_7  and  C_8
REMARK    5  A    between atoms: C_9  and  C_10
REMARK                            x       y       z     vdW  Elec       q    Type
REMARK                         _______ _______ _______ _____ _____    ______ ____
ROOT
ATOM      1  C   UNL     1       7.371   6.424  18.150  0.00  0.00    +0.000 C 
ATOM      2  C   UNL     1       7.585   7.684  17.739  0.00  0.00    +0.000 C 
ENDROOT
BRANCH   1   5
ATOM      3  C   UNL     1       5.232   4.396  15.805  0.00  0.00    +0.000 A 
ATOM      4  C   UNL     1       6.270   5.274  16.278  0.00  0.00    +0.000 A 
ATOM      5  C   UNL     1       6.366   5.547  17.584  0.00  0.00    +0.000 A 
ATOM      6  O   UNL     1       5.461   4.991  18.518  0.00  0.00    +0.000 OA
ATOM      7  C   UNL     1       4.459   4.163  18.112  0.00  0.00    +0.000 A 
ATOM      8  O   UNL     1       3.656   3.668  18.897  0.00  0.00    +0.000 OA
ATOM      9  C   UNL     1       4.360   3.866  16.674  0.00  0.00    +0.000 A 
BRANCH   3  11
ATOM     10  C   UNL     1       6.541   4.271  13.808  0.00  0.00    +0.000 C 
ATOM     11  O   UNL     1       5.270   4.203  14.445  0.00  0.00    +0.000 OA
ENDBRANCH   3  11
ENDBRANCH   1   5
BRANCH   2  12
ATOM     12  C   UNL     1       8.606   8.540  18.294  0.00  0.00    +0.000 C 
ATOM     13  C   UNL     1       8.498   9.879  18.297  0.00  0.00    +0.000 C 
BRANCH  13  14
ATOM     14  C   UNL     1       9.532  10.778  18.829  0.00  0.00    +0.000 A 
ATOM     15  C   UNL     1      10.471  11.400  17.995  0.00  0.00    +0.000 A 
ATOM     16  C   UNL     1      11.435  12.259  18.525  0.00  0.00    +0.000 A 
ATOM     17  C   UNL     1      11.458  12.520  19.893  0.00  0.00    +0.000 A 
ATOM     18  C   UNL     1      10.510  11.933  20.729  0.00  0.00    +0.000 A 
ATOM     19  C   UNL     1       9.547  11.071  20.198  0.00  0.00    +0.000 A 
ENDBRANCH  13  14
ENDBRANCH   2  12
TORSDOF 4
ENDMDL
MODEL 4
REMARK VINA RESULT:      -7.7      1.246      2.237
REMARK  Name = 
REMARK  5 active torsions:
REMARK  status: ('A' for Active; 'I' for Inactive)
REMARK    1  A    between atoms: C_1  and  O_2
REMARK    2  A    between atoms: O_2  and  C_3
REMARK    3  A    between atoms: C_5  and  C_6
REMARK    4  A    between atoms: C_7  and  C_8
REMARK    5  A    between atoms: C_9  and  C_10
REMARK                            x       y       z     vdW  Elec       q    Type
REMARK                         _______ _______ _______ _____ _____    ______ ____
ROOT
ATOM      1  C   UNL     1       7.531   6.920  18.014  0.00  0.00    +0.000 C 
ATOM      2  C   UNL     1       7.687   8.217  17.702  0.00  0.00    +0.000 C 
ENDROOT
BRANCH   1   5
ATOM      3  C   UNL     1       5.960   4.374  15.725  0.00  0.00    +0.000 A 
ATOM      4  C   UNL     1       6.952   5.217  16.339  0.00  0.00    +0.000 A 
ATOM      5  C   UNL     1       6.604   6.032  17.341  0.00  0.00    +0.000 A 
ATOM      6  O   UNL     1       5.272   6.088  17.812  0.00  0.00    +0.000 OA
ATOM      7  C   UNL     1       4.301   5.315  17.253  0.00  0.00    +0.000 A 
ATOM      8  O   UNL     1       3.135   5.343  17.637  0.00  0.00    +0.000 OA
ATOM      9  C   UNL     1       4.691   4.419  16.152  0.00  0.00    +0.000 A 
BRANCH   3  11
ATOM     10  C   UNL     1       6.070   3.884  13.387  0.00  0.00    +0.000 C 
ATOM     11  O   UNL     1       6.471   3.587  14.721  0.00  0.00    +0.000 OA
ENDBRANCH   3  11
ENDBRANCH   1   5
BRANCH   2  12
ATOM     12  C   UNL     1       8.632   9.086  18.362  0.00  0.00    +0.000 C 
ATOM     13  C   UNL     1       8.898  10.327  17.921  0.00  0.00    +0.000 C 
BRANCH  13  14
ATOM     14  C   UNL     1       9.873  11.225  18.555  0.00  0.00    +0.000 A 
ATOM     15  C   UNL     1      10.072  11.240  19.942  0.00  0.00    +0.000 A 
ATOM     16  C   UNL     1      11.014  12.094  20.517  0.00  0.00    +0.000 A 
ATOM     17  C   UNL     1      11.781  12.929  19.709  0.00  0.00    +0.000 A 
ATOM     18  C   UNL     1      11.616  12.902  18.325  0.00  0.00    +0.000 A 
ATOM     19  C   UNL     1      10.670  12.049  17.750  0.00  0.00    +0.000 A 
ENDBRANCH  13  14
ENDBRANCH   2  12
TORSDOF 4
ENDMDL
MODEL 5
REMARK VINA RESULT:      -7.6      1.008      1.403
REMARK  Name = 
REMARK  5 active torsions:
REMARK  status: ('A' for Active; 'I' for Inactive)
REMARK    1  A    between atoms: C_1  and  O_2
REMARK    2  A    between atoms: O_2  and  C_3
REMARK    3  A    between atoms: C_5  and  C_6
REMARK    4  A    between atoms: C_7  and  C_8
REMARK    5  A    between atoms: C_9  and  C_10
REMARK                            x       y       z     vdW  Elec       q    Type
REMARK                         _______ _______ _______ _____ _____    ______ ____
ROOT
ATOM      1  C   UNL     1       7.308   6.572  18.142  0.00  0.00    +0.000 C 
ATOM      2  C   UNL     1       7.669   7.782  17.686  0.00  0.00    +0.000 C 
ENDROOT
BRANCH   1   5
ATOM      3  C   UNL     1       4.240   4.592  17.219  0.00  0.00    +0.000 A 
ATOM      4  C   UNL     1       5.121   5.471  17.943  0.00  0.00    +0.000 A 
ATOM      5  C   UNL     1       6.352   5.709  17.478  0.00  0.00    +0.000 A 
ATOM      6  O   UNL     1       6.813   5.110  16.284  0.00  0.00    +0.000 OA
ATOM      7  C   UNL     1       6.017   4.265  15.573  0.00  0.00    +0.000 A 
ATOM      8  O   UNL     1       6.389   3.727  14.535  0.00  0.00    +0.000 OA
ATOM      9  C   UNL     1       4.663   4.008  16.090  0.00  0.00    +0.000 A 
BRANCH   3  11
ATOM     10  C   UNL     1       2.364   3.191  17.704  0.00  0.00    +0.000 C 
ATOM     11  O   UNL     1       3.009   4.455  17.814  0.00  0.00    +0.000 OA
ENDBRANCH   3  11
ENDBRANCH   1   5
BRANCH   2  12
ATOM     12  C   UNL     1       8.642   8.623  18.342  0.00  0.00    +0.000 C 
ATOM     13  C   UNL     1       8.632   9.962  18.225  0.00  0.00    +0.000 C 
BRANCH  13  14
ATOM     14  C   UNL     1       9.623  10.842  18.858  0.00  0.00    +0.000 A 
ATOM     15  C   UNL     1      10.625  11.481  18.115  0.00  0.00    +0.000 A 
ATOM     16  C   UNL     1      11.547  12.323  18.740  0.00  0.00    +0.000 A 
ATOM     17  C   UNL     1      11.466  12.548  20.111  0.00  0.00    +0.000 A 
ATOM     18  C   UNL     1      10.456  11.943  20.857  0.00  0.00    +0.000 A 
ATOM     19  C   UNL     1       9.535  11.099  20.232  0.00  0.00    +0.000 A 
ENDBRANCH  13  14
ENDBRANCH   2  12
TORSDOF 4
ENDMDL
MODEL 6
REMARK VINA RESULT:      -7.6      1.328      2.358
REMARK  Name = 
REMARK  5 active torsions:
REMARK  status: ('A' for Active; 'I' for Inactive)
REMARK    1  A    between atoms: C_1  and  O_2
REMARK    2  A    between atoms: O_2  and  C_3
REMARK    3  A    between atoms: C_5  and  C_6
REMARK    4  A    between atoms: C_7  and  C_8
REMARK    5  A    between atoms: C_9  and  C_10
REMARK                            x       y       z     vdW  Elec       q    Type
REMARK                         _______ _______ _______ _____ _____    ______ ____
ROOT
ATOM      1  C   UNL     1       7.792   7.095  17.567  0.00  0.00    +0.000 C 
ATOM      2  C   UNL     1       7.415   8.381  17.643  0.00  0.00    +0.000 C 
ENDROOT
BRANCH   1   5
ATOM      3  C   UNL     1       5.539   4.505  16.017  0.00  0.00    +0.000 A 
ATOM      4  C   UNL     1       6.459   5.606  16.138  0.00  0.00    +0.000 A 
ATOM      5  C   UNL     1       6.875   5.995  17.348  0.00  0.00    +0.000 A 
ATOM      6  O   UNL     1       6.427   5.346  18.521  0.00  0.00    +0.000 OA
ATOM      7  C   UNL     1       5.550   4.306  18.453  0.00  0.00    +0.000 A 
ATOM      8  O   UNL     1       5.139   3.725  19.453  0.00  0.00    +0.000 OA
ATOM      9  C   UNL     1       5.096   3.883  17.118  0.00  0.00    +0.000 A 
BRANCH   3  11
ATOM     10  C   UNL     1       6.286   4.011  13.800  0.00  0.00    +0.000 C 
ATOM     11  O   UNL     1       5.214   4.217  14.713  0.00  0.00    +0.000 OA
ENDBRANCH   3  11
ENDBRANCH   1   5
BRANCH   2  12
ATOM     12  C   UNL     1       8.341   9.473  17.837  0.00  0.00    +0.000 C 
ATOM     13  C   UNL     1       8.914   9.727  19.025  0.00  0.00    +0.000 C 
BRANCH  13  14
ATOM     14  C   UNL     1       9.837  10.845  19.261  0.00  0.00    +0.000 A 
ATOM     15  C   UNL     1       9.984  11.429  20.526  0.00  0.00    +0.000 A 
ATOM     16  C   UNL     1      10.877  12.483  20.725  0.00  0.00    +0.000 A 
ATOM     17  C   UNL     1      11.648  12.951  19.664  0.00  0.00    +0.000 A 
ATOM     18  C   UNL     1      11.535  12.359  18.407  0.00  0.00    +0.000 A 
ATOM     19  C   UNL     1      10.638  11.306  18.208  0.00  0.00    +0.000 A 
ENDBRANCH  13  14
ENDBRANCH   2  12
TORSDOF 4
ENDMDL
MODEL 7
REMARK VINA RESULT:      -7.5      1.188      1.291
REMARK  Name = 
REMARK  5 active torsions:
REMARK  status: ('A' for Active; 'I' for Inactive)
REMARK    1  A    between atoms: C_1  and  O_2
REMARK    2  A    between atoms: O_2  and  C_3
REMARK    3  A    between atoms: C_5  and  C_6
REMARK    4  A    between atoms: C_7  and  C_8
REMARK    5  A    between atoms: C_9  and  C_10
REMARK                            x       y       z     vdW  Elec       q    Type
REMARK                         _______ _______ _______ _____ _____    ______ ____
ROOT
ATOM      1  C   UNL     1       7.382   6.524  18.195  0.00  0.00    +0.000 C 
ATOM      2  C   UNL     1       7.662   7.714  17.641  0.00  0.00    +0.000 C 
ENDROOT
BRANCH   1   5
ATOM      3  C   UNL     1       4.515   4.099  17.905  0.00  0.00    +0.000 A 
ATOM      4  C   UNL     1       5.488   4.986  18.487  0.00  0.00    +0.000 A 
ATOM      5  C   UNL     1       6.364   5.620  17.700  0.00  0.00    +0.000 A 
ATOM      6  O   UNL     1       6.358   5.435  16.298  0.00  0.00    +0.000 OA
ATOM      7  C   UNL     1       5.461   4.598  15.708  0.00  0.00    +0.000 A 
ATOM      8  O   UNL     1       5.432   4.413  14.495  0.00  0.00    +0.000 OA
ATOM      9  C   UNL     1       4.499   3.904  16.580  0.00  0.00    +0.000 A 
BRANCH   3  11
ATOM     10  C   UNL     1       4.239   2.562  19.716  0.00  0.00    +0.000 C 
ATOM     11  O   UNL     1       3.679   3.532  18.838  0.00  0.00    +0.000 OA
ENDBRANCH   3  11
ENDBRANCH   1   5
BRANCH   2  12
ATOM     12  C   UNL     1       8.696   8.597  18.128  0.00  0.00    +0.000 C 
ATOM     13  C   UNL     1       8.477   9.902  18.361  0.00  0.00    +0.000 C 
BRANCH  13  14
ATOM     14  C   UNL     1       9.515  10.830  18.830  0.00  0.00    +0.000 A 
ATOM     15  C   UNL     1       9.680  11.129  20.189  0.00  0.00    +0.000 A 
ATOM     16  C   UNL     1      10.682  12.005  20.609  0.00  0.00    +0.000 A 
ATOM     17  C   UNL     1      11.543  12.576  19.675  0.00  0.00    +0.000 A 
ATOM     18  C   UNL     1      11.411  12.263  18.323  0.00  0.00    +0.000 A 
ATOM     19  C   UNL     1      10.405  11.388  17.904  0.00  0.00    +0.000 A 
ENDBRANCH  13  14
ENDBRANCH   2  12
TORSDOF 4
ENDMDL
MODEL 8
REMARK VINA RESULT:      -7.5      1.337      1.770
REMARK  Name = 
REMARK  5 active torsions:
REMARK  status: ('A' for Active; 'I' for Inactive)
REMARK    1  A    between atoms: C_1  and  O_2
REMARK    2  A    between atoms: O_2  and  C_3
REMARK    3  A    between atoms: C_5  and  C_6
REMARK    4  A    between atoms: C_7  and  C_8
REMARK    5  A    between atoms: C_9  and  C_10
REMARK                            x       y       z     vdW  Elec       q    Type
REMARK                         _______ _______ _______ _____ _____    ______ ____
ROOT
ATOM      1  C   UNL     1       8.158   7.576  18.484  0.00  0.00    +0.000 C 
ATOM      2  C   UNL     1       8.192   8.860  18.090  0.00  0.00    +0.000 C 
ENDROOT
BRANCH   1   5
ATOM      3  C   UNL     1       5.790   4.660  18.210  0.00  0.00    +0.000 A 
ATOM      4  C   UNL     1       6.765   5.570  18.752  0.00  0.00    +0.000 A 
ATOM      5  C   UNL     1       7.177   6.614  18.025  0.00  0.00    +0.000 A 
ATOM      6  O   UNL     1       6.674   6.846  16.724  0.00  0.00    +0.000 OA
ATOM      7  C   UNL     1       5.758   6.005  16.169  0.00  0.00    +0.000 A 
ATOM      8  O   UNL     1       5.305   6.177  15.042  0.00  0.00    +0.000 OA
ATOM      9  C   UNL     1       5.308   4.858  16.975  0.00  0.00    +0.000 A 
BRANCH   3  11
ATOM     10  C   UNL     1       4.084   3.297  19.183  0.00  0.00    +0.000 C 
ATOM     11  O   UNL     1       5.460   3.647  19.077  0.00  0.00    +0.000 OA
ENDBRANCH   3  11
ENDBRANCH   1   5
BRANCH   2  12
ATOM     12  C   UNL     1       9.190   9.804  18.535  0.00  0.00    +0.000 C 
ATOM     13  C   UNL     1       9.241  11.066  18.078  0.00  0.00    +0.000 C 
BRANCH  13  14
ATOM     14  C   UNL     1      10.260  12.040  18.490  0.00  0.00    +0.000 A 
ATOM     15  C   UNL     1      10.159  13.399  18.162  0.00  0.00    +0.000 A 
ATOM     16  C   UNL     1      11.135  14.306  18.578  0.00  0.00    +0.000 A 
ATOM     17  C   UNL     1      12.213  13.867  19.342  0.00  0.00    +0.000 A 
ATOM     18  C   UNL     1      12.310  12.523  19.702  0.00  0.00    +0.000 A 
ATOM     19  C   UNL     1      11.333  11.615  19.283  0.00  0.00    +0.000 A 
ENDBRANCH  13  14
ENDBRANCH   2  12
TORSDOF 4
ENDMDL
MODEL 9
REMARK VINA RESULT:      -7.4      1.171      1.628
REMARK  Name = 
REMARK  5 active torsions:
REMARK  status: ('A' for Active; 'I' for Inactive)
REMARK    1  A    between atoms: C_1  and  O_2
REMARK    2  A    between atoms: O_2  and  C_3
REMARK    3  A    between atoms: C_5  and  C_6
REMARK    4  A    between atoms: C_7  and  C_8
REMARK    5  A    between atoms: C_9  and  C_10
REMARK                            x       y       z     vdW  Elec       q    Type
REMARK                         _______ _______ _______ _____ _____    ______ ____
ROOT
ATOM      1  C   UNL     1       7.699   6.847  17.786  0.00  0.00    +0.000 C 
ATOM      2  C   UNL     1       7.495   8.166  17.635  0.00  0.00    +0.000 C 
ENDROOT
BRANCH   1   5
ATOM      3  C   UNL     1       5.048   4.233  18.356  0.00  0.00    +0.000 A 
ATOM      4  C   UNL     1       6.057   5.223  18.626  0.00  0.00    +0.000 A 
ATOM      5  C   UNL     1       6.668   5.844  17.611  0.00  0.00    +0.000 A 
ATOM      6  O   UNL     1       6.346   5.545  16.268  0.00  0.00    +0.000 OA
ATOM      7  C   UNL     1       5.404   4.608  15.967  0.00  0.00    +0.000 A 
ATOM      8  O   UNL     1       5.104   4.323  14.812  0.00  0.00    +0.000 OA
ATOM      9  C   UNL     1       4.735   3.929  17.089  0.00  0.00    +0.000 A 
BRANCH   3  11
ATOM     10  C   UNL     1       3.603   2.603  19.343  0.00  0.00    +0.000 C 
ATOM     11  O   UNL     1       4.505   3.694  19.498  0.00  0.00    +0.000 OA
ENDBRANCH   3  11
ENDBRANCH   1   5
BRANCH   2  12
ATOM     12  C   UNL     1       8.536   9.155  17.788  0.00  0.00    +0.000 C 
ATOM     13  C   UNL     1       8.733   9.820  18.939  0.00  0.00    +0.000 C 
BRANCH  13  14
ATOM     14  C   UNL     1       9.765  10.851  19.116  0.00  0.00    +0.000 A 
ATOM     15  C   UNL     1      10.405  11.453  18.024  0.00  0.00    +0.000 A 
ATOM     16  C   UNL     1      11.372  12.439  18.221  0.00  0.00    +0.000 A 
ATOM     17  C   UNL     1      11.697  12.848  19.512  0.00  0.00    +0.000 A 
ATOM     18  C   UNL     1      11.046  12.280  20.606  0.00  0.00    +0.000 A 
ATOM     19  C   UNL     1      10.079  11.291  20.408  0.00  0.00    +0.000 A 
ENDBRANCH  13  14
ENDBRANCH   2  12
TORSDOF 4
ENDMDL
