MODEL 1
REMARK VINA RESULT:      -8.2      0.000      0.000
REMARK  Name = 
REMARK  7 active torsions:
REMARK  status: ('A' for Active; 'I' for Inactive)
REMARK    1  A    between atoms: C_1  and  C_2
REMARK    2  A    between atoms: C_2  and  C_3
REMARK    3  A    between atoms: C_7  and  C_8
REMARK    4  A    between atoms: C_11  and  N_12
REMARK    5  A    between atoms: C_18  and  C_19
REMARK    6  A    between atoms: C_20  and  C_21
REMARK    7  A    between atoms: N_23  and  C_24
REMARK                            x       y       z     vdW  Elec       q    Type
REMARK                         _______ _______ _______ _____ _____    ______ ____
ROOT
ATOM      1  C   UNL     1       3.899   3.183  19.404  0.00  0.00    +0.000 C 
ATOM      2  O   UNL     1       4.913   2.499  19.545  0.00  0.00    +0.000 OA
ATOM      3  N   UNL     1       3.921   4.562  19.278  0.00  0.00    +0.000 N 
ATOM      4  N   UNL     1       2.777   5.313  19.308  0.00  0.00    +0.000 NA
ATOM      5  C   UNL     1       3.141   6.558  19.267  0.00  0.00    +0.000 C 
ATOM      6  C   UNL     1       4.627   6.799  19.225  0.00  0.00    +0.000 C 
ATOM      7  C   UNL     1       5.136   5.362  19.253  0.00  0.00    +0.000 C 
ENDROOT
BRANCH   7   8
ATOM      8  C   UNL     1       5.982   5.020  18.070  0.00  0.00    +0.000 A 
ATOM      9  C   UNL     1       7.387   4.815  17.964  0.00  0.00    +0.000 A 
ATOM     10  C   UNL     1       8.434   4.917  19.017  0.00  0.00    +0.000 C 
ATOM     11  N   UNL     1       7.750   4.445  16.728  0.00  0.00    +0.000 NA
ATOM     12  N   UNL     1       6.619   4.565  15.973  0.00  0.00    +0.000 N 
ATOM     13  C   UNL     1       5.530   4.780  16.794  0.00  0.00    +0.000 A 
ATOM     14 CL   UNL     1       3.909   4.595  16.274  0.00  0.00    +0.000 Cl
BRANCH  12  15
ATOM     15  C   UNL     1       6.687   4.437  14.557  0.00  0.00    +0.000 A 
ATOM     16  C   UNL     1       7.587   5.229  13.829  0.00  0.00    +0.000 A 
ATOM     17  C   UNL     1       7.728   5.036  12.451  0.00  0.00    +0.000 A 
ATOM     18  C   UNL     1       6.951   4.084  11.792  0.00  0.00    +0.000 A 
ATOM     19  C   UNL     1       6.007   3.347  12.499  0.00  0.00    +0.000 A 
ATOM     20  C   UNL     1       5.865   3.531  13.874  0.00  0.00    +0.000 A 
ENDBRANCH  12  15
ENDBRANCH   7   8
BRANCH   5  21
ATOM     21  C   UNL     1       2.165   7.668  19.233  0.00  0.00    +0.000 A 
ATOM     22  C   UNL     1       1.933   8.324  18.015  0.00  0.00    +0.000 A 
ATOM     23  C   UNL     1       1.048   9.402  17.949  0.00  0.00    +0.000 A 
ATOM     24  C   UNL     1       0.397   9.827  19.112  0.00  0.00    +0.000 A 
ATOM     25  C   UNL     1       0.620   9.176  20.333  0.00  0.00    +0.000 A 
ATOM     26  C   UNL     1       1.504   8.094  20.390  0.00  0.00    +0.000 A 
BRANCH  24  27
ATOM     27  N   UNL     1      -0.526  10.967  19.054  0.00  0.00    +0.000 N 
ATOM     28  O   UNL     1      -1.499  10.883  18.292  0.00  0.00    +0.000 OA
ATOM     29  O   UNL     1      -0.272  11.945  19.770  0.00  0.00    +0.000 OA
ENDBRANCH  24  27
ENDBRANCH   5  21
BRANCH   1  31
ATOM     30  C   UNL     1       2.189   1.959  17.986  0.00  0.00    +0.000 C 
ATOM     31  C   UNL     1       2.502   2.581  19.334  0.00  0.00    +0.000 C 
ENDBRANCH   1  31
TORSDOF 5
ENDMDL
MODEL 2
REMARK VINA RESULT:      -8.1      0.367      1.123
REMARK  Name = 
REMARK  7 active torsions:
REMARK  status: ('A' for Active; 'I' for Inactive)
REMARK    1  A    between atoms: C_1  and  C_2
REMARK    2  A    between atoms: C_2  and  C_3
REMARK    3  A    between atoms: C_7  and  C_8
REMARK    4  A    between atoms: C_11  and  N_12
REMARK    5  A    between atoms: C_18  and  C_19
REMARK    6  A    between atoms: C_20  and  C_21
REMARK    7  A    between atoms: N_23  and  C_24
REMARK                            x       y       z     vdW  Elec       q    Type
REMARK                         _______ _______ _______ _____ _____    ______ ____
ROOT
ATOM      1  C   UNL     1       3.649   3.168  19.156  0.00  0.00    +0.000 C 
ATOM      2  O   UNL     1       4.623   2.429  19.297  0.00  0.00    +0.000 OA
ATOM      3  N   UNL     1       3.741   4.550  19.114  0.00  0.00    +0.000 N 
ATOM      4  N   UNL     1       2.632   5.352  19.142  0.00  0.00    +0.000 NA
ATOM      5  C   UNL     1       3.055   6.579  19.191  0.00  0.00    +0.000 C 
ATOM      6  C   UNL     1       4.551   6.749  19.224  0.00  0.00    +0.000 C 
ATOM      7  C   UNL     1       4.991   5.290  19.186  0.00  0.00    +0.000 C 
ENDROOT
BRANCH   7   8
ATOM      8  C   UNL     1       5.870   4.975  18.020  0.00  0.00    +0.000 A 
ATOM      9  C   UNL     1       7.284   4.826  17.939  0.00  0.00    +0.000 A 
ATOM     10  C   UNL     1       8.308   4.974  19.010  0.00  0.00    +0.000 C 
ATOM     11  N   UNL     1       7.683   4.464  16.712  0.00  0.00    +0.000 NA
ATOM     12  N   UNL     1       6.563   4.536  15.937  0.00  0.00    +0.000 N 
ATOM     13  C   UNL     1       5.452   4.712  16.737  0.00  0.00    +0.000 A 
ATOM     14 CL   UNL     1       3.849   4.461  16.191  0.00  0.00    +0.000 Cl
BRANCH  12  15
ATOM     15  C   UNL     1       6.660   4.404  14.523  0.00  0.00    +0.000 A 
ATOM     16  C   UNL     1       7.567   5.202  13.811  0.00  0.00    +0.000 A 
ATOM     17  C   UNL     1       7.738   5.006  12.436  0.00  0.00    +0.000 A 
ATOM     18  C   UNL     1       6.984   4.044  11.765  0.00  0.00    +0.000 A 
ATOM     19  C   UNL     1       6.032   3.301  12.456  0.00  0.00    +0.000 A 
ATOM     20  C   UNL     1       5.861   3.488  13.826  0.00  0.00    +0.000 A 
ENDBRANCH  12  15
ENDBRANCH   7   8
BRANCH   5  21
ATOM     21  C   UNL     1       2.134   7.736  19.184  0.00  0.00    +0.000 A 
ATOM     22  C   UNL     1       1.518   8.113  20.386  0.00  0.00    +0.000 A 
ATOM     23  C   UNL     1       0.610   9.174  20.414  0.00  0.00    +0.000 A 
ATOM     24  C   UNL     1       0.318   9.857  19.228  0.00  0.00    +0.000 A 
ATOM     25  C   UNL     1       0.931   9.489  18.023  0.00  0.00    +0.000 A 
ATOM     26  C   UNL     1       1.841   8.428  18.004  0.00  0.00    +0.000 A 
BRANCH  24  27
ATOM     27  N   UNL     1      -0.643  10.966  19.246  0.00  0.00    +0.000 N 
ATOM     28  O   UNL     1      -0.923  11.470  20.342  0.00  0.00    +0.000 OA
ATOM     29  O   UNL     1      -1.118  11.329  18.161  0.00  0.00    +0.000 OA
ENDBRANCH  24  27
ENDBRANCH   5  21
BRANCH   1  31
ATOM     30  C   UNL     1       1.525   2.412  20.318  0.00  0.00    +0.000 C 
ATOM     31  C   UNL     1       2.230   2.640  18.994  0.00  0.00    +0.000 C 
ENDBRANCH   1  31
TORSDOF 5
ENDMDL
MODEL 3
REMARK VINA RESULT:      -7.9      4.377     10.976
REMARK  Name = 
REMARK  7 active torsions:
REMARK  status: ('A' for Active; 'I' for Inactive)
REMARK    1  A    between atoms: C_1  and  C_2
REMARK    2  A    between atoms: C_2  and  C_3
REMARK    3  A    between atoms: C_7  and  C_8
REMARK    4  A    between atoms: C_11  and  N_12
REMARK    5  A    between atoms: C_18  and  C_19
REMARK    6  A    between atoms: C_20  and  C_21
REMARK    7  A    between atoms: N_23  and  C_24
REMARK                            x       y       z     vdW  Elec       q    Type
REMARK                         _______ _______ _______ _____ _____    ______ ____
ROOT
ATOM      1  C   UNL     1      -1.508  10.968  18.267  0.00  0.00    +0.000 C 
ATOM      2  O   UNL     1      -1.936  12.100  18.492  0.00  0.00    +0.000 OA
ATOM      3  N   UNL     1      -0.313  10.488  18.777  0.00  0.00    +0.000 N 
ATOM      4  N   UNL     1       0.229   9.301  18.366  0.00  0.00    +0.000 NA
ATOM      5  C   UNL     1       1.383   9.189  18.952  0.00  0.00    +0.000 C 
ATOM      6  C   UNL     1       1.773  10.340  19.841  0.00  0.00    +0.000 C 
ATOM      7  C   UNL     1       0.555  11.239  19.672  0.00  0.00    +0.000 C 
ENDROOT
BRANCH   7   8
ATOM      8  C   UNL     1      -0.134  11.538  20.964  0.00  0.00    +0.000 A 
ATOM      9  C   UNL     1      -0.505  10.679  22.036  0.00  0.00    +0.000 A 
ATOM     10  C   UNL     1      -0.336   9.205  22.162  0.00  0.00    +0.000 C 
ATOM     11  N   UNL     1      -1.042  11.356  23.062  0.00  0.00    +0.000 NA
ATOM     12  N   UNL     1      -1.183  12.635  22.609  0.00  0.00    +0.000 N 
ATOM     13  C   UNL     1      -0.522  12.781  21.406  0.00  0.00    +0.000 A 
ATOM     14 CL   UNL     1      -0.137  14.303  20.723  0.00  0.00    +0.000 Cl
BRANCH  12  15
ATOM     15  C   UNL     1      -1.907  13.591  23.377  0.00  0.00    +0.000 A 
ATOM     16  C   UNL     1      -3.309  13.602  23.331  0.00  0.00    +0.000 A 
ATOM     17  C   UNL     1      -4.026  14.471  24.159  0.00  0.00    +0.000 A 
ATOM     18  C   UNL     1      -3.352  15.351  25.005  0.00  0.00    +0.000 A 
ATOM     19  C   UNL     1      -1.961  15.392  25.001  0.00  0.00    +0.000 A 
ATOM     20  C   UNL     1      -1.241  14.524  24.181  0.00  0.00    +0.000 A 
ENDBRANCH  12  15
ENDBRANCH   7   8
BRANCH   5  21
ATOM     21  C   UNL     1       2.244   7.999  18.784  0.00  0.00    +0.000 A 
ATOM     22  C   UNL     1       2.209   6.999  19.767  0.00  0.00    +0.000 A 
ATOM     23  C   UNL     1       3.037   5.878  19.665  0.00  0.00    +0.000 A 
ATOM     24  C   UNL     1       3.905   5.763  18.575  0.00  0.00    +0.000 A 
ATOM     25  C   UNL     1       3.945   6.757  17.586  0.00  0.00    +0.000 A 
ATOM     26  C   UNL     1       3.110   7.874  17.692  0.00  0.00    +0.000 A 
BRANCH  24  27
ATOM     27  N   UNL     1       4.786   4.595  18.466  0.00  0.00    +0.000 N 
ATOM     28  O   UNL     1       4.472   3.709  17.659  0.00  0.00    +0.000 OA
ATOM     29  O   UNL     1       5.790   4.565  19.191  0.00  0.00    +0.000 OA
ENDBRANCH  24  27
ENDBRANCH   5  21
BRANCH   1  31
ATOM     30  C   UNL     1      -2.623  10.496  16.038  0.00  0.00    +0.000 C 
ATOM     31  C   UNL     1      -2.259   9.958  17.408  0.00  0.00    +0.000 C 
ENDBRANCH   1  31
TORSDOF 5
ENDMDL
MODEL 4
REMARK VINA RESULT:      -7.8      4.442     10.964
REMARK  Name = 
REMARK  7 active torsions:
REMARK  status: ('A' for Active; 'I' for Inactive)
REMARK    1  A    between atoms: C_1  and  C_2
REMARK    2  A    between atoms: C_2  and  C_3
REMARK    3  A    between atoms: C_7  and  C_8
REMARK    4  A    between atoms: C_11  and  N_12
REMARK    5  A    between atoms: C_18  and  C_19
REMARK    6  A    between atoms: C_20  and  C_21
REMARK    7  A    between atoms: N_23  and  C_24
REMARK                            x       y       z     vdW  Elec       q    Type
REMARK                         _______ _______ _______ _____ _____    ______ ____
ROOT
ATOM      1  C   UNL     1      -1.591  10.960  18.388  0.00  0.00    +0.000 C 
ATOM      2  O   UNL     1      -2.035  12.087  18.610  0.00  0.00    +0.000 OA
ATOM      3  N   UNL     1      -0.386  10.502  18.894  0.00  0.00    +0.000 N 
ATOM      4  N   UNL     1       0.171   9.320  18.485  0.00  0.00    +0.000 NA
ATOM      5  C   UNL     1       1.330   9.229  19.064  0.00  0.00    +0.000 C 
ATOM      6  C   UNL     1       1.709  10.391  19.944  0.00  0.00    +0.000 C 
ATOM      7  C   UNL     1       0.476  11.271  19.778  0.00  0.00    +0.000 C 
ENDROOT
BRANCH   7   8
ATOM      8  C   UNL     1      -0.208  11.567  21.073  0.00  0.00    +0.000 A 
ATOM      9  C   UNL     1      -0.544  10.712  22.160  0.00  0.00    +0.000 A 
ATOM     10  C   UNL     1      -0.331   9.245  22.303  0.00  0.00    +0.000 C 
ATOM     11  N   UNL     1      -1.090  11.386  23.182  0.00  0.00    +0.000 NA
ATOM     12  N   UNL     1      -1.272  12.655  22.714  0.00  0.00    +0.000 N 
ATOM     13  C   UNL     1      -0.627  12.804  21.503  0.00  0.00    +0.000 A 
ATOM     14 CL   UNL     1      -0.293  14.327  20.796  0.00  0.00    +0.000 Cl
BRANCH  12  15
ATOM     15  C   UNL     1      -2.016  13.599  23.477  0.00  0.00    +0.000 A 
ATOM     16  C   UNL     1      -1.342  14.554  24.251  0.00  0.00    +0.000 A 
ATOM     17  C   UNL     1      -2.066  15.545  24.922  0.00  0.00    +0.000 A 
ATOM     18  C   UNL     1      -3.458  15.567  24.852  0.00  0.00    +0.000 A 
ATOM     19  C   UNL     1      -4.134  14.578  24.144  0.00  0.00    +0.000 A 
ATOM     20  C   UNL     1      -3.417  13.591  23.469  0.00  0.00    +0.000 A 
ENDBRANCH  12  15
ENDBRANCH   7   8
BRANCH   5  21
ATOM     21  C   UNL     1       2.208   8.051  18.897  0.00  0.00    +0.000 A 
ATOM     22  C   UNL     1       3.026   7.977  17.760  0.00  0.00    +0.000 A 
ATOM     23  C   UNL     1       3.840   6.862  17.545  0.00  0.00    +0.000 A 
ATOM     24  C   UNL     1       3.830   5.817  18.474  0.00  0.00    +0.000 A 
ATOM     25  C   UNL     1       3.018   5.884  19.615  0.00  0.00    +0.000 A 
ATOM     26  C   UNL     1       2.209   7.005  19.825  0.00  0.00    +0.000 A 
BRANCH  24  27
ATOM     27  N   UNL     1       4.673   4.637  18.251  0.00  0.00    +0.000 N 
ATOM     28  O   UNL     1       4.515   4.006  17.197  0.00  0.00    +0.000 OA
ATOM     29  O   UNL     1       5.490   4.342  19.134  0.00  0.00    +0.000 OA
ENDBRANCH  24  27
ENDBRANCH   5  21
BRANCH   1  31
ATOM     30  C   UNL     1      -2.598  10.411  16.126  0.00  0.00    +0.000 C 
ATOM     31  C   UNL     1      -2.333   9.934  17.541  0.00  0.00    +0.000 C 
ENDBRANCH   1  31
TORSDOF 5
ENDMDL
MODEL 5
REMARK VINA RESULT:      -7.4      4.904     11.298
REMARK  Name = 
REMARK  7 active torsions:
REMARK  status: ('A' for Active; 'I' for Inactive)
REMARK    1  A    between atoms: C_1  and  C_2
REMARK    2  A    between atoms: C_2  and  C_3
REMARK    3  A    between atoms: C_7  and  C_8
REMARK    4  A    between atoms: C_11  and  N_12
REMARK    5  A    between atoms: C_18  and  C_19
REMARK    6  A    between atoms: C_20  and  C_21
REMARK    7  A    between atoms: N_23  and  C_24
REMARK                            x       y       z     vdW  Elec       q    Type
REMARK                         _______ _______ _______ _____ _____    ______ ____
ROOT
ATOM      1  C   UNL     1       0.426  13.831  21.171  0.00  0.00    +0.000 C 
ATOM      2  O   UNL     1      -0.171  14.553  21.971  0.00  0.00    +0.000 OA
ATOM      3  N   UNL     1       0.221  12.465  21.077  0.00  0.00    +0.000 N 
ATOM      4  N   UNL     1       1.023  11.660  20.313  0.00  0.00    +0.000 NA
ATOM      5  C   UNL     1       0.634  10.438  20.515  0.00  0.00    +0.000 C 
ATOM      6  C   UNL     1      -0.503  10.271  21.489  0.00  0.00    +0.000 C 
ATOM      7  C   UNL     1      -0.748  11.726  21.872  0.00  0.00    +0.000 C 
ENDROOT
BRANCH   7   8
ATOM      8  C   UNL     1      -2.142  12.179  21.579  0.00  0.00    +0.000 A 
ATOM      9  C   UNL     1      -3.150  12.691  22.445  0.00  0.00    +0.000 A 
ATOM     10  C   UNL     1      -3.110  12.894  23.919  0.00  0.00    +0.000 C 
ATOM     11  N   UNL     1      -4.251  13.058  21.774  0.00  0.00    +0.000 NA
ATOM     12  N   UNL     1      -4.043  12.638  20.492  0.00  0.00    +0.000 N 
ATOM     13  C   UNL     1      -2.733  12.232  20.339  0.00  0.00    +0.000 A 
ATOM     14 CL   UNL     1      -1.988  12.012  18.814  0.00  0.00    +0.000 Cl
BRANCH  12  15
ATOM     15  C   UNL     1      -5.102  12.692  19.541  0.00  0.00    +0.000 A 
ATOM     16  C   UNL     1      -5.345  11.590  18.708  0.00  0.00    +0.000 A 
ATOM     17  C   UNL     1      -6.444  11.599  17.844  0.00  0.00    +0.000 A 
ATOM     18  C   UNL     1      -7.279  12.714  17.781  0.00  0.00    +0.000 A 
ATOM     19  C   UNL     1      -6.999  13.836  18.553  0.00  0.00    +0.000 A 
ATOM     20  C   UNL     1      -5.908  13.831  19.421  0.00  0.00    +0.000 A 
ENDBRANCH  12  15
ENDBRANCH   7   8
BRANCH   5  21
ATOM     21  C   UNL     1       1.243   9.287  19.815  0.00  0.00    +0.000 A 
ATOM     22  C   UNL     1       1.553   8.136  20.554  0.00  0.00    +0.000 A 
ATOM     23  C   UNL     1       2.166   7.043  19.938  0.00  0.00    +0.000 A 
ATOM     24  C   UNL     1       2.472   7.107  18.575  0.00  0.00    +0.000 A 
ATOM     25  C   UNL     1       2.164   8.252  17.827  0.00  0.00    +0.000 A 
ATOM     26  C   UNL     1       1.546   9.341  18.450  0.00  0.00    +0.000 A 
BRANCH  24  27
ATOM     27  N   UNL     1       3.127   5.968  17.921  0.00  0.00    +0.000 N 
ATOM     28  O   UNL     1       4.312   6.098  17.585  0.00  0.00    +0.000 OA
ATOM     29  O   UNL     1       2.451   4.945  17.742  0.00  0.00    +0.000 OA
ENDBRANCH  24  27
ENDBRANCH   5  21
BRANCH   1  31
ATOM     30  C   UNL     1       0.816  15.008  18.958  0.00  0.00    +0.000 C 
ATOM     31  C   UNL     1       1.450  14.370  20.180  0.00  0.00    +0.000 C 
ENDBRANCH   1  31
TORSDOF 5
ENDMDL
MODEL 6
REMARK VINA RESULT:      -7.4      4.926     11.200
REMARK  Name = 
REMARK  7 active torsions:
REMARK  status: ('A' for Active; 'I' for Inactive)
REMARK    1  A    between atoms: C_1  and  C_2
REMARK    2  A    between atoms: C_2  and  C_3
REMARK    3  A    between atoms: C_7  and  C_8
REMARK    4  A    between atoms: C_11  and  N_12
REMARK    5  A    between atoms: C_18  and  C_19
REMARK    6  A    between atoms: C_20  and  C_21
REMARK    7  A    between atoms: N_23  and  C_24
REMARK                            x       y       z     vdW  Elec       q    Type
REMARK                         _______ _______ _______ _____ _____    ______ ____
ROOT
ATOM      1  C   UNL     1       0.404  13.863  21.164  0.00  0.00    +0.000 C 
ATOM      2  O   UNL     1      -0.220  14.595  21.933  0.00  0.00    +0.000 OA
ATOM      3  N   UNL     1       0.218  12.492  21.096  0.00  0.00    +0.000 N 
ATOM      4  N   UNL     1       1.048  11.681  20.370  0.00  0.00    +0.000 NA
ATOM      5  C   UNL     1       0.669  10.459  20.591  0.00  0.00    +0.000 C 
ATOM      6  C   UNL     1      -0.488  10.300  21.542  0.00  0.00    +0.000 C 
ATOM      7  C   UNL     1      -0.760  11.759  21.885  0.00  0.00    +0.000 C 
ENDROOT
BRANCH   7   8
ATOM      8  C   UNL     1      -2.152  12.188  21.551  0.00  0.00    +0.000 A 
ATOM      9  C   UNL     1      -3.207  12.645  22.390  0.00  0.00    +0.000 A 
ATOM     10  C   UNL     1      -3.232  12.799  23.871  0.00  0.00    +0.000 C 
ATOM     11  N   UNL     1      -4.289  13.008  21.687  0.00  0.00    +0.000 NA
ATOM     12  N   UNL     1      -4.019  12.637  20.402  0.00  0.00    +0.000 N 
ATOM     13  C   UNL     1      -2.694  12.268  20.290  0.00  0.00    +0.000 A 
ATOM     14 CL   UNL     1      -1.882  12.118  18.790  0.00  0.00    +0.000 Cl
BRANCH  12  15
ATOM     15  C   UNL     1      -5.039  12.696  19.410  0.00  0.00    +0.000 A 
ATOM     16  C   UNL     1      -5.904  13.800  19.366  0.00  0.00    +0.000 A 
ATOM     17  C   UNL     1      -6.841  13.910  18.334  0.00  0.00    +0.000 A 
ATOM     18  C   UNL     1      -6.943  12.910  17.368  0.00  0.00    +0.000 A 
ATOM     19  C   UNL     1      -6.135  11.780  17.450  0.00  0.00    +0.000 A 
ATOM     20  C   UNL     1      -5.196  11.666  18.473  0.00  0.00    +0.000 A 
ENDBRANCH  12  15
ENDBRANCH   7   8
BRANCH   5  21
ATOM     21  C   UNL     1       1.309   9.300  19.931  0.00  0.00    +0.000 A 
ATOM     22  C   UNL     1       1.620   9.391  18.567  0.00  0.00    +0.000 A 
ATOM     23  C   UNL     1       2.188   8.304  17.897  0.00  0.00    +0.000 A 
ATOM     24  C   UNL     1       2.441   7.122  18.600  0.00  0.00    +0.000 A 
ATOM     25  C   UNL     1       2.136   7.024  19.965  0.00  0.00    +0.000 A 
ATOM     26  C   UNL     1       1.572   8.117  20.629  0.00  0.00    +0.000 A 
BRANCH  24  27
ATOM     27  N   UNL     1       3.027   5.971  17.903  0.00  0.00    +0.000 N 
ATOM     28  O   UNL     1       2.475   4.871  18.041  0.00  0.00    +0.000 OA
ATOM     29  O   UNL     1       4.041   6.171  17.220  0.00  0.00    +0.000 OA
ENDBRANCH  24  27
ENDBRANCH   5  21
BRANCH   1  31
ATOM     30  C   UNL     1       0.831  15.115  18.999  0.00  0.00    +0.000 C 
ATOM     31  C   UNL     1       1.444  14.392  20.184  0.00  0.00    +0.000 C 
ENDBRANCH   1  31
TORSDOF 5
ENDMDL
MODEL 7
REMARK VINA RESULT:      -7.3      4.794     11.410
REMARK  Name = 
REMARK  7 active torsions:
REMARK  status: ('A' for Active; 'I' for Inactive)
REMARK    1  A    between atoms: C_1  and  C_2
REMARK    2  A    between atoms: C_2  and  C_3
REMARK    3  A    between atoms: C_7  and  C_8
REMARK    4  A    between atoms: C_11  and  N_12
REMARK    5  A    between atoms: C_18  and  C_19
REMARK    6  A    between atoms: C_20  and  C_21
REMARK    7  A    between atoms: N_23  and  C_24
REMARK                            x       y       z     vdW  Elec       q    Type
REMARK                         _______ _______ _______ _____ _____    ______ ____
ROOT
ATOM      1  C   UNL     1       0.750  13.234  19.266  0.00  0.00    +0.000 C 
ATOM      2  O   UNL     1       0.115  14.157  19.775  0.00  0.00    +0.000 OA
ATOM      3  N   UNL     1       0.555  11.902  19.595  0.00  0.00    +0.000 N 
ATOM      4  N   UNL     1       1.394  10.914  19.155  0.00  0.00    +0.000 NA
ATOM      5  C   UNL     1       1.001   9.809  19.713  0.00  0.00    +0.000 C 
ATOM      6  C   UNL     1      -0.177   9.934  20.642  0.00  0.00    +0.000 C 
ATOM      7  C   UNL     1      -0.446  11.431  20.540  0.00  0.00    +0.000 C 
ENDROOT
BRANCH   7   8
ATOM      8  C   UNL     1      -1.827  11.745  20.064  0.00  0.00    +0.000 A 
ATOM      9  C   UNL     1      -2.445  11.519  18.802  0.00  0.00    +0.000 A 
ATOM     10  C   UNL     1      -1.869  10.920  17.567  0.00  0.00    +0.000 C 
ATOM     11  N   UNL     1      -3.736  11.881  18.801  0.00  0.00    +0.000 NA
ATOM     12  N   UNL     1      -3.933  12.500  20.001  0.00  0.00    +0.000 N 
ATOM     13  C   UNL     1      -2.834  12.306  20.813  0.00  0.00    +0.000 A 
ATOM     14 CL   UNL     1      -2.851  12.584  22.502  0.00  0.00    +0.000 Cl
BRANCH  12  15
ATOM     15  C   UNL     1      -5.152  13.189  20.259  0.00  0.00    +0.000 A 
ATOM     16  C   UNL     1      -6.355  12.472  20.325  0.00  0.00    +0.000 A 
ATOM     17  C   UNL     1      -7.539  13.128  20.678  0.00  0.00    +0.000 A 
ATOM     18  C   UNL     1      -7.534  14.499  20.930  0.00  0.00    +0.000 A 
ATOM     19  C   UNL     1      -6.355  15.226  20.796  0.00  0.00    +0.000 A 
ATOM     20  C   UNL     1      -5.171  14.577  20.450  0.00  0.00    +0.000 A 
ENDBRANCH  12  15
ENDBRANCH   7   8
BRANCH   5  21
ATOM     21  C   UNL     1       1.646   8.508  19.433  0.00  0.00    +0.000 A 
ATOM     22  C   UNL     1       2.209   8.295  18.165  0.00  0.00    +0.000 A 
ATOM     23  C   UNL     1       2.791   7.066  17.848  0.00  0.00    +0.000 A 
ATOM     24  C   UNL     1       2.806   6.047  18.805  0.00  0.00    +0.000 A 
ATOM     25  C   UNL     1       2.249   6.252  20.075  0.00  0.00    +0.000 A 
ATOM     26  C   UNL     1       1.671   7.486  20.387  0.00  0.00    +0.000 A 
BRANCH  24  27
ATOM     27  N   UNL     1       3.406   4.748  18.476  0.00  0.00    +0.000 N 
ATOM     28  O   UNL     1       3.482   3.903  19.379  0.00  0.00    +0.000 OA
ATOM     29  O   UNL     1       3.803   4.578  17.316  0.00  0.00    +0.000 OA
ENDBRANCH  24  27
ENDBRANCH   5  21
BRANCH   1  31
ATOM     30  C   UNL     1       2.962  14.325  18.677  0.00  0.00    +0.000 C 
ATOM     31  C   UNL     1       1.815  13.454  18.200  0.00  0.00    +0.000 C 
ENDBRANCH   1  31
TORSDOF 5
ENDMDL
MODEL 8
REMARK VINA RESULT:      -7.3      4.820     11.267
REMARK  Name = 
REMARK  7 active torsions:
REMARK  status: ('A' for Active; 'I' for Inactive)
REMARK    1  A    between atoms: C_1  and  C_2
REMARK    2  A    between atoms: C_2  and  C_3
REMARK    3  A    between atoms: C_7  and  C_8
REMARK    4  A    between atoms: C_11  and  N_12
REMARK    5  A    between atoms: C_18  and  C_19
REMARK    6  A    between atoms: C_20  and  C_21
REMARK    7  A    between atoms: N_23  and  C_24
REMARK                            x       y       z     vdW  Elec       q    Type
REMARK                         _______ _______ _______ _____ _____    ______ ____
ROOT
ATOM      1  C   UNL     1       0.504  14.000  20.387  0.00  0.00    +0.000 C 
ATOM      2  O   UNL     1      -0.027  14.809  21.147  0.00  0.00    +0.000 OA
ATOM      3  N   UNL     1       0.343  12.629  20.499  0.00  0.00    +0.000 N 
ATOM      4  N   UNL     1       1.086  11.747  19.761  0.00  0.00    +0.000 NA
ATOM      5  C   UNL     1       0.770  10.555  20.167  0.00  0.00    +0.000 C 
ATOM      6  C   UNL     1      -0.243  10.496  21.280  0.00  0.00    +0.000 C 
ATOM      7  C   UNL     1      -0.501  11.982  21.492  0.00  0.00    +0.000 C 
ENDROOT
BRANCH   7   8
ATOM      8  C   UNL     1      -1.935  12.359  21.307  0.00  0.00    +0.000 A 
ATOM      9  C   UNL     1      -2.880  12.889  22.230  0.00  0.00    +0.000 A 
ATOM     10  C   UNL     1      -2.711  13.196  23.677  0.00  0.00    +0.000 C 
ATOM     11  N   UNL     1      -4.055  13.165  21.645  0.00  0.00    +0.000 NA
ATOM     12  N   UNL     1      -3.949  12.666  20.380  0.00  0.00    +0.000 N 
ATOM     13  C   UNL     1      -2.642  12.302  20.129  0.00  0.00    +0.000 A 
ATOM     14 CL   UNL     1      -2.033  12.005  18.557  0.00  0.00    +0.000 Cl
BRANCH  12  15
ATOM     15  C   UNL     1      -5.093  12.611  19.534  0.00  0.00    +0.000 A 
ATOM     16  C   UNL     1      -5.871  13.761  19.340  0.00  0.00    +0.000 A 
ATOM     17  C   UNL     1      -6.935  13.738  18.433  0.00  0.00    +0.000 A 
ATOM     18  C   UNL     1      -7.248  12.565  17.747  0.00  0.00    +0.000 A 
ATOM     19  C   UNL     1      -6.523  11.402  17.991  0.00  0.00    +0.000 A 
ATOM     20  C   UNL     1      -5.458  11.421  18.890  0.00  0.00    +0.000 A 
ENDBRANCH  12  15
ENDBRANCH   7   8
BRANCH   5  21
ATOM     21  C   UNL     1       1.341   9.334  19.559  0.00  0.00    +0.000 A 
ATOM     22  C   UNL     1       1.577   8.221  20.379  0.00  0.00    +0.000 A 
ATOM     23  C   UNL     1       2.152   7.063  19.852  0.00  0.00    +0.000 A 
ATOM     24  C   UNL     1       2.496   7.024  18.497  0.00  0.00    +0.000 A 
ATOM     25  C   UNL     1       2.261   8.130  17.669  0.00  0.00    +0.000 A 
ATOM     26  C   UNL     1       1.680   9.285  18.203  0.00  0.00    +0.000 A 
BRANCH  24  27
ATOM     27  N   UNL     1       3.111   5.815  17.936  0.00  0.00    +0.000 N 
ATOM     28  O   UNL     1       2.580   4.725  18.192  0.00  0.00    +0.000 OA
ATOM     29  O   UNL     1       4.127   5.959  17.242  0.00  0.00    +0.000 OA
ENDBRANCH  24  27
ENDBRANCH   5  21
BRANCH   1  31
ATOM     30  C   UNL     1       1.494  15.928  19.069  0.00  0.00    +0.000 C 
ATOM     31  C   UNL     1       1.389  14.422  19.221  0.00  0.00    +0.000 C 
ENDBRANCH   1  31
TORSDOF 5
ENDMDL
MODEL 9
REMARK VINA RESULT:      -7.3      5.251     11.854
REMARK  Name = 
REMARK  7 active torsions:
REMARK  status: ('A' for Active; 'I' for Inactive)
REMARK    1  A    between atoms: C_1  and  C_2
REMARK    2  A    between atoms: C_2  and  C_3
REMARK    3  A    between atoms: C_7  and  C_8
REMARK    4  A    between atoms: C_11  and  N_12
REMARK    5  A    between atoms: C_18  and  C_19
REMARK    6  A    between atoms: C_20  and  C_21
REMARK    7  A    between atoms: N_23  and  C_24
REMARK                            x       y       z     vdW  Elec       q    Type
REMARK                         _______ _______ _______ _____ _____    ______ ____
ROOT
ATOM      1  C   UNL     1       0.614  13.705  20.678  0.00  0.00    +0.000 C 
ATOM      2  O   UNL     1      -0.020  14.480  21.394  0.00  0.00    +0.000 OA
ATOM      3  N   UNL     1       0.400  12.337  20.658  0.00  0.00    +0.000 N 
ATOM      4  N   UNL     1       1.237  11.480  19.995  0.00  0.00    +0.000 NA
ATOM      5  C   UNL     1       0.824  10.276  20.250  0.00  0.00    +0.000 C 
ATOM      6  C   UNL     1      -0.369  10.179  21.164  0.00  0.00    +0.000 C 
ATOM      7  C   UNL     1      -0.621  11.656  21.440  0.00  0.00    +0.000 C 
ENDROOT
BRANCH   7   8
ATOM      8  C   UNL     1      -1.990  12.100  21.039  0.00  0.00    +0.000 A 
ATOM      9  C   UNL     1      -2.579  12.239  19.750  0.00  0.00    +0.000 A 
ATOM     10  C   UNL     1      -1.973  12.008  18.410  0.00  0.00    +0.000 C 
ATOM     11  N   UNL     1      -3.870  12.595  19.822  0.00  0.00    +0.000 NA
ATOM     12  N   UNL     1      -4.095  12.854  21.142  0.00  0.00    +0.000 N 
ATOM     13  C   UNL     1      -3.016  12.434  21.892  0.00  0.00    +0.000 A 
ATOM     14 CL   UNL     1      -3.073  12.227  23.591  0.00  0.00    +0.000 Cl
BRANCH  12  15
ATOM     15  C   UNL     1      -5.321  13.449  21.556  0.00  0.00    +0.000 A 
ATOM     16  C   UNL     1      -5.358  14.813  21.880  0.00  0.00    +0.000 A 
ATOM     17  C   UNL     1      -6.578  15.423  22.189  0.00  0.00    +0.000 A 
ATOM     18  C   UNL     1      -7.753  14.672  22.211  0.00  0.00    +0.000 A 
ATOM     19  C   UNL     1      -7.708  13.305  21.960  0.00  0.00    +0.000 A 
ATOM     20  C   UNL     1      -6.496  12.692  21.646  0.00  0.00    +0.000 A 
ENDBRANCH  12  15
ENDBRANCH   7   8
BRANCH   5  21
ATOM     21  C   UNL     1       1.460   9.079  19.660  0.00  0.00    +0.000 A 
ATOM     22  C   UNL     1       1.791   9.095  18.297  0.00  0.00    +0.000 A 
ATOM     23  C   UNL     1       2.357   7.970  17.693  0.00  0.00    +0.000 A 
ATOM     24  C   UNL     1       2.588   6.823  18.459  0.00  0.00    +0.000 A 
ATOM     25  C   UNL     1       2.263   6.799  19.823  0.00  0.00    +0.000 A 
ATOM     26  C   UNL     1       1.701   7.931  20.422  0.00  0.00    +0.000 A 
BRANCH  24  27
ATOM     27  N   UNL     1       3.172   5.633  17.830  0.00  0.00    +0.000 N 
ATOM     28  O   UNL     1       2.480   4.606  17.785  0.00  0.00    +0.000 OA
ATOM     29  O   UNL     1       4.324   5.727  17.385  0.00  0.00    +0.000 OA
ENDBRANCH  24  27
ENDBRANCH   5  21
BRANCH   1  31
ATOM     30  C   UNL     1       1.317  15.429  18.955  0.00  0.00    +0.000 C 
ATOM     31  C   UNL     1       1.699  14.173  19.716  0.00  0.00    +0.000 C 
ENDBRANCH   1  31
TORSDOF 5
ENDMDL
