MODEL 1
REMARK VINA RESULT:      -7.4      0.000      0.000
REMARK  Name = 
REMARK  4 active torsions:
REMARK  status: ('A' for Active; 'I' for Inactive)
REMARK    1  A    between atoms: O_1  and  C_2
REMARK    2  A    between atoms: N_8  and  C_9
REMARK    3  A    between atoms: N_18  and  C_19
REMARK    4  A    between atoms: C_19  and  C_20
REMARK                            x       y       z     vdW  Elec       q    Type
REMARK                         _______ _______ _______ _____ _____    ______ ____
ROOT
ATOM      1  C   UNL     1       0.130  12.673  19.010  0.00  0.00    +0.000 C 
ATOM      2  C   UNL     1      -1.406  12.669  19.190  0.00  0.00    +0.000 C 
ATOM      3  C   UNL     1      -1.986  11.542  18.422  0.00  0.00    +0.000 A 
ATOM      4  C   UNL     1      -1.257  10.398  18.179  0.00  0.00    +0.000 A 
ATOM      5  C   UNL     1      -2.200   9.493  17.665  0.00  0.00    +0.000 A 
ATOM      6  N   UNL     1      -3.443   9.978  17.706  0.00  0.00    +0.000 NA
ATOM      7  N   UNL     1      -3.310  11.251  18.173  0.00  0.00    +0.000 N 
ATOM      8  C   UNL     1       0.116  10.186  18.780  0.00  0.00    +0.000 C 
ATOM      9  C   UNL     1      -0.150   9.607  20.191  0.00  0.00    +0.000 C 
ATOM     10  C   UNL     1       0.957   8.808  20.863  0.00  0.00    +0.000 C 
ATOM     11  N   UNL     1       1.849   8.020  20.028  0.00  0.00    +0.000 NA
ATOM     12  C   UNL     1       2.178   8.650  18.752  0.00  0.00    +0.000 C 
ATOM     13  C   UNL     1       0.998   9.229  17.957  0.00  0.00    +0.000 C 
ATOM     14  O   UNL     1       0.847  11.430  18.943  0.00  0.00    +0.000 OA
ENDROOT
BRANCH   7  15
ATOM     15  C   UNL     1      -4.454  12.015  18.521  0.00  0.00    +0.000 A 
ATOM     16  C   UNL     1      -5.426  12.277  17.545  0.00  0.00    +0.000 A 
ATOM     17  C   UNL     1      -6.590  12.970  17.889  0.00  0.00    +0.000 A 
ATOM     18  C   UNL     1      -6.770  13.431  19.194  0.00  0.00    +0.000 A 
ATOM     19  C   UNL     1      -5.787  13.197  20.156  0.00  0.00    +0.000 A 
ATOM     20  C   UNL     1      -4.633  12.486  19.825  0.00  0.00    +0.000 A 
ENDBRANCH   7  15
BRANCH   1  21
ATOM     21  O   UNL     1       0.441  13.468  17.863  0.00  0.00    +0.000 OA
ATOM     22  H   UNL     1       1.365  13.275  17.633  0.00  0.00    +0.000 HD
ENDBRANCH   1  21
BRANCH  11  23
ATOM     23  C   UNL     1       1.559   6.578  20.046  0.00  0.00    +0.000 C 
BRANCH  23  24
ATOM     24  C   UNL     1       2.522   5.729  19.238  0.00  0.00    +0.000 A 
ATOM     25  C   UNL     1       2.101   5.031  18.088  0.00  0.00    +0.000 A 
ATOM     26  C   UNL     1       2.999   4.242  17.371  0.00  0.00    +0.000 A 
ATOM     27  C   UNL     1       4.315   4.122  17.788  0.00  0.00    +0.000 A 
ATOM     28  C   UNL     1       4.749   4.832  18.907  0.00  0.00    +0.000 A 
ATOM     29  C   UNL     1       3.860   5.634  19.621  0.00  0.00    +0.000 A 
ENDBRANCH  23  24
ENDBRANCH  11  23
TORSDOF 4
ENDMDL
MODEL 2
REMARK VINA RESULT:      -7.2      0.374      1.339
REMARK  Name = 
REMARK  4 active torsions:
REMARK  status: ('A' for Active; 'I' for Inactive)
REMARK    1  A    between atoms: O_1  and  C_2
REMARK    2  A    between atoms: N_8  and  C_9
REMARK    3  A    between atoms: N_18  and  C_19
REMARK    4  A    between atoms: C_19  and  C_20
REMARK                            x       y       z     vdW  Elec       q    Type
REMARK                         _______ _______ _______ _____ _____    ______ ____
ROOT
ATOM      1  C   UNL     1       0.343  12.606  19.290  0.00  0.00    +0.000 C 
ATOM      2  C   UNL     1      -1.191  12.597  19.483  0.00  0.00    +0.000 C 
ATOM      3  C   UNL     1      -1.788  11.559  18.610  0.00  0.00    +0.000 A 
ATOM      4  C   UNL     1      -1.072  10.440  18.244  0.00  0.00    +0.000 A 
ATOM      5  C   UNL     1      -2.028   9.600  17.649  0.00  0.00    +0.000 A 
ATOM      6  N   UNL     1      -3.266  10.089  17.752  0.00  0.00    +0.000 NA
ATOM      7  N   UNL     1      -3.118  11.306  18.344  0.00  0.00    +0.000 N 
ATOM      8  C   UNL     1       0.304  10.156  18.807  0.00  0.00    +0.000 C 
ATOM      9  C   UNL     1       0.044   9.439  20.154  0.00  0.00    +0.000 C 
ATOM     10  C   UNL     1       1.149   8.565  20.730  0.00  0.00    +0.000 C 
ATOM     11  N   UNL     1       2.027   7.859  19.811  0.00  0.00    +0.000 NA
ATOM     12  C   UNL     1       2.351   8.614  18.602  0.00  0.00    +0.000 C 
ATOM     13  C   UNL     1       1.170   9.281  17.882  0.00  0.00    +0.000 C 
ATOM     14  O   UNL     1       1.048  11.371  19.089  0.00  0.00    +0.000 OA
ENDROOT
BRANCH   7  15
ATOM     15  C   UNL     1      -4.251  12.041  18.779  0.00  0.00    +0.000 A 
ATOM     16  C   UNL     1      -4.265  12.576  20.075  0.00  0.00    +0.000 A 
ATOM     17  C   UNL     1      -5.344  13.359  20.494  0.00  0.00    +0.000 A 
ATOM     18  C   UNL     1      -6.423  13.580  19.637  0.00  0.00    +0.000 A 
ATOM     19  C   UNL     1      -6.422  13.019  18.359  0.00  0.00    +0.000 A 
ATOM     20  C   UNL     1      -5.338  12.256  17.926  0.00  0.00    +0.000 A 
ENDBRANCH   7  15
BRANCH   1  21
ATOM     21  O   UNL     1       0.651  13.512  18.227  0.00  0.00    +0.000 OA
ATOM     22  H   UNL     1       1.180  14.228  18.617  0.00  0.00    +0.000 HD
ENDBRANCH   1  21
BRANCH  11  23
ATOM     23  C   UNL     1       1.724   6.425  19.684  0.00  0.00    +0.000 C 
BRANCH  23  24
ATOM     24  C   UNL     1       2.805   5.607  19.006  0.00  0.00    +0.000 A 
ATOM     25  C   UNL     1       4.125   5.576  19.501  0.00  0.00    +0.000 A 
ATOM     26  C   UNL     1       5.107   4.831  18.851  0.00  0.00    +0.000 A 
ATOM     27  C   UNL     1       4.803   4.120  17.702  0.00  0.00    +0.000 A 
ATOM     28  C   UNL     1       3.494   4.119  17.221  0.00  0.00    +0.000 A 
ATOM     29  C   UNL     1       2.503   4.851  17.873  0.00  0.00    +0.000 A 
ENDBRANCH  23  24
ENDBRANCH  11  23
TORSDOF 4
ENDMDL
MODEL 3
REMARK VINA RESULT:      -7.2      2.663      8.676
REMARK  Name = 
REMARK  4 active torsions:
REMARK  status: ('A' for Active; 'I' for Inactive)
REMARK    1  A    between atoms: O_1  and  C_2
REMARK    2  A    between atoms: N_8  and  C_9
REMARK    3  A    between atoms: N_18  and  C_19
REMARK    4  A    between atoms: C_19  and  C_20
REMARK                            x       y       z     vdW  Elec       q    Type
REMARK                         _______ _______ _______ _____ _____    ______ ____
ROOT
ATOM      1  C   UNL     1      -3.392  10.195  15.836  0.00  0.00    +0.000 C 
ATOM      2  C   UNL     1      -2.285   9.705  16.799  0.00  0.00    +0.000 C 
ATOM      3  C   UNL     1      -2.054  10.731  17.842  0.00  0.00    +0.000 A 
ATOM      4  C   UNL     1      -3.060  11.587  18.233  0.00  0.00    +0.000 A 
ATOM      5  C   UNL     1      -2.549  12.217  19.379  0.00  0.00    +0.000 A 
ATOM      6  N   UNL     1      -1.376  11.705  19.759  0.00  0.00    +0.000 NA
ATOM      7  N   UNL     1      -1.066  10.785  18.803  0.00  0.00    +0.000 N 
ATOM      8  C   UNL     1      -4.473  11.447  17.709  0.00  0.00    +0.000 C 
ATOM      9  C   UNL     1      -5.137  10.392  18.627  0.00  0.00    +0.000 C 
ATOM     10  C   UNL     1      -6.656  10.380  18.730  0.00  0.00    +0.000 C 
ATOM     11  N   UNL     1      -7.369  11.642  18.617  0.00  0.00    +0.000 NA
ATOM     12  C   UNL     1      -6.785  12.570  17.651  0.00  0.00    +0.000 C 
ATOM     13  C   UNL     1      -5.264  12.767  17.734  0.00  0.00    +0.000 C 
ATOM     14  O   UNL     1      -4.511  10.936  16.350  0.00  0.00    +0.000 OA
ENDROOT
BRANCH   7  15
ATOM     15  C   UNL     1       0.035   9.907  18.976  0.00  0.00    +0.000 A 
ATOM     16  C   UNL     1       0.268   9.339  20.237  0.00  0.00    +0.000 A 
ATOM     17  C   UNL     1       1.306   8.420  20.407  0.00  0.00    +0.000 A 
ATOM     18  C   UNL     1       2.134   8.093  19.331  0.00  0.00    +0.000 A 
ATOM     19  C   UNL     1       1.921   8.684  18.085  0.00  0.00    +0.000 A 
ATOM     20  C   UNL     1       0.871   9.584  17.903  0.00  0.00    +0.000 A 
ENDBRANCH   7  15
BRANCH   1  21
ATOM     21  O   UNL     1      -2.769  10.935  14.783  0.00  0.00    +0.000 OA
ATOM     22  H   UNL     1      -2.046  11.441  15.189  0.00  0.00    +0.000 HD
ENDBRANCH   1  21
BRANCH  11  23
ATOM     23  C   UNL     1      -7.842  12.173  19.905  0.00  0.00    +0.000 C 
BRANCH  23  24
ATOM     24  C   UNL     1      -6.850  13.067  20.624  0.00  0.00    +0.000 A 
ATOM     25  C   UNL     1      -5.785  12.530  21.375  0.00  0.00    +0.000 A 
ATOM     26  C   UNL     1      -4.896  13.370  22.042  0.00  0.00    +0.000 A 
ATOM     27  C   UNL     1      -5.054  14.745  21.987  0.00  0.00    +0.000 A 
ATOM     28  C   UNL     1      -6.086  15.288  21.222  0.00  0.00    +0.000 A 
ATOM     29  C   UNL     1      -6.972  14.454  20.541  0.00  0.00    +0.000 A 
ENDBRANCH  23  24
ENDBRANCH  11  23
TORSDOF 4
ENDMDL
MODEL 4
REMARK VINA RESULT:      -7.0      1.642      1.985
REMARK  Name = 
REMARK  4 active torsions:
REMARK  status: ('A' for Active; 'I' for Inactive)
REMARK    1  A    between atoms: O_1  and  C_2
REMARK    2  A    between atoms: N_8  and  C_9
REMARK    3  A    between atoms: N_18  and  C_19
REMARK    4  A    between atoms: C_19  and  C_20
REMARK                            x       y       z     vdW  Elec       q    Type
REMARK                         _______ _______ _______ _____ _____    ______ ____
ROOT
ATOM      1  C   UNL     1       1.435  12.107  19.891  0.00  0.00    +0.000 C 
ATOM      2  C   UNL     1      -0.068  12.218  20.240  0.00  0.00    +0.000 C 
ATOM      3  C   UNL     1      -0.865  11.535  19.195  0.00  0.00    +0.000 A 
ATOM      4  C   UNL     1      -0.340  10.487  18.472  0.00  0.00    +0.000 A 
ATOM      5  C   UNL     1      -1.444   9.957  17.783  0.00  0.00    +0.000 A 
ATOM      6  N   UNL     1      -2.591  10.535  18.145  0.00  0.00    +0.000 NA
ATOM      7  N   UNL     1      -2.233  11.517  19.018  0.00  0.00    +0.000 N 
ATOM      8  C   UNL     1       1.021   9.905  18.787  0.00  0.00    +0.000 C 
ATOM      9  C   UNL     1       0.765   8.879  19.917  0.00  0.00    +0.000 C 
ATOM     10  C   UNL     1       1.779   7.761  20.119  0.00  0.00    +0.000 C 
ATOM     11  N   UNL     1       2.480   7.241  18.956  0.00  0.00    +0.000 NA
ATOM     12  C   UNL     1       2.815   8.258  17.962  0.00  0.00    +0.000 C 
ATOM     13  C   UNL     1       1.688   9.226  17.576  0.00  0.00    +0.000 C 
ATOM     14  O   UNL     1       1.945  10.903  19.296  0.00  0.00    +0.000 OA
ENDROOT
BRANCH   7  15
ATOM     15  C   UNL     1      -3.218  12.227  19.752  0.00  0.00    +0.000 A 
ATOM     16  C   UNL     1      -4.507  12.361  19.216  0.00  0.00    +0.000 A 
ATOM     17  C   UNL     1      -5.507  12.998  19.957  0.00  0.00    +0.000 A 
ATOM     18  C   UNL     1      -5.215  13.530  21.213  0.00  0.00    +0.000 A 
ATOM     19  C   UNL     1      -3.924  13.424  21.731  0.00  0.00    +0.000 A 
ATOM     20  C   UNL     1      -2.927  12.769  21.007  0.00  0.00    +0.000 A 
ENDBRANCH   7  15
BRANCH   1  21
ATOM     21  O   UNL     1       1.786  13.230  19.078  0.00  0.00    +0.000 OA
ATOM     22  H   UNL     1       1.064  13.345  18.437  0.00  0.00    +0.000 HD
ENDBRANCH   1  21
BRANCH  11  23
ATOM     23  C   UNL     1       1.973   5.941  18.490  0.00  0.00    +0.000 C 
BRANCH  23  24
ATOM     24  C   UNL     1       2.185   4.795  19.459  0.00  0.00    +0.000 A 
ATOM     25  C   UNL     1       1.169   4.382  20.346  0.00  0.00    +0.000 A 
ATOM     26  C   UNL     1       1.393   3.338  21.241  0.00  0.00    +0.000 A 
ATOM     27  C   UNL     1       2.621   2.698  21.280  0.00  0.00    +0.000 A 
ATOM     28  C   UNL     1       3.622   3.077  20.387  0.00  0.00    +0.000 A 
ATOM     29  C   UNL     1       3.402   4.113  19.480  0.00  0.00    +0.000 A 
ENDBRANCH  23  24
ENDBRANCH  11  23
TORSDOF 4
ENDMDL
MODEL 5
REMARK VINA RESULT:      -6.9      0.926      1.289
REMARK  Name = 
REMARK  4 active torsions:
REMARK  status: ('A' for Active; 'I' for Inactive)
REMARK    1  A    between atoms: O_1  and  C_2
REMARK    2  A    between atoms: N_8  and  C_9
REMARK    3  A    between atoms: N_18  and  C_19
REMARK    4  A    between atoms: C_19  and  C_20
REMARK                            x       y       z     vdW  Elec       q    Type
REMARK                         _______ _______ _______ _____ _____    ______ ____
ROOT
ATOM      1  C   UNL     1      -0.551  12.884  19.382  0.00  0.00    +0.000 C 
ATOM      2  C   UNL     1      -2.075  12.626  19.322  0.00  0.00    +0.000 C 
ATOM      3  C   UNL     1      -2.356  11.582  18.309  0.00  0.00    +0.000 A 
ATOM      4  C   UNL     1      -1.420  10.617  18.006  0.00  0.00    +0.000 A 
ATOM      5  C   UNL     1      -2.125   9.690  17.219  0.00  0.00    +0.000 A 
ATOM      6  N   UNL     1      -3.427   9.976  17.145  0.00  0.00    +0.000 NA
ATOM      7  N   UNL     1      -3.571  11.151  17.818  0.00  0.00    +0.000 N 
ATOM      8  C   UNL     1      -0.118  10.502  18.769  0.00  0.00    +0.000 C 
ATOM      9  C   UNL     1      -0.460   9.650  20.016  0.00  0.00    +0.000 C 
ATOM     10  C   UNL     1       0.673   8.912  20.716  0.00  0.00    +0.000 C 
ATOM     11  N   UNL     1       1.783   8.422  19.915  0.00  0.00    +0.000 NA
ATOM     12  C   UNL     1       2.159   9.310  18.817  0.00  0.00    +0.000 C 
ATOM     13  C   UNL     1       1.009   9.844  17.952  0.00  0.00    +0.000 C 
ATOM     14  O   UNL     1       0.367  11.790  19.232  0.00  0.00    +0.000 OA
ENDROOT
BRANCH   7  15
ATOM     15  C   UNL     1      -4.861  11.668  18.102  0.00  0.00    +0.000 A 
ATOM     16  C   UNL     1      -5.366  11.572  19.406  0.00  0.00    +0.000 A 
ATOM     17  C   UNL     1      -6.606  12.137  19.717  0.00  0.00    +0.000 A 
ATOM     18  C   UNL     1      -7.357  12.765  18.723  0.00  0.00    +0.000 A 
ATOM     19  C   UNL     1      -6.867  12.832  17.418  0.00  0.00    +0.000 A 
ATOM     20  C   UNL     1      -5.620  12.290  17.106  0.00  0.00    +0.000 A 
ENDBRANCH   7  15
BRANCH   1  21
ATOM     21  O   UNL     1      -0.237  13.907  18.433  0.00  0.00    +0.000 OA
ATOM     22  H   UNL     1       0.373  13.510  17.789  0.00  0.00    +0.000 HD
ENDBRANCH   1  21
BRANCH  11  23
ATOM     23  C   UNL     1       1.740   6.973  19.664  0.00  0.00    +0.000 C 
BRANCH  23  24
ATOM     24  C   UNL     1       2.992   6.403  19.026  0.00  0.00    +0.000 A 
ATOM     25  C   UNL     1       3.405   6.795  17.736  0.00  0.00    +0.000 A 
ATOM     26  C   UNL     1       4.549   6.244  17.163  0.00  0.00    +0.000 A 
ATOM     27  C   UNL     1       5.290   5.295  17.848  0.00  0.00    +0.000 A 
ATOM     28  C   UNL     1       4.908   4.924  19.136  0.00  0.00    +0.000 A 
ATOM     29  C   UNL     1       3.772   5.479  19.721  0.00  0.00    +0.000 A 
ENDBRANCH  23  24
ENDBRANCH  11  23
TORSDOF 4
ENDMDL
MODEL 6
REMARK VINA RESULT:      -6.8      1.815      2.388
REMARK  Name = 
REMARK  4 active torsions:
REMARK  status: ('A' for Active; 'I' for Inactive)
REMARK    1  A    between atoms: O_1  and  C_2
REMARK    2  A    between atoms: N_8  and  C_9
REMARK    3  A    between atoms: N_18  and  C_19
REMARK    4  A    between atoms: C_19  and  C_20
REMARK                            x       y       z     vdW  Elec       q    Type
REMARK                         _______ _______ _______ _____ _____    ______ ____
ROOT
ATOM      1  C   UNL     1      -1.096  13.230  21.528  0.00  0.00    +0.000 C 
ATOM      2  C   UNL     1      -2.584  12.813  21.477  0.00  0.00    +0.000 C 
ATOM      3  C   UNL     1      -2.961  12.514  20.076  0.00  0.00    +0.000 A 
ATOM      4  C   UNL     1      -2.025  12.066  19.169  0.00  0.00    +0.000 A 
ATOM      5  C   UNL     1      -2.788  11.664  18.059  0.00  0.00    +0.000 A 
ATOM      6  N   UNL     1      -4.100  11.725  18.297  0.00  0.00    +0.000 NA
ATOM      7  N   UNL     1      -4.208  12.256  19.547  0.00  0.00    +0.000 N 
ATOM      8  C   UNL     1      -0.605  11.744  19.582  0.00  0.00    +0.000 C 
ATOM      9  C   UNL     1      -0.662  10.288  20.105  0.00  0.00    +0.000 C 
ATOM     10  C   UNL     1       0.625   9.475  20.116  0.00  0.00    +0.000 C 
ATOM     11  N   UNL     1       1.611   9.723  19.077  0.00  0.00    +0.000 NA
ATOM     12  C   UNL     1       1.726  11.127  18.690  0.00  0.00    +0.000 C 
ATOM     13  C   UNL     1       0.407  11.869  18.429  0.00  0.00    +0.000 C 
ATOM     14  O   UNL     1      -0.141  12.587  20.670  0.00  0.00    +0.000 OA
ENDROOT
BRANCH   7  15
ATOM     15  C   UNL     1      -5.463  12.299  20.207  0.00  0.00    +0.000 A 
ATOM     16  C   UNL     1      -6.367  11.242  20.031  0.00  0.00    +0.000 A 
ATOM     17  C   UNL     1      -7.578  11.237  20.728  0.00  0.00    +0.000 A 
ATOM     18  C   UNL     1      -7.905  12.300  21.571  0.00  0.00    +0.000 A 
ATOM     19  C   UNL     1      -7.019  13.368  21.719  0.00  0.00    +0.000 A 
ATOM     20  C   UNL     1      -5.797  13.368  21.045  0.00  0.00    +0.000 A 
ENDBRANCH   7  15
BRANCH   1  21
ATOM     21  O   UNL     1      -1.026  14.647  21.347  0.00  0.00    +0.000 OA
ATOM     22  H   UNL     1      -0.836  14.798  20.406  0.00  0.00    +0.000 HD
ENDBRANCH   1  21
BRANCH  11  23
ATOM     23  C   UNL     1       1.630   8.699  18.020  0.00  0.00    +0.000 C 
BRANCH  23  24
ATOM     24  C   UNL     1       2.618   7.572  18.249  0.00  0.00    +0.000 A 
ATOM     25  C   UNL     1       2.460   6.658  19.310  0.00  0.00    +0.000 A 
ATOM     26  C   UNL     1       3.392   5.641  19.512  0.00  0.00    +0.000 A 
ATOM     27  C   UNL     1       4.492   5.522  18.679  0.00  0.00    +0.000 A 
ATOM     28  C   UNL     1       4.641   6.401  17.607  0.00  0.00    +0.000 A 
ATOM     29  C   UNL     1       3.707   7.414  17.392  0.00  0.00    +0.000 A 
ENDBRANCH  23  24
ENDBRANCH  11  23
TORSDOF 4
ENDMDL
MODEL 7
REMARK VINA RESULT:      -6.8      3.011      8.776
REMARK  Name = 
REMARK  4 active torsions:
REMARK  status: ('A' for Active; 'I' for Inactive)
REMARK    1  A    between atoms: O_1  and  C_2
REMARK    2  A    between atoms: N_8  and  C_9
REMARK    3  A    between atoms: N_18  and  C_19
REMARK    4  A    between atoms: C_19  and  C_20
REMARK                            x       y       z     vdW  Elec       q    Type
REMARK                         _______ _______ _______ _____ _____    ______ ____
ROOT
ATOM      1  C   UNL     1      -4.504  11.112  17.212  0.00  0.00    +0.000 C 
ATOM      2  C   UNL     1      -3.257  10.561  17.944  0.00  0.00    +0.000 C 
ATOM      3  C   UNL     1      -2.751  11.585  18.886  0.00  0.00    +0.000 A 
ATOM      4  C   UNL     1      -3.598  12.515  19.447  0.00  0.00    +0.000 A 
ATOM      5  C   UNL     1      -2.823  13.128  20.447  0.00  0.00    +0.000 A 
ATOM      6  N   UNL     1      -1.633  12.541  20.595  0.00  0.00    +0.000 NA
ATOM      7  N   UNL     1      -1.586  11.586  19.625  0.00  0.00    +0.000 N 
ATOM      8  C   UNL     1      -5.094  12.466  19.226  0.00  0.00    +0.000 C 
ATOM      9  C   UNL     1      -5.623  11.475  20.292  0.00  0.00    +0.000 C 
ATOM     10  C   UNL     1      -7.087  11.571  20.702  0.00  0.00    +0.000 C 
ATOM     11  N   UNL     1      -7.724  12.878  20.698  0.00  0.00    +0.000 NA
ATOM     12  C   UNL     1      -7.291  13.746  19.606  0.00  0.00    +0.000 C 
ATOM     13  C   UNL     1      -5.777  13.838  19.372  0.00  0.00    +0.000 C 
ATOM     14  O   UNL     1      -5.443  11.937  17.919  0.00  0.00    +0.000 OA
ENDROOT
BRANCH   7  15
ATOM     15  C   UNL     1      -0.532  10.636  19.597  0.00  0.00    +0.000 A 
ATOM     16  C   UNL     1      -0.253   9.888  20.749  0.00  0.00    +0.000 A 
ATOM     17  C   UNL     1       0.736   8.902  20.717  0.00  0.00    +0.000 A 
ATOM     18  C   UNL     1       1.469   8.684  19.550  0.00  0.00    +0.000 A 
ATOM     19  C   UNL     1       1.212   9.451  18.413  0.00  0.00    +0.000 A 
ATOM     20  C   UNL     1       0.210  10.422  18.431  0.00  0.00    +0.000 A 
ENDBRANCH   7  15
BRANCH   1  21
ATOM     21  O   UNL     1      -4.064  11.789  16.032  0.00  0.00    +0.000 OA
ATOM     22  H   UNL     1      -4.861  12.131  15.594  0.00  0.00    +0.000 HD
ENDBRANCH   1  21
BRANCH  11  23
ATOM     23  C   UNL     1      -7.888  13.461  22.038  0.00  0.00    +0.000 C 
BRANCH  23  24
ATOM     24  C   UNL     1      -6.634  13.448  22.892  0.00  0.00    +0.000 A 
ATOM     25  C   UNL     1      -5.627  14.421  22.736  0.00  0.00    +0.000 A 
ATOM     26  C   UNL     1      -4.475  14.378  23.520  0.00  0.00    +0.000 A 
ATOM     27  C   UNL     1      -4.299  13.371  24.454  0.00  0.00    +0.000 A 
ATOM     28  C   UNL     1      -5.303  12.421  24.637  0.00  0.00    +0.000 A 
ATOM     29  C   UNL     1      -6.463  12.465  23.866  0.00  0.00    +0.000 A 
ENDBRANCH  23  24
ENDBRANCH  11  23
TORSDOF 4
ENDMDL
MODEL 8
REMARK VINA RESULT:      -6.8      3.043      8.300
REMARK  Name = 
REMARK  4 active torsions:
REMARK  status: ('A' for Active; 'I' for Inactive)
REMARK    1  A    between atoms: O_1  and  C_2
REMARK    2  A    between atoms: N_8  and  C_9
REMARK    3  A    between atoms: N_18  and  C_19
REMARK    4  A    between atoms: C_19  and  C_20
REMARK                            x       y       z     vdW  Elec       q    Type
REMARK                         _______ _______ _______ _____ _____    ______ ____
ROOT
ATOM      1  C   UNL     1       0.305   9.428  22.325  0.00  0.00    +0.000 C 
ATOM      2  C   UNL     1       1.338   8.727  21.411  0.00  0.00    +0.000 C 
ATOM      3  C   UNL     1       0.980   8.966  19.994  0.00  0.00    +0.000 A 
ATOM      4  C   UNL     1       0.293  10.099  19.616  0.00  0.00    +0.000 A 
ATOM      5  C   UNL     1       0.365  10.092  18.213  0.00  0.00    +0.000 A 
ATOM      6  N   UNL     1       1.145   9.112  17.751  0.00  0.00    +0.000 NA
ATOM      7  N   UNL     1       1.524   8.411  18.855  0.00  0.00    +0.000 N 
ATOM      8  C   UNL     1      -0.022  11.205  20.600  0.00  0.00    +0.000 C 
ATOM      9  C   UNL     1       1.246  12.092  20.625  0.00  0.00    +0.000 C 
ATOM     10  C   UNL     1       1.107  13.536  21.085  0.00  0.00    +0.000 C 
ATOM     11  N   UNL     1      -0.136  14.238  20.804  0.00  0.00    +0.000 NA
ATOM     12  C   UNL     1      -1.327  13.399  20.907  0.00  0.00    +0.000 C 
ATOM     13  C   UNL     1      -1.259  12.034  20.207  0.00  0.00    +0.000 C 
ATOM     14  O   UNL     1      -0.237  10.703  21.946  0.00  0.00    +0.000 OA
ENDROOT
BRANCH   7  15
ATOM     15  C   UNL     1       2.513   7.398  18.762  0.00  0.00    +0.000 A 
ATOM     16  C   UNL     1       3.466   7.462  17.736  0.00  0.00    +0.000 A 
ATOM     17  C   UNL     1       4.487   6.510  17.672  0.00  0.00    +0.000 A 
ATOM     18  C   UNL     1       4.539   5.476  18.608  0.00  0.00    +0.000 A 
ATOM     19  C   UNL     1       3.571   5.395  19.610  0.00  0.00    +0.000 A 
ATOM     20  C   UNL     1       2.563   6.356  19.694  0.00  0.00    +0.000 A 
ENDBRANCH   7  15
BRANCH   1  21
ATOM     21  O   UNL     1      -0.761   8.509  22.577  0.00  0.00    +0.000 OA
ATOM     22  H   UNL     1      -0.928   8.532  23.534  0.00  0.00    +0.000 HD
ENDBRANCH   1  21
BRANCH  11  23
ATOM     23  C   UNL     1      -0.039  15.188  19.685  0.00  0.00    +0.000 C 
BRANCH  23  24
ATOM     24  C   UNL     1       1.371  15.637  19.356  0.00  0.00    +0.000 A 
ATOM     25  C   UNL     1       2.115  15.031  18.323  0.00  0.00    +0.000 A 
ATOM     26  C   UNL     1       3.417  15.448  18.050  0.00  0.00    +0.000 A 
ATOM     27  C   UNL     1       4.001  16.457  18.798  0.00  0.00    +0.000 A 
ATOM     28  C   UNL     1       3.264  17.085  19.801  0.00  0.00    +0.000 A 
ATOM     29  C   UNL     1       1.957  16.681  20.072  0.00  0.00    +0.000 A 
ENDBRANCH  23  24
ENDBRANCH  11  23
TORSDOF 4
ENDMDL
MODEL 9
REMARK VINA RESULT:      -6.8      3.108      8.362
REMARK  Name = 
REMARK  4 active torsions:
REMARK  status: ('A' for Active; 'I' for Inactive)
REMARK    1  A    between atoms: O_1  and  C_2
REMARK    2  A    between atoms: N_8  and  C_9
REMARK    3  A    between atoms: N_18  and  C_19
REMARK    4  A    between atoms: C_19  and  C_20
REMARK                            x       y       z     vdW  Elec       q    Type
REMARK                         _______ _______ _______ _____ _____    ______ ____
ROOT
ATOM      1  C   UNL     1       0.375   9.644  22.380  0.00  0.00    +0.000 C 
ATOM      2  C   UNL     1       1.368   8.828  21.520  0.00  0.00    +0.000 C 
ATOM      3  C   UNL     1       1.038   9.009  20.087  0.00  0.00    +0.000 A 
ATOM      4  C   UNL     1       0.428  10.160  19.638  0.00  0.00    +0.000 A 
ATOM      5  C   UNL     1       0.510  10.069  18.238  0.00  0.00    +0.000 A 
ATOM      6  N   UNL     1       1.230   9.017  17.841  0.00  0.00    +0.000 NA
ATOM      7  N   UNL     1       1.554   8.357  18.987  0.00  0.00    +0.000 N 
ATOM      8  C   UNL     1       0.176  11.338  20.555  0.00  0.00    +0.000 C 
ATOM      9  C   UNL     1       1.499  12.142  20.545  0.00  0.00    +0.000 C 
ATOM     10  C   UNL     1       1.449  13.616  20.922  0.00  0.00    +0.000 C 
ATOM     11  N   UNL     1       0.257  14.378  20.587  0.00  0.00    +0.000 NA
ATOM     12  C   UNL     1      -0.987  13.624  20.723  0.00  0.00    +0.000 C 
ATOM     13  C   UNL     1      -1.001  12.221  20.102  0.00  0.00    +0.000 C 
ATOM     14  O   UNL     1      -0.081  10.927  21.924  0.00  0.00    +0.000 OA
ENDROOT
BRANCH   7  15
ATOM     15  C   UNL     1       2.477   7.279  18.963  0.00  0.00    +0.000 A 
ATOM     16  C   UNL     1       2.326   6.228  19.878  0.00  0.00    +0.000 A 
ATOM     17  C   UNL     1       3.185   5.127  19.822  0.00  0.00    +0.000 A 
ATOM     18  C   UNL     1       4.214   5.089  18.880  0.00  0.00    +0.000 A 
ATOM     19  C   UNL     1       4.382   6.151  17.991  0.00  0.00    +0.000 A 
ATOM     20  C   UNL     1       3.514   7.242  18.025  0.00  0.00    +0.000 A 
ENDBRANCH   7  15
BRANCH   1  21
ATOM     21  O   UNL     1      -0.750   8.811  22.671  0.00  0.00    +0.000 OA
ATOM     22  H   UNL     1      -0.416   7.899  22.714  0.00  0.00    +0.000 HD
ENDBRANCH   1  21
BRANCH  11  23
ATOM     23  C   UNL     1       0.423  15.256  19.418  0.00  0.00    +0.000 C 
BRANCH  23  24
ATOM     24  C   UNL     1       1.851  15.694  19.153  0.00  0.00    +0.000 A 
ATOM     25  C   UNL     1       2.475  16.686  19.937  0.00  0.00    +0.000 A 
ATOM     26  C   UNL     1       3.781  17.085  19.663  0.00  0.00    +0.000 A 
ATOM     27  C   UNL     1       4.481  16.521  18.609  0.00  0.00    +0.000 A 
ATOM     28  C   UNL     1       3.885  15.518  17.847  0.00  0.00    +0.000 A 
ATOM     29  C   UNL     1       2.583  15.104  18.122  0.00  0.00    +0.000 A 
ENDBRANCH  23  24
ENDBRANCH  11  23
TORSDOF 4
ENDMDL
