MODEL 1
REMARK VINA RESULT:      -8.7      0.000      0.000
REMARK  Name = 
REMARK  11 active torsions:
REMARK  status: ('A' for Active; 'I' for Inactive)
REMARK    1  A    between atoms: C_1  and  C_2
REMARK    2  A    between atoms: C_2  and  S_3
REMARK    3  A    between atoms: S_3  and  C_4
REMARK    4  A    between atoms: C_8  and  S_9
REMARK    5  A    between atoms: S_9  and  N_12
REMARK    6  A    between atoms: N_12  and  C_13
REMARK    7  A    between atoms: C_13  and  C_14
REMARK    8  A    between atoms: C_18  and  O_19
REMARK    9  A    between atoms: O_19  and  C_20
REMARK   10  A    between atoms: N_25  and  C_26
REMARK   11  A    between atoms: C_26  and  C_27
REMARK                            x       y       z     vdW  Elec       q    Type
REMARK                         _______ _______ _______ _____ _____    ______ ____
ROOT
ATOM      1  C   UNL     1       3.204   4.465  19.606  0.00  0.00    +0.000 A 
ATOM      2  N   UNL     1       2.454   5.001  20.538  0.00  0.00    +0.000 NA
ATOM      3  C   UNL     1       2.199   6.279  20.112  0.00  0.00    +0.000 A 
ATOM      4  C   UNL     1       1.496   7.309  20.767  0.00  0.00    +0.000 A 
ATOM      5  C   UNL     1       1.368   8.544  20.116  0.00  0.00    +0.000 A 
ATOM      6  C   UNL     1       1.879   8.733  18.828  0.00  0.00    +0.000 A 
ATOM      7  C   UNL     1       2.597   7.721  18.178  0.00  0.00    +0.000 A 
ATOM      8  C   UNL     1       2.762   6.508  18.857  0.00  0.00    +0.000 A 
ATOM      9  N   UNL     1       3.445   5.336  18.568  0.00  0.00    +0.000 N 
ENDROOT
BRANCH   5  10
ATOM     10  S   UNL     1       0.484   9.869  20.919  0.00  0.00    +0.000 S 
ATOM     11  O   UNL     1      -0.746   9.312  21.438  0.00  0.00    +0.000 OA
ATOM     12  O   UNL     1       1.429  10.571  21.755  0.00  0.00    +0.000 OA
BRANCH  10  13
ATOM     13  N   UNL     1       0.107  10.925  19.644  0.00  0.00    +0.000 NA
ATOM     14  H   UNL     1       0.152  10.463  18.739  0.00  0.00    +0.000 HD
BRANCH  13  15
ATOM     15  C   UNL     1      -1.085  11.764  19.829  0.00  0.00    +0.000 C 
BRANCH  15  16
ATOM     16  C   UNL     1      -2.136  11.526  18.770  0.00  0.00    +0.000 A 
ATOM     17  C   UNL     1      -3.460  11.933  18.981  0.00  0.00    +0.000 A 
ATOM     18  C   UNL     1      -4.441  11.644  18.034  0.00  0.00    +0.000 A 
ATOM     19  C   UNL     1      -4.110  10.941  16.877  0.00  0.00    +0.000 A 
ATOM     20  C   UNL     1      -2.796  10.528  16.647  0.00  0.00    +0.000 A 
ATOM     21  C   UNL     1      -1.811  10.833  17.589  0.00  0.00    +0.000 A 
BRANCH  20  22
ATOM     22  O   UNL     1      -2.610   9.824  15.489  0.00  0.00    +0.000 OA
ATOM     23  C   UNL     1      -3.465  10.133  14.397  0.00  0.00    +0.000 C 
ENDBRANCH  20  22
ENDBRANCH  15  16
ENDBRANCH  13  15
ENDBRANCH  10  13
ENDBRANCH   5  10
BRANCH   1  24
ATOM     24  S   UNL     1       3.919   2.888  19.703  0.00  0.00    +0.000 S 
BRANCH  24  26
ATOM     25  C   UNL     1       1.490   2.195  18.696  0.00  0.00    +0.000 C 
ATOM     26  C   UNL     1       2.975   1.978  18.450  0.00  0.00    +0.000 C 
ENDBRANCH  24  26
ENDBRANCH   1  24
BRANCH   9  27
ATOM     27  C   UNL     1       4.389   5.148  17.468  0.00  0.00    +0.000 C 
BRANCH  27  28
ATOM     28  C   UNL     1       5.729   5.782  17.749  0.00  0.00    +0.000 A 
ATOM     29  C   UNL     1       6.585   5.238  18.717  0.00  0.00    +0.000 A 
ATOM     30  C   UNL     1       7.756   5.901  19.083  0.00  0.00    +0.000 A 
ATOM     31  C   UNL     1       8.102   7.101  18.467  0.00  0.00    +0.000 A 
ATOM     32  C   UNL     1       7.303   7.612  17.448  0.00  0.00    +0.000 A 
ATOM     33  C   UNL     1       6.128   6.952  17.084  0.00  0.00    +0.000 A 
ENDBRANCH  27  28
ENDBRANCH   9  27
TORSDOF 9
ENDMDL
MODEL 2
REMARK VINA RESULT:      -8.6      1.215      1.725
REMARK  Name = 
REMARK  11 active torsions:
REMARK  status: ('A' for Active; 'I' for Inactive)
REMARK    1  A    between atoms: C_1  and  C_2
REMARK    2  A    between atoms: C_2  and  S_3
REMARK    3  A    between atoms: S_3  and  C_4
REMARK    4  A    between atoms: C_8  and  S_9
REMARK    5  A    between atoms: S_9  and  N_12
REMARK    6  A    between atoms: N_12  and  C_13
REMARK    7  A    between atoms: C_13  and  C_14
REMARK    8  A    between atoms: C_18  and  O_19
REMARK    9  A    between atoms: O_19  and  C_20
REMARK   10  A    between atoms: N_25  and  C_26
REMARK   11  A    between atoms: C_26  and  C_27
REMARK                            x       y       z     vdW  Elec       q    Type
REMARK                         _______ _______ _______ _____ _____    ______ ____
ROOT
ATOM      1  C   UNL     1       2.771   4.868  19.759  0.00  0.00    +0.000 A 
ATOM      2  N   UNL     1       2.065   5.634  20.555  0.00  0.00    +0.000 NA
ATOM      3  C   UNL     1       2.010   6.855  19.933  0.00  0.00    +0.000 A 
ATOM      4  C   UNL     1       1.432   8.057  20.387  0.00  0.00    +0.000 A 
ATOM      5  C   UNL     1       1.507   9.185  19.557  0.00  0.00    +0.000 A 
ATOM      6  C   UNL     1       2.092   9.107  18.291  0.00  0.00    +0.000 A 
ATOM      7  C   UNL     1       2.687   7.921  17.840  0.00  0.00    +0.000 A 
ATOM      8  C   UNL     1       2.652   6.814  18.696  0.00  0.00    +0.000 A 
ATOM      9  N   UNL     1       3.175   5.531  18.623  0.00  0.00    +0.000 N 
ENDROOT
BRANCH   5  10
ATOM     10  S   UNL     1       0.785  10.722  20.103  0.00  0.00    +0.000 S 
ATOM     11  O   UNL     1       1.137  10.890  21.497  0.00  0.00    +0.000 OA
ATOM     12  O   UNL     1       1.090  11.718  19.104  0.00  0.00    +0.000 OA
BRANCH  10  13
ATOM     13  N   UNL     1      -0.885  10.439  19.993  0.00  0.00    +0.000 NA
ATOM     14  H   UNL     1      -1.235   9.906  20.786  0.00  0.00    +0.000 HD
BRANCH  13  15
ATOM     15  C   UNL     1      -1.716  11.597  19.636  0.00  0.00    +0.000 C 
BRANCH  15  16
ATOM     16  C   UNL     1      -2.589  11.338  18.430  0.00  0.00    +0.000 A 
ATOM     17  C   UNL     1      -2.029  10.855  17.240  0.00  0.00    +0.000 A 
ATOM     18  C   UNL     1      -2.825  10.690  16.108  0.00  0.00    +0.000 A 
ATOM     19  C   UNL     1      -4.181  11.013  16.153  0.00  0.00    +0.000 A 
ATOM     20  C   UNL     1      -4.758  11.494  17.330  0.00  0.00    +0.000 A 
ATOM     21  C   UNL     1      -3.963  11.643  18.468  0.00  0.00    +0.000 A 
BRANCH  20  22
ATOM     22  O   UNL     1      -6.088  11.798  17.234  0.00  0.00    +0.000 OA
ATOM     23  C   UNL     1      -6.429  13.169  17.070  0.00  0.00    +0.000 C 
ENDBRANCH  20  22
ENDBRANCH  15  16
ENDBRANCH  13  15
ENDBRANCH  10  13
ENDBRANCH   5  10
BRANCH   1  24
ATOM     24  S   UNL     1       3.251   3.243  20.127  0.00  0.00    +0.000 S 
BRANCH  24  26
ATOM     25  C   UNL     1       0.741   2.864  19.155  0.00  0.00    +0.000 C 
ATOM     26  C   UNL     1       2.143   2.281  19.064  0.00  0.00    +0.000 C 
ENDBRANCH  24  26
ENDBRANCH   1  24
BRANCH   9  27
ATOM     27  C   UNL     1       4.128   5.055  17.623  0.00  0.00    +0.000 C 
BRANCH  27  28
ATOM     28  C   UNL     1       5.515   5.607  17.845  0.00  0.00    +0.000 A 
ATOM     29  C   UNL     1       6.317   5.118  18.886  0.00  0.00    +0.000 A 
ATOM     30  C   UNL     1       7.537   5.723  19.186  0.00  0.00    +0.000 A 
ATOM     31  C   UNL     1       7.985   6.806  18.433  0.00  0.00    +0.000 A 
ATOM     32  C   UNL     1       7.238   7.250  17.347  0.00  0.00    +0.000 A 
ATOM     33  C   UNL     1       6.014   6.649  17.048  0.00  0.00    +0.000 A 
ENDBRANCH  27  28
ENDBRANCH   9  27
TORSDOF 9
ENDMDL
MODEL 3
REMARK VINA RESULT:      -8.5      1.032      1.462
REMARK  Name = 
REMARK  11 active torsions:
REMARK  status: ('A' for Active; 'I' for Inactive)
REMARK    1  A    between atoms: C_1  and  C_2
REMARK    2  A    between atoms: C_2  and  S_3
REMARK    3  A    between atoms: S_3  and  C_4
REMARK    4  A    between atoms: C_8  and  S_9
REMARK    5  A    between atoms: S_9  and  N_12
REMARK    6  A    between atoms: N_12  and  C_13
REMARK    7  A    between atoms: C_13  and  C_14
REMARK    8  A    between atoms: C_18  and  O_19
REMARK    9  A    between atoms: O_19  and  C_20
REMARK   10  A    between atoms: N_25  and  C_26
REMARK   11  A    between atoms: C_26  and  C_27
REMARK                            x       y       z     vdW  Elec       q    Type
REMARK                         _______ _______ _______ _____ _____    ______ ____
ROOT
ATOM      1  C   UNL     1       2.586   5.352  19.832  0.00  0.00    +0.000 A 
ATOM      2  N   UNL     1       1.858   6.156  20.568  0.00  0.00    +0.000 NA
ATOM      3  C   UNL     1       1.854   7.356  19.905  0.00  0.00    +0.000 A 
ATOM      4  C   UNL     1       1.277   8.583  20.292  0.00  0.00    +0.000 A 
ATOM      5  C   UNL     1       1.411   9.681  19.431  0.00  0.00    +0.000 A 
ATOM      6  C   UNL     1       2.054   9.551  18.196  0.00  0.00    +0.000 A 
ATOM      7  C   UNL     1       2.648   8.341  17.812  0.00  0.00    +0.000 A 
ATOM      8  C   UNL     1       2.552   7.264  18.702  0.00  0.00    +0.000 A 
ATOM      9  N   UNL     1       3.055   5.971  18.695  0.00  0.00    +0.000 N 
ENDROOT
BRANCH   5  10
ATOM     10  S   UNL     1       0.693  11.247  19.891  0.00  0.00    +0.000 S 
ATOM     11  O   UNL     1       1.177  11.568  21.217  0.00  0.00    +0.000 OA
ATOM     12  O   UNL     1       0.859  12.142  18.771  0.00  0.00    +0.000 OA
BRANCH  10  13
ATOM     13  N   UNL     1      -0.968  10.910  19.985  0.00  0.00    +0.000 NA
ATOM     14  H   UNL     1      -1.214  10.442  20.854  0.00  0.00    +0.000 HD
BRANCH  13  15
ATOM     15  C   UNL     1      -1.874  12.009  19.621  0.00  0.00    +0.000 C 
BRANCH  15  16
ATOM     16  C   UNL     1      -2.762  11.668  18.448  0.00  0.00    +0.000 A 
ATOM     17  C   UNL     1      -4.154  11.797  18.551  0.00  0.00    +0.000 A 
ATOM     18  C   UNL     1      -4.973  11.410  17.492  0.00  0.00    +0.000 A 
ATOM     19  C   UNL     1      -4.411  10.885  16.328  0.00  0.00    +0.000 A 
ATOM     20  C   UNL     1      -3.027  10.752  16.205  0.00  0.00    +0.000 A 
ATOM     21  C   UNL     1      -2.206  11.155  17.260  0.00  0.00    +0.000 A 
BRANCH  20  22
ATOM     22  O   UNL     1      -2.607  10.199  15.027  0.00  0.00    +0.000 OA
ATOM     23  C   UNL     1      -3.549  10.143  13.964  0.00  0.00    +0.000 C 
ENDBRANCH  20  22
ENDBRANCH  15  16
ENDBRANCH  13  15
ENDBRANCH  10  13
ENDBRANCH   5  10
BRANCH   1  24
ATOM     24  S   UNL     1       3.020   3.733  20.275  0.00  0.00    +0.000 S 
BRANCH  24  26
ATOM     25  C   UNL     1       0.714   2.899  19.100  0.00  0.00    +0.000 C 
ATOM     26  C   UNL     1       2.223   2.767  18.965  0.00  0.00    +0.000 C 
ENDBRANCH  24  26
ENDBRANCH   1  24
BRANCH   9  27
ATOM     27  C   UNL     1       4.045   5.446  17.758  0.00  0.00    +0.000 C 
BRANCH  27  28
ATOM     28  C   UNL     1       5.433   5.968  18.037  0.00  0.00    +0.000 A 
ATOM     29  C   UNL     1       5.952   7.040  17.296  0.00  0.00    +0.000 A 
ATOM     30  C   UNL     1       7.283   7.430  17.450  0.00  0.00    +0.000 A 
ATOM     31  C   UNL     1       8.102   6.774  18.365  0.00  0.00    +0.000 A 
ATOM     32  C   UNL     1       7.578   5.763  19.165  0.00  0.00    +0.000 A 
ATOM     33  C   UNL     1       6.248   5.368  19.008  0.00  0.00    +0.000 A 
ENDBRANCH  27  28
ENDBRANCH   9  27
TORSDOF 9
ENDMDL
MODEL 4
REMARK VINA RESULT:      -8.3      1.434      2.182
REMARK  Name = 
REMARK  11 active torsions:
REMARK  status: ('A' for Active; 'I' for Inactive)
REMARK    1  A    between atoms: C_1  and  C_2
REMARK    2  A    between atoms: C_2  and  S_3
REMARK    3  A    between atoms: S_3  and  C_4
REMARK    4  A    between atoms: C_8  and  S_9
REMARK    5  A    between atoms: S_9  and  N_12
REMARK    6  A    between atoms: N_12  and  C_13
REMARK    7  A    between atoms: C_13  and  C_14
REMARK    8  A    between atoms: C_18  and  O_19
REMARK    9  A    between atoms: O_19  and  C_20
REMARK   10  A    between atoms: N_25  and  C_26
REMARK   11  A    between atoms: C_26  and  C_27
REMARK                            x       y       z     vdW  Elec       q    Type
REMARK                         _______ _______ _______ _____ _____    ______ ____
ROOT
ATOM      1  C   UNL     1       2.349   5.437  20.030  0.00  0.00    +0.000 A 
ATOM      2  N   UNL     1       1.694   6.301  20.768  0.00  0.00    +0.000 NA
ATOM      3  C   UNL     1       1.700   7.471  20.054  0.00  0.00    +0.000 A 
ATOM      4  C   UNL     1       1.194   8.735  20.417  0.00  0.00    +0.000 A 
ATOM      5  C   UNL     1       1.322   9.790  19.502  0.00  0.00    +0.000 A 
ATOM      6  C   UNL     1       1.890   9.582  18.242  0.00  0.00    +0.000 A 
ATOM      7  C   UNL     1       2.414   8.334  17.880  0.00  0.00    +0.000 A 
ATOM      8  C   UNL     1       2.326   7.299  18.820  0.00  0.00    +0.000 A 
ATOM      9  N   UNL     1       2.777   5.988  18.843  0.00  0.00    +0.000 N 
ENDROOT
BRANCH   5  10
ATOM     10  S   UNL     1       0.691  11.402  19.932  0.00  0.00    +0.000 S 
ATOM     11  O   UNL     1       0.875  11.569  21.357  0.00  0.00    +0.000 OA
ATOM     12  O   UNL     1       1.220  12.340  18.970  0.00  0.00    +0.000 OA
BRANCH  10  13
ATOM     13  N   UNL     1      -0.970  11.278  19.607  0.00  0.00    +0.000 NA
ATOM     14  H   UNL     1      -1.339  12.122  19.174  0.00  0.00    +0.000 HD
BRANCH  13  15
ATOM     15  C   UNL     1      -1.414  10.033  18.965  0.00  0.00    +0.000 C 
BRANCH  15  16
ATOM     16  C   UNL     1      -2.398  10.274  17.844  0.00  0.00    +0.000 A 
ATOM     17  C   UNL     1      -2.012  10.090  16.510  0.00  0.00    +0.000 A 
ATOM     18  C   UNL     1      -2.900  10.385  15.476  0.00  0.00    +0.000 A 
ATOM     19  C   UNL     1      -4.173  10.873  15.767  0.00  0.00    +0.000 A 
ATOM     20  C   UNL     1      -4.578  11.061  17.091  0.00  0.00    +0.000 A 
ATOM     21  C   UNL     1      -3.693  10.750  18.125  0.00  0.00    +0.000 A 
BRANCH  20  22
ATOM     22  O   UNL     1      -5.839  11.571  17.238  0.00  0.00    +0.000 OA
ATOM     23  C   UNL     1      -5.948  12.951  17.559  0.00  0.00    +0.000 C 
ENDBRANCH  20  22
ENDBRANCH  15  16
ENDBRANCH  13  15
ENDBRANCH  10  13
ENDBRANCH   5  10
BRANCH   1  24
ATOM     24  S   UNL     1       2.743   3.821  20.520  0.00  0.00    +0.000 S 
BRANCH  24  26
ATOM     25  C   UNL     1       0.829   2.733  18.925  0.00  0.00    +0.000 C 
ATOM     26  C   UNL     1       1.135   2.995  20.391  0.00  0.00    +0.000 C 
ENDBRANCH  24  26
ENDBRANCH   1  24
BRANCH   9  27
ATOM     27  C   UNL     1       3.693   5.384  17.878  0.00  0.00    +0.000 C 
BRANCH  27  28
ATOM     28  C   UNL     1       5.118   5.838  18.078  0.00  0.00    +0.000 A 
ATOM     29  C   UNL     1       5.705   6.752  17.191  0.00  0.00    +0.000 A 
ATOM     30  C   UNL     1       7.061   7.062  17.285  0.00  0.00    +0.000 A 
ATOM     31  C   UNL     1       7.843   6.485  18.283  0.00  0.00    +0.000 A 
ATOM     32  C   UNL     1       7.257   5.639  19.219  0.00  0.00    +0.000 A 
ATOM     33  C   UNL     1       5.900   5.324  19.123  0.00  0.00    +0.000 A 
ENDBRANCH  27  28
ENDBRANCH   9  27
TORSDOF 9
ENDMDL
MODEL 5
REMARK VINA RESULT:      -8.2      2.860      3.894
REMARK  Name = 
REMARK  11 active torsions:
REMARK  status: ('A' for Active; 'I' for Inactive)
REMARK    1  A    between atoms: C_1  and  C_2
REMARK    2  A    between atoms: C_2  and  S_3
REMARK    3  A    between atoms: S_3  and  C_4
REMARK    4  A    between atoms: C_8  and  S_9
REMARK    5  A    between atoms: S_9  and  N_12
REMARK    6  A    between atoms: N_12  and  C_13
REMARK    7  A    between atoms: C_13  and  C_14
REMARK    8  A    between atoms: C_18  and  O_19
REMARK    9  A    between atoms: O_19  and  C_20
REMARK   10  A    between atoms: N_25  and  C_26
REMARK   11  A    between atoms: C_26  and  C_27
REMARK                            x       y       z     vdW  Elec       q    Type
REMARK                         _______ _______ _______ _____ _____    ______ ____
ROOT
ATOM      1  C   UNL     1       2.738   5.107  19.581  0.00  0.00    +0.000 A 
ATOM      2  N   UNL     1       2.021   5.826  20.412  0.00  0.00    +0.000 NA
ATOM      3  C   UNL     1       1.936   7.069  19.841  0.00  0.00    +0.000 A 
ATOM      4  C   UNL     1       1.337   8.240  20.347  0.00  0.00    +0.000 A 
ATOM      5  C   UNL     1       1.382   9.401  19.563  0.00  0.00    +0.000 A 
ATOM      6  C   UNL     1       1.960   9.387  18.290  0.00  0.00    +0.000 A 
ATOM      7  C   UNL     1       2.577   8.234  17.788  0.00  0.00    +0.000 A 
ATOM      8  C   UNL     1       2.570   7.092  18.599  0.00  0.00    +0.000 A 
ATOM      9  N   UNL     1       3.120   5.825  18.470  0.00  0.00    +0.000 N 
ENDROOT
BRANCH   5  10
ATOM     10  S   UNL     1       0.632  10.900  20.175  0.00  0.00    +0.000 S 
ATOM     11  O   UNL     1       1.637  11.598  20.947  0.00  0.00    +0.000 OA
ATOM     12  O   UNL     1      -0.059  11.517  19.068  0.00  0.00    +0.000 OA
BRANCH  10  13
ATOM     13  N   UNL     1      -0.573  10.339  21.231  0.00  0.00    +0.000 NA
ATOM     14  H   UNL     1      -0.743   9.342  21.121  0.00  0.00    +0.000 HD
BRANCH  13  15
ATOM     15  C   UNL     1      -0.463  10.776  22.630  0.00  0.00    +0.000 C 
BRANCH  15  16
ATOM     16  C   UNL     1      -1.440  11.875  22.975  0.00  0.00    +0.000 A 
ATOM     17  C   UNL     1      -1.064  13.220  22.861  0.00  0.00    +0.000 A 
ATOM     18  C   UNL     1      -1.942  14.229  23.253  0.00  0.00    +0.000 A 
ATOM     19  C   UNL     1      -3.196  13.903  23.767  0.00  0.00    +0.000 A 
ATOM     20  C   UNL     1      -3.591  12.569  23.887  0.00  0.00    +0.000 A 
ATOM     21  C   UNL     1      -2.716  11.560  23.479  0.00  0.00    +0.000 A 
BRANCH  20  22
ATOM     22  O   UNL     1      -4.832  12.384  24.431  0.00  0.00    +0.000 OA
ATOM     23  C   UNL     1      -5.908  13.114  23.855  0.00  0.00    +0.000 C 
ENDBRANCH  20  22
ENDBRANCH  15  16
ENDBRANCH  13  15
ENDBRANCH  10  13
ENDBRANCH   5  10
BRANCH   1  24
ATOM     24  S   UNL     1       3.255   3.480  19.880  0.00  0.00    +0.000 S 
BRANCH  24  26
ATOM     25  C   UNL     1       1.528   2.539  21.757  0.00  0.00    +0.000 C 
ATOM     26  C   UNL     1       1.683   2.656  20.249  0.00  0.00    +0.000 C 
ENDBRANCH  24  26
ENDBRANCH   1  24
BRANCH   9  27
ATOM     27  C   UNL     1       4.076   5.410  17.446  0.00  0.00    +0.000 C 
BRANCH  27  28
ATOM     28  C   UNL     1       5.479   5.872  17.751  0.00  0.00    +0.000 A 
ATOM     29  C   UNL     1       6.236   5.239  18.747  0.00  0.00    +0.000 A 
ATOM     30  C   UNL     1       7.474   5.752  19.133  0.00  0.00    +0.000 A 
ATOM     31  C   UNL     1       7.984   6.889  18.510  0.00  0.00    +0.000 A 
ATOM     32  C   UNL     1       7.281   7.480  17.465  0.00  0.00    +0.000 A 
ATOM     33  C   UNL     1       6.040   6.970  17.081  0.00  0.00    +0.000 A 
ENDBRANCH  27  28
ENDBRANCH   9  27
TORSDOF 9
ENDMDL
MODEL 6
REMARK VINA RESULT:      -8.2      3.174      4.280
REMARK  Name = 
REMARK  11 active torsions:
REMARK  status: ('A' for Active; 'I' for Inactive)
REMARK    1  A    between atoms: C_1  and  C_2
REMARK    2  A    between atoms: C_2  and  S_3
REMARK    3  A    between atoms: S_3  and  C_4
REMARK    4  A    between atoms: C_8  and  S_9
REMARK    5  A    between atoms: S_9  and  N_12
REMARK    6  A    between atoms: N_12  and  C_13
REMARK    7  A    between atoms: C_13  and  C_14
REMARK    8  A    between atoms: C_18  and  O_19
REMARK    9  A    between atoms: O_19  and  C_20
REMARK   10  A    between atoms: N_25  and  C_26
REMARK   11  A    between atoms: C_26  and  C_27
REMARK                            x       y       z     vdW  Elec       q    Type
REMARK                         _______ _______ _______ _____ _____    ______ ____
ROOT
ATOM      1  C   UNL     1       2.785   4.998  19.700  0.00  0.00    +0.000 A 
ATOM      2  N   UNL     1       2.084   5.726  20.536  0.00  0.00    +0.000 NA
ATOM      3  C   UNL     1       1.968   6.956  19.941  0.00  0.00    +0.000 A 
ATOM      4  C   UNL     1       1.370   8.130  20.439  0.00  0.00    +0.000 A 
ATOM      5  C   UNL     1       1.379   9.275  19.630  0.00  0.00    +0.000 A 
ATOM      6  C   UNL     1       1.920   9.240  18.342  0.00  0.00    +0.000 A 
ATOM      7  C   UNL     1       2.536   8.083  17.846  0.00  0.00    +0.000 A 
ATOM      8  C   UNL     1       2.566   6.959  18.682  0.00  0.00    +0.000 A 
ATOM      9  N   UNL     1       3.126   5.696  18.563  0.00  0.00    +0.000 N 
ENDROOT
BRANCH   5  10
ATOM     10  S   UNL     1       0.629  10.778  20.232  0.00  0.00    +0.000 S 
ATOM     11  O   UNL     1      -0.748  10.779  19.786  0.00  0.00    +0.000 OA
ATOM     12  O   UNL     1       0.990  10.911  21.624  0.00  0.00    +0.000 OA
BRANCH  10  13
ATOM     13  N   UNL     1       1.470  12.000  19.407  0.00  0.00    +0.000 NA
ATOM     14  H   UNL     1       1.571  11.792  18.417  0.00  0.00    +0.000 HD
BRANCH  13  15
ATOM     15  C   UNL     1       1.048  13.380  19.688  0.00  0.00    +0.000 C 
BRANCH  15  16
ATOM     16  C   UNL     1       1.952  14.408  19.048  0.00  0.00    +0.000 A 
ATOM     17  C   UNL     1       1.466  15.686  18.743  0.00  0.00    +0.000 A 
ATOM     18  C   UNL     1       2.280  16.606  18.085  0.00  0.00    +0.000 A 
ATOM     19  C   UNL     1       3.579  16.253  17.719  0.00  0.00    +0.000 A 
ATOM     20  C   UNL     1       4.082  14.985  18.016  0.00  0.00    +0.000 A 
ATOM     21  C   UNL     1       3.271  14.071  18.690  0.00  0.00    +0.000 A 
BRANCH  20  22
ATOM     22  O   UNL     1       5.358  14.758  17.579  0.00  0.00    +0.000 OA
ATOM     23  C   UNL     1       6.416  15.068  18.476  0.00  0.00    +0.000 C 
ENDBRANCH  20  22
ENDBRANCH  15  16
ENDBRANCH  13  15
ENDBRANCH  10  13
ENDBRANCH   5  10
BRANCH   1  24
ATOM     24  S   UNL     1       3.330   3.383  20.018  0.00  0.00    +0.000 S 
BRANCH  24  26
ATOM     25  C   UNL     1       1.021   2.625  18.800  0.00  0.00    +0.000 C 
ATOM     26  C   UNL     1       1.762   2.479  20.119  0.00  0.00    +0.000 C 
ENDBRANCH  24  26
ENDBRANCH   1  24
BRANCH   9  27
ATOM     27  C   UNL     1       4.058   5.270  17.521  0.00  0.00    +0.000 C 
BRANCH  27  28
ATOM     28  C   UNL     1       5.456   5.785  17.756  0.00  0.00    +0.000 A 
ATOM     29  C   UNL     1       6.279   5.193  18.725  0.00  0.00    +0.000 A 
ATOM     30  C   UNL     1       7.514   5.756  19.048  0.00  0.00    +0.000 A 
ATOM     31  C   UNL     1       7.954   6.900  18.388  0.00  0.00    +0.000 A 
ATOM     32  C   UNL     1       7.185   7.452  17.368  0.00  0.00    +0.000 A 
ATOM     33  C   UNL     1       5.946   6.892  17.048  0.00  0.00    +0.000 A 
ENDBRANCH  27  28
ENDBRANCH   9  27
TORSDOF 9
ENDMDL
MODEL 7
REMARK VINA RESULT:      -8.1      0.608      1.071
REMARK  Name = 
REMARK  11 active torsions:
REMARK  status: ('A' for Active; 'I' for Inactive)
REMARK    1  A    between atoms: C_1  and  C_2
REMARK    2  A    between atoms: C_2  and  S_3
REMARK    3  A    between atoms: S_3  and  C_4
REMARK    4  A    between atoms: C_8  and  S_9
REMARK    5  A    between atoms: S_9  and  N_12
REMARK    6  A    between atoms: N_12  and  C_13
REMARK    7  A    between atoms: C_13  and  C_14
REMARK    8  A    between atoms: C_18  and  O_19
REMARK    9  A    between atoms: O_19  and  C_20
REMARK   10  A    between atoms: N_25  and  C_26
REMARK   11  A    between atoms: C_26  and  C_27
REMARK                            x       y       z     vdW  Elec       q    Type
REMARK                         _______ _______ _______ _____ _____    ______ ____
ROOT
ATOM      1  C   UNL     1       3.017   4.589  19.766  0.00  0.00    +0.000 A 
ATOM      2  N   UNL     1       2.233   5.155  20.652  0.00  0.00    +0.000 NA
ATOM      3  C   UNL     1       2.048   6.439  20.209  0.00  0.00    +0.000 A 
ATOM      4  C   UNL     1       1.345   7.496  20.820  0.00  0.00    +0.000 A 
ATOM      5  C   UNL     1       1.298   8.732  20.159  0.00  0.00    +0.000 A 
ATOM      6  C   UNL     1       1.887   8.897  18.902  0.00  0.00    +0.000 A 
ATOM      7  C   UNL     1       2.606   7.858  18.297  0.00  0.00    +0.000 A 
ATOM      8  C   UNL     1       2.689   6.642  18.988  0.00  0.00    +0.000 A 
ATOM      9  N   UNL     1       3.346   5.446  18.741  0.00  0.00    +0.000 N 
ENDROOT
BRANCH   5  10
ATOM     10  S   UNL     1       0.416  10.091  20.906  0.00  0.00    +0.000 S 
ATOM     11  O   UNL     1      -0.967   9.685  21.036  0.00  0.00    +0.000 OA
ATOM     12  O   UNL     1       1.198  10.542  22.033  0.00  0.00    +0.000 OA
BRANCH  10  13
ATOM     13  N   UNL     1       0.516  11.320  19.739  0.00  0.00    +0.000 NA
ATOM     14  H   UNL     1       0.610  10.946  18.798  0.00  0.00    +0.000 HD
BRANCH  13  15
ATOM     15  C   UNL     1      -0.467  12.406  19.856  0.00  0.00    +0.000 C 
BRANCH  15  16
ATOM     16  C   UNL     1      -1.713  12.154  19.040  0.00  0.00    +0.000 A 
ATOM     17  C   UNL     1      -2.978  12.222  19.638  0.00  0.00    +0.000 A 
ATOM     18  C   UNL     1      -4.120  11.915  18.899  0.00  0.00    +0.000 A 
ATOM     19  C   UNL     1      -4.006  11.533  17.563  0.00  0.00    +0.000 A 
ATOM     20  C   UNL     1      -2.754  11.462  16.948  0.00  0.00    +0.000 A 
ATOM     21  C   UNL     1      -1.613  11.785  17.685  0.00  0.00    +0.000 A 
BRANCH  20  22
ATOM     22  O   UNL     1      -2.779  11.048  15.645  0.00  0.00    +0.000 OA
ATOM     23  C   UNL     1      -2.921   9.654  15.409  0.00  0.00    +0.000 C 
ENDBRANCH  20  22
ENDBRANCH  15  16
ENDBRANCH  13  15
ENDBRANCH  10  13
ENDBRANCH   5  10
BRANCH   1  24
ATOM     24  S   UNL     1       3.669   2.988  19.908  0.00  0.00    +0.000 S 
BRANCH  24  26
ATOM     25  C   UNL     1       2.389   2.231  17.632  0.00  0.00    +0.000 C 
ATOM     26  C   UNL     1       2.368   1.991  19.133  0.00  0.00    +0.000 C 
ENDBRANCH  24  26
ENDBRANCH   1  24
BRANCH   9  27
ATOM     27  C   UNL     1       4.345   5.221  17.698  0.00  0.00    +0.000 C 
BRANCH  27  28
ATOM     28  C   UNL     1       5.657   5.899  18.004  0.00  0.00    +0.000 A 
ATOM     29  C   UNL     1       6.086   6.995  17.242  0.00  0.00    +0.000 A 
ATOM     30  C   UNL     1       7.360   7.532  17.425  0.00  0.00    +0.000 A 
ATOM     31  C   UNL     1       8.211   6.999  18.390  0.00  0.00    +0.000 A 
ATOM     32  C   UNL     1       7.770   5.963  19.208  0.00  0.00    +0.000 A 
ATOM     33  C   UNL     1       6.496   5.422  19.022  0.00  0.00    +0.000 A 
ENDBRANCH  27  28
ENDBRANCH   9  27
TORSDOF 9
ENDMDL
MODEL 8
REMARK VINA RESULT:      -8.0      2.949      8.576
REMARK  Name = 
REMARK  11 active torsions:
REMARK  status: ('A' for Active; 'I' for Inactive)
REMARK    1  A    between atoms: C_1  and  C_2
REMARK    2  A    between atoms: C_2  and  S_3
REMARK    3  A    between atoms: S_3  and  C_4
REMARK    4  A    between atoms: C_8  and  S_9
REMARK    5  A    between atoms: S_9  and  N_12
REMARK    6  A    between atoms: N_12  and  C_13
REMARK    7  A    between atoms: C_13  and  C_14
REMARK    8  A    between atoms: C_18  and  O_19
REMARK    9  A    between atoms: O_19  and  C_20
REMARK   10  A    between atoms: N_25  and  C_26
REMARK   11  A    between atoms: C_26  and  C_27
REMARK                            x       y       z     vdW  Elec       q    Type
REMARK                         _______ _______ _______ _____ _____    ______ ____
ROOT
ATOM      1  C   UNL     1       1.139   9.293  20.887  0.00  0.00    +0.000 A 
ATOM      2  N   UNL     1       1.194   8.149  21.525  0.00  0.00    +0.000 NA
ATOM      3  C   UNL     1       1.558   7.222  20.583  0.00  0.00    +0.000 A 
ATOM      4  C   UNL     1       1.697   5.826  20.717  0.00  0.00    +0.000 A 
ATOM      5  C   UNL     1       2.087   5.086  19.591  0.00  0.00    +0.000 A 
ATOM      6  C   UNL     1       2.381   5.721  18.381  0.00  0.00    +0.000 A 
ATOM      7  C   UNL     1       2.226   7.105  18.233  0.00  0.00    +0.000 A 
ATOM      8  C   UNL     1       1.789   7.830  19.349  0.00  0.00    +0.000 A 
ATOM      9  N   UNL     1       1.469   9.163  19.557  0.00  0.00    +0.000 N 
ENDROOT
BRANCH   5  10
ATOM     10  S   UNL     1       2.271   3.317  19.729  0.00  0.00    +0.000 S 
ATOM     11  O   UNL     1       2.731   3.037  21.072  0.00  0.00    +0.000 OA
ATOM     12  O   UNL     1       1.079   2.717  19.179  0.00  0.00    +0.000 OA
BRANCH  10  13
ATOM     13  N   UNL     1       3.524   2.962  18.640  0.00  0.00    +0.000 NA
ATOM     14  H   UNL     1       3.211   2.999  17.673  0.00  0.00    +0.000 HD
BRANCH  13  15
ATOM     15  C   UNL     1       4.804   3.643  18.880  0.00  0.00    +0.000 C 
BRANCH  15  16
ATOM     16  C   UNL     1       5.360   4.297  17.637  0.00  0.00    +0.000 A 
ATOM     17  C   UNL     1       5.012   3.816  16.367  0.00  0.00    +0.000 A 
ATOM     18  C   UNL     1       5.586   4.373  15.226  0.00  0.00    +0.000 A 
ATOM     19  C   UNL     1       6.515   5.407  15.344  0.00  0.00    +0.000 A 
ATOM     20  C   UNL     1       6.873   5.901  16.600  0.00  0.00    +0.000 A 
ATOM     21  C   UNL     1       6.285   5.353  17.741  0.00  0.00    +0.000 A 
BRANCH  20  22
ATOM     22  O   UNL     1       7.813   6.894  16.578  0.00  0.00    +0.000 OA
ATOM     23  C   UNL     1       7.707   7.910  17.567  0.00  0.00    +0.000 C 
ENDBRANCH  20  22
ENDBRANCH  15  16
ENDBRANCH  13  15
ENDBRANCH  10  13
ENDBRANCH   5  10
BRANCH   1  24
ATOM     24  S   UNL     1       0.603  10.786  21.588  0.00  0.00    +0.000 S 
BRANCH  24  26
ATOM     25  C   UNL     1      -1.575  11.294  23.134  0.00  0.00    +0.000 C 
ATOM     26  C   UNL     1      -0.552  10.204  22.858  0.00  0.00    +0.000 C 
ENDBRANCH  24  26
ENDBRANCH   1  24
BRANCH   9  27
ATOM     27  C   UNL     1       1.326  10.179  18.516  0.00  0.00    +0.000 C 
BRANCH  27  28
ATOM     28  C   UNL     1      -0.119  10.478  18.202  0.00  0.00    +0.000 A 
ATOM     29  C   UNL     1      -0.907   9.541  17.518  0.00  0.00    +0.000 A 
ATOM     30  C   UNL     1      -2.195   9.869  17.097  0.00  0.00    +0.000 A 
ATOM     31  C   UNL     1      -2.723  11.127  17.377  0.00  0.00    +0.000 A 
ATOM     32  C   UNL     1      -1.983  12.038  18.126  0.00  0.00    +0.000 A 
ATOM     33  C   UNL     1      -0.692  11.712  18.543  0.00  0.00    +0.000 A 
ENDBRANCH  27  28
ENDBRANCH   9  27
TORSDOF 9
ENDMDL
MODEL 9
REMARK VINA RESULT:      -8.0      2.827      4.072
REMARK  Name = 
REMARK  11 active torsions:
REMARK  status: ('A' for Active; 'I' for Inactive)
REMARK    1  A    between atoms: C_1  and  C_2
REMARK    2  A    between atoms: C_2  and  S_3
REMARK    3  A    between atoms: S_3  and  C_4
REMARK    4  A    between atoms: C_8  and  S_9
REMARK    5  A    between atoms: S_9  and  N_12
REMARK    6  A    between atoms: N_12  and  C_13
REMARK    7  A    between atoms: C_13  and  C_14
REMARK    8  A    between atoms: C_18  and  O_19
REMARK    9  A    between atoms: O_19  and  C_20
REMARK   10  A    between atoms: N_25  and  C_26
REMARK   11  A    between atoms: C_26  and  C_27
REMARK                            x       y       z     vdW  Elec       q    Type
REMARK                         _______ _______ _______ _____ _____    ______ ____
ROOT
ATOM      1  C   UNL     1       2.467   5.338  19.865  0.00  0.00    +0.000 A 
ATOM      2  N   UNL     1       1.757   6.139  20.623  0.00  0.00    +0.000 NA
ATOM      3  C   UNL     1       1.738   7.342  19.966  0.00  0.00    +0.000 A 
ATOM      4  C   UNL     1       1.172   8.567  20.373  0.00  0.00    +0.000 A 
ATOM      5  C   UNL     1       1.285   9.669  19.513  0.00  0.00    +0.000 A 
ATOM      6  C   UNL     1       1.896   9.544  18.262  0.00  0.00    +0.000 A 
ATOM      7  C   UNL     1       2.480   8.337  17.859  0.00  0.00    +0.000 A 
ATOM      8  C   UNL     1       2.406   7.255  18.745  0.00  0.00    +0.000 A 
ATOM      9  N   UNL     1       2.907   5.962  18.720  0.00  0.00    +0.000 N 
ENDROOT
BRANCH   5  10
ATOM     10  S   UNL     1       0.579  11.233  19.999  0.00  0.00    +0.000 S 
ATOM     11  O   UNL     1       1.514  12.266  19.608  0.00  0.00    +0.000 OA
ATOM     12  O   UNL     1      -0.799  11.235  19.568  0.00  0.00    +0.000 OA
BRANCH  10  13
ATOM     13  N   UNL     1       0.543  11.145  21.694  0.00  0.00    +0.000 NA
ATOM     14  H   UNL     1       1.021  11.931  22.127  0.00  0.00    +0.000 HD
BRANCH  13  15
ATOM     15  C   UNL     1      -0.758  10.828  22.299  0.00  0.00    +0.000 C 
BRANCH  15  16
ATOM     16  C   UNL     1      -1.431  12.038  22.902  0.00  0.00    +0.000 A 
ATOM     17  C   UNL     1      -2.749  11.957  23.371  0.00  0.00    +0.000 A 
ATOM     18  C   UNL     1      -3.391  13.094  23.857  0.00  0.00    +0.000 A 
ATOM     19  C   UNL     1      -2.726  14.320  23.871  0.00  0.00    +0.000 A 
ATOM     20  C   UNL     1      -1.412  14.421  23.410  0.00  0.00    +0.000 A 
ATOM     21  C   UNL     1      -0.765  13.278  22.939  0.00  0.00    +0.000 A 
BRANCH  20  22
ATOM     22  O   UNL     1      -0.886  15.683  23.452  0.00  0.00    +0.000 OA
ATOM     23  C   UNL     1      -0.722  16.359  22.213  0.00  0.00    +0.000 C 
ENDBRANCH  20  22
ENDBRANCH  15  16
ENDBRANCH  13  15
ENDBRANCH  10  13
ENDBRANCH   5  10
BRANCH   1  24
ATOM     24  S   UNL     1       2.911   3.717  20.290  0.00  0.00    +0.000 S 
BRANCH  24  26
ATOM     25  C   UNL     1       0.878   2.531  18.928  0.00  0.00    +0.000 C 
ATOM     26  C   UNL     1       1.296   2.895  20.344  0.00  0.00    +0.000 C 
ENDBRANCH  24  26
ENDBRANCH   1  24
BRANCH   9  27
ATOM     27  C   UNL     1       3.874   5.441  17.756  0.00  0.00    +0.000 C 
BRANCH  27  28
ATOM     28  C   UNL     1       5.277   5.921  18.034  0.00  0.00    +0.000 A 
ATOM     29  C   UNL     1       5.864   6.909  17.230  0.00  0.00    +0.000 A 
ATOM     30  C   UNL     1       7.206   7.251  17.391  0.00  0.00    +0.000 A 
ATOM     31  C   UNL     1       7.973   6.630  18.374  0.00  0.00    +0.000 A 
ATOM     32  C   UNL     1       7.383   5.706  19.232  0.00  0.00    +0.000 A 
ATOM     33  C   UNL     1       6.041   5.360  19.069  0.00  0.00    +0.000 A 
ENDBRANCH  27  28
ENDBRANCH   9  27
TORSDOF 9
ENDMDL
