MODEL 1
REMARK VINA RESULT:      -8.4      0.000      0.000
REMARK  Name = 
REMARK  15 active torsions:
REMARK  status: ('A' for Active; 'I' for Inactive)
REMARK    1  A    between atoms: C_1  and  O_2
REMARK    2  A    between atoms: O_2  and  C_3
REMARK    3  A    between atoms: C_6  and  N_7
REMARK    4  A    between atoms: N_7  and  C_8
REMARK    5  A    between atoms: C_8  and  C_9
REMARK    6  A    between atoms: C_9  and  N_10
REMARK    7  A    between atoms: C_11  and  C_13
REMARK    8  A    between atoms: C_13  and  C_14
REMARK    9  A    between atoms: C_13  and  O_18
REMARK   10  A    between atoms: C_14  and  C_15
REMARK   11  A    between atoms: C_15  and  C_16
REMARK   12  A    between atoms: C_15  and  C_17
REMARK   13  A    between atoms: O_18  and  C_19
REMARK   14  A    between atoms: C_22  and  O_23
REMARK   15  A    between atoms: O_23  and  C_24
REMARK                            x       y       z     vdW  Elec       q    Type
REMARK                         _______ _______ _______ _____ _____    ______ ____
ROOT
ATOM      1  C   UNL     1       2.421   6.020  19.772  0.00  0.00    +0.000 C 
ENDROOT
BRANCH   1   3
ATOM      2  N   UNL     1       1.607   7.709  21.398  0.00  0.00    +0.000 N 
ATOM      3  C   UNL     1       1.998   7.489  20.088  0.00  0.00    +0.000 C 
ATOM      4  O   UNL     1       1.996   8.373  19.241  0.00  0.00    +0.000 OA
ATOM      5  H   UNL     1       1.871   7.023  22.093  0.00  0.00    +0.000 HD
BRANCH   2   6
ATOM      6  C   UNL     1       1.268   9.058  21.851  0.00  0.00    +0.000 C 
BRANCH   6   7
ATOM      7  C   UNL     1      -0.105   9.530  21.335  0.00  0.00    +0.000 C 
BRANCH   7   8
ATOM      8  N   UNL     1       0.030  10.620  20.365  0.00  0.00    +0.000 N 
ATOM      9  H   UNL     1       0.345  11.490  20.791  0.00  0.00    +0.000 HD
BRANCH   8  13
ATOM     10  C   UNL     1      -3.208  11.110  17.670  0.00  0.00    +0.000 A 
ATOM     11  C   UNL     1      -2.178  10.209  17.408  0.00  0.00    +0.000 A 
ATOM     12  C   UNL     1      -1.115  10.059  18.309  0.00  0.00    +0.000 A 
ATOM     13  C   UNL     1      -1.023  10.846  19.464  0.00  0.00    +0.000 A 
ATOM     14  C   UNL     1      -2.072  11.737  19.717  0.00  0.00    +0.000 A 
ATOM     15  C   UNL     1      -3.150  11.879  18.828  0.00  0.00    +0.000 A 
BRANCH  10  17
ATOM     16  C   UNL     1      -5.263  12.066  16.993  0.00  0.00    +0.000 C 
ATOM     17  O   UNL     1      -4.191  11.171  16.721  0.00  0.00    +0.000 OA
ENDBRANCH  10  17
ENDBRANCH   8  13
ENDBRANCH   7   8
ENDBRANCH   6   7
ENDBRANCH   2   6
ENDBRANCH   1   3
BRANCH   1  18
ATOM     18  C   UNL     1       1.469   5.058  20.519  0.00  0.00    +0.000 C 
BRANCH  18  19
ATOM     19  C   UNL     1       1.706   3.535  20.399  0.00  0.00    +0.000 C 
ATOM     20  C   UNL     1       1.634   2.794  21.733  0.00  0.00    +0.000 C 
ATOM     21  C   UNL     1       0.810   2.853  19.366  0.00  0.00    +0.000 C 
ENDBRANCH  18  19
ENDBRANCH   1  18
BRANCH   1  22
ATOM     22  O   UNL     1       2.317   5.803  18.363  0.00  0.00    +0.000 OA
BRANCH  22  23
ATOM     23  C   UNL     1       3.479   5.593  17.670  0.00  0.00    +0.000 A 
ATOM     24  C   UNL     1       4.252   6.611  17.112  0.00  0.00    +0.000 A 
ATOM     25  C   UNL     1       5.449   6.310  16.464  0.00  0.00    +0.000 A 
ATOM     26  C   UNL     1       5.915   4.996  16.407  0.00  0.00    +0.000 A 
ATOM     27  C   UNL     1       5.136   3.970  16.946  0.00  0.00    +0.000 A 
ATOM     28  C   UNL     1       3.931   4.276  17.596  0.00  0.00    +0.000 A 
BRANCH  26  29
ATOM     29  O   UNL     1       7.107   4.811  15.745  0.00  0.00    +0.000 OA
BRANCH  29  30
ATOM     30  C   UNL     1       7.127   4.674  14.376  0.00  0.00    +0.000 A 
ATOM     31  C   UNL     1       6.267   3.705  13.851  0.00  0.00    +0.000 A 
ATOM     32  C   UNL     1       6.204   3.489  12.473  0.00  0.00    +0.000 A 
ATOM     33  C   UNL     1       6.999   4.246  11.614  0.00  0.00    +0.000 A 
ATOM     34  C   UNL     1       7.830   5.240  12.130  0.00  0.00    +0.000 A 
ATOM     35  C   UNL     1       7.877   5.471  13.506  0.00  0.00    +0.000 A 
ENDBRANCH  29  30
ENDBRANCH  26  29
ENDBRANCH  22  23
ENDBRANCH   1  22
TORSDOF 12
ENDMDL
MODEL 2
REMARK VINA RESULT:      -8.2      2.472      9.286
REMARK  Name = 
REMARK  15 active torsions:
REMARK  status: ('A' for Active; 'I' for Inactive)
REMARK    1  A    between atoms: C_1  and  O_2
REMARK    2  A    between atoms: O_2  and  C_3
REMARK    3  A    between atoms: C_6  and  N_7
REMARK    4  A    between atoms: N_7  and  C_8
REMARK    5  A    between atoms: C_8  and  C_9
REMARK    6  A    between atoms: C_9  and  N_10
REMARK    7  A    between atoms: C_11  and  C_13
REMARK    8  A    between atoms: C_13  and  C_14
REMARK    9  A    between atoms: C_13  and  O_18
REMARK   10  A    between atoms: C_14  and  C_15
REMARK   11  A    between atoms: C_15  and  C_16
REMARK   12  A    between atoms: C_15  and  C_17
REMARK   13  A    between atoms: O_18  and  C_19
REMARK   14  A    between atoms: C_22  and  O_23
REMARK   15  A    between atoms: O_23  and  C_24
REMARK                            x       y       z     vdW  Elec       q    Type
REMARK                         _______ _______ _______ _____ _____    ______ ____
ROOT
ATOM      1  C   UNL     1       3.300   5.752  18.679  0.00  0.00    +0.000 C 
ENDROOT
BRANCH   1   3
ATOM      2  N   UNL     1       5.733   5.408  19.025  0.00  0.00    +0.000 N 
ATOM      3  C   UNL     1       4.774   6.087  18.293  0.00  0.00    +0.000 C 
ATOM      4  O   UNL     1       5.061   6.899  17.423  0.00  0.00    +0.000 OA
ATOM      5  H   UNL     1       5.445   4.582  19.533  0.00  0.00    +0.000 HD
BRANCH   2   6
ATOM      6  C   UNL     1       7.153   5.564  18.708  0.00  0.00    +0.000 C 
BRANCH   6   7
ATOM      7  C   UNL     1       7.582   4.728  17.487  0.00  0.00    +0.000 C 
BRANCH   7   8
ATOM      8  N   UNL     1       7.491   5.502  16.246  0.00  0.00    +0.000 N 
ATOM      9  H   UNL     1       7.136   6.445  16.395  0.00  0.00    +0.000 HD
BRANCH   8  13
ATOM     10  C   UNL     1       5.843   3.577  12.845  0.00  0.00    +0.000 A 
ATOM     11  C   UNL     1       6.996   4.352  12.750  0.00  0.00    +0.000 A 
ATOM     12  C   UNL     1       7.528   4.982  13.883  0.00  0.00    +0.000 A 
ATOM     13  C   UNL     1       6.890   4.901  15.128  0.00  0.00    +0.000 A 
ATOM     14  C   UNL     1       5.739   4.109  15.207  0.00  0.00    +0.000 A 
ATOM     15  C   UNL     1       5.212   3.459  14.079  0.00  0.00    +0.000 A 
BRANCH  10  17
ATOM     16  C   UNL     1       4.075   3.298  11.298  0.00  0.00    +0.000 C 
ATOM     17  O   UNL     1       5.416   3.011  11.675  0.00  0.00    +0.000 OA
ENDBRANCH  10  17
ENDBRANCH   8  13
ENDBRANCH   7   8
ENDBRANCH   6   7
ENDBRANCH   2   6
ENDBRANCH   1   3
BRANCH   1  18
ATOM     18  C   UNL     1       3.233   4.280  19.148  0.00  0.00    +0.000 C 
BRANCH  18  19
ATOM     19  C   UNL     1       2.035   3.411  18.703  0.00  0.00    +0.000 C 
ATOM     20  C   UNL     1       1.070   3.064  19.836  0.00  0.00    +0.000 C 
ATOM     21  C   UNL     1       1.269   3.983  17.511  0.00  0.00    +0.000 C 
ENDBRANCH  18  19
ENDBRANCH   1  18
BRANCH   1  22
ATOM     22  O   UNL     1       2.892   6.616  19.741  0.00  0.00    +0.000 OA
BRANCH  22  23
ATOM     23  C   UNL     1       2.206   7.751  19.404  0.00  0.00    +0.000 A 
ATOM     24  C   UNL     1       2.180   8.298  18.121  0.00  0.00    +0.000 A 
ATOM     25  C   UNL     1       1.412   9.431  17.855  0.00  0.00    +0.000 A 
ATOM     26  C   UNL     1       0.620  10.003  18.852  0.00  0.00    +0.000 A 
ATOM     27  C   UNL     1       0.657   9.472  20.143  0.00  0.00    +0.000 A 
ATOM     28  C   UNL     1       1.432   8.333  20.408  0.00  0.00    +0.000 A 
BRANCH  26  29
ATOM     29  O   UNL     1      -0.097  11.116  18.481  0.00  0.00    +0.000 OA
BRANCH  29  30
ATOM     30  C   UNL     1      -1.457  11.032  18.282  0.00  0.00    +0.000 A 
ATOM     31  C   UNL     1      -1.882  10.012  17.425  0.00  0.00    +0.000 A 
ATOM     32  C   UNL     1      -3.241   9.835  17.159  0.00  0.00    +0.000 A 
ATOM     33  C   UNL     1      -4.181  10.674  17.755  0.00  0.00    +0.000 A 
ATOM     34  C   UNL     1      -3.765  11.668  18.640  0.00  0.00    +0.000 A 
ATOM     35  C   UNL     1      -2.407  11.832  18.923  0.00  0.00    +0.000 A 
ENDBRANCH  29  30
ENDBRANCH  26  29
ENDBRANCH  22  23
ENDBRANCH   1  22
TORSDOF 12
ENDMDL
MODEL 3
REMARK VINA RESULT:      -7.7      2.281      9.473
REMARK  Name = 
REMARK  15 active torsions:
REMARK  status: ('A' for Active; 'I' for Inactive)
REMARK    1  A    between atoms: C_1  and  O_2
REMARK    2  A    between atoms: O_2  and  C_3
REMARK    3  A    between atoms: C_6  and  N_7
REMARK    4  A    between atoms: N_7  and  C_8
REMARK    5  A    between atoms: C_8  and  C_9
REMARK    6  A    between atoms: C_9  and  N_10
REMARK    7  A    between atoms: C_11  and  C_13
REMARK    8  A    between atoms: C_13  and  C_14
REMARK    9  A    between atoms: C_13  and  O_18
REMARK   10  A    between atoms: C_14  and  C_15
REMARK   11  A    between atoms: C_15  and  C_16
REMARK   12  A    between atoms: C_15  and  C_17
REMARK   13  A    between atoms: O_18  and  C_19
REMARK   14  A    between atoms: C_22  and  O_23
REMARK   15  A    between atoms: O_23  and  C_24
REMARK                            x       y       z     vdW  Elec       q    Type
REMARK                         _______ _______ _______ _____ _____    ______ ____
ROOT
ATOM      1  C   UNL     1       2.367   5.895  19.489  0.00  0.00    +0.000 C 
ENDROOT
BRANCH   1   3
ATOM      2  N   UNL     1       4.771   5.790  18.881  0.00  0.00    +0.000 N 
ATOM      3  C   UNL     1       3.491   5.397  18.528  0.00  0.00    +0.000 C 
ATOM      4  O   UNL     1       3.259   4.725  17.532  0.00  0.00    +0.000 OA
ATOM      5  H   UNL     1       4.924   6.113  19.828  0.00  0.00    +0.000 HD
BRANCH   2   6
ATOM      6  C   UNL     1       5.926   5.320  18.116  0.00  0.00    +0.000 C 
BRANCH   6   7
ATOM      7  C   UNL     1       6.341   6.305  17.006  0.00  0.00    +0.000 C 
BRANCH   7   8
ATOM      8  N   UNL     1       7.270   5.684  16.057  0.00  0.00    +0.000 N 
ATOM      9  H   UNL     1       8.036   6.302  15.795  0.00  0.00    +0.000 HD
BRANCH   8  13
ATOM     10  C   UNL     1       5.815   3.565  12.683  0.00  0.00    +0.000 A 
ATOM     11  C   UNL     1       7.070   4.171  12.672  0.00  0.00    +0.000 A 
ATOM     12  C   UNL     1       7.535   4.868  13.795  0.00  0.00    +0.000 A 
ATOM     13  C   UNL     1       6.739   5.027  14.936  0.00  0.00    +0.000 A 
ATOM     14  C   UNL     1       5.486   4.402  14.934  0.00  0.00    +0.000 A 
ATOM     15  C   UNL     1       5.021   3.686  13.819  0.00  0.00    +0.000 A 
BRANCH  10  17
ATOM     16  C   UNL     1       6.057   1.634  11.339  0.00  0.00    +0.000 C 
ATOM     17  O   UNL     1       5.466   2.914  11.533  0.00  0.00    +0.000 OA
ENDBRANCH  10  17
ENDBRANCH   8  13
ENDBRANCH   7   8
ENDBRANCH   6   7
ENDBRANCH   2   6
ENDBRANCH   1   3
BRANCH   1  18
ATOM     18  C   UNL     1       2.280   4.929  20.693  0.00  0.00    +0.000 C 
BRANCH  18  19
ATOM     19  C   UNL     1       2.128   3.415  20.423  0.00  0.00    +0.000 C 
ATOM     20  C   UNL     1       2.357   2.543  21.657  0.00  0.00    +0.000 C 
ATOM     21  C   UNL     1       0.811   3.039  19.746  0.00  0.00    +0.000 C 
ENDBRANCH  18  19
ENDBRANCH   1  18
BRANCH   1  22
ATOM     22  O   UNL     1       2.699   7.208  19.947  0.00  0.00    +0.000 OA
BRANCH  22  23
ATOM     23  C   UNL     1       1.854   8.228  19.603  0.00  0.00    +0.000 A 
ATOM     24  C   UNL     1       0.995   8.868  20.496  0.00  0.00    +0.000 A 
ATOM     25  C   UNL     1       0.204   9.933  20.070  0.00  0.00    +0.000 A 
ATOM     26  C   UNL     1       0.295  10.407  18.760  0.00  0.00    +0.000 A 
ATOM     27  C   UNL     1       1.137   9.758  17.855  0.00  0.00    +0.000 A 
ATOM     28  C   UNL     1       1.932   8.685  18.287  0.00  0.00    +0.000 A 
BRANCH  26  29
ATOM     29  O   UNL     1      -0.530  11.462  18.446  0.00  0.00    +0.000 OA
BRANCH  29  30
ATOM     30  C   UNL     1      -1.838  11.237  18.080  0.00  0.00    +0.000 A 
ATOM     31  C   UNL     1      -2.804  11.870  18.868  0.00  0.00    +0.000 A 
ATOM     32  C   UNL     1      -4.161  11.714  18.580  0.00  0.00    +0.000 A 
ATOM     33  C   UNL     1      -4.556  10.927  17.499  0.00  0.00    +0.000 A 
ATOM     34  C   UNL     1      -3.595  10.325  16.688  0.00  0.00    +0.000 A 
ATOM     35  C   UNL     1      -2.237  10.499  16.963  0.00  0.00    +0.000 A 
ENDBRANCH  29  30
ENDBRANCH  26  29
ENDBRANCH  22  23
ENDBRANCH   1  22
TORSDOF 12
ENDMDL
MODEL 4
REMARK VINA RESULT:      -7.7      2.890      9.507
REMARK  Name = 
REMARK  15 active torsions:
REMARK  status: ('A' for Active; 'I' for Inactive)
REMARK    1  A    between atoms: C_1  and  O_2
REMARK    2  A    between atoms: O_2  and  C_3
REMARK    3  A    between atoms: C_6  and  N_7
REMARK    4  A    between atoms: N_7  and  C_8
REMARK    5  A    between atoms: C_8  and  C_9
REMARK    6  A    between atoms: C_9  and  N_10
REMARK    7  A    between atoms: C_11  and  C_13
REMARK    8  A    between atoms: C_13  and  C_14
REMARK    9  A    between atoms: C_13  and  O_18
REMARK   10  A    between atoms: C_14  and  C_15
REMARK   11  A    between atoms: C_15  and  C_16
REMARK   12  A    between atoms: C_15  and  C_17
REMARK   13  A    between atoms: O_18  and  C_19
REMARK   14  A    between atoms: C_22  and  O_23
REMARK   15  A    between atoms: O_23  and  C_24
REMARK                            x       y       z     vdW  Elec       q    Type
REMARK                         _______ _______ _______ _____ _____    ______ ____
ROOT
ATOM      1  C   UNL     1       2.916   5.814  19.048  0.00  0.00    +0.000 C 
ENDROOT
BRANCH   1   3
ATOM      2  N   UNL     1       4.888   6.487  17.700  0.00  0.00    +0.000 N 
ATOM      3  C   UNL     1       4.464   5.853  18.855  0.00  0.00    +0.000 C 
ATOM      4  O   UNL     1       5.242   5.348  19.654  0.00  0.00    +0.000 OA
ATOM      5  H   UNL     1       4.233   7.095  17.225  0.00  0.00    +0.000 HD
BRANCH   2   6
ATOM      6  C   UNL     1       6.315   6.670  17.439  0.00  0.00    +0.000 C 
BRANCH   6   7
ATOM      7  C   UNL     1       6.967   5.424  16.810  0.00  0.00    +0.000 C 
BRANCH   7   8
ATOM      8  N   UNL     1       7.452   5.697  15.454  0.00  0.00    +0.000 N 
ATOM      9  H   UNL     1       7.435   6.689  15.222  0.00  0.00    +0.000 HD
BRANCH   8  13
ATOM     10  C   UNL     1       5.783   3.464  12.257  0.00  0.00    +0.000 A 
ATOM     11  C   UNL     1       5.134   3.566  13.485  0.00  0.00    +0.000 A 
ATOM     12  C   UNL     1       5.699   4.307  14.532  0.00  0.00    +0.000 A 
ATOM     13  C   UNL     1       6.953   4.918  14.398  0.00  0.00    +0.000 A 
ATOM     14  C   UNL     1       7.586   4.814  13.153  0.00  0.00    +0.000 A 
ATOM     15  C   UNL     1       7.016   4.088  12.094  0.00  0.00    +0.000 A 
BRANCH  10  17
ATOM     16  C   UNL     1       3.774   3.046  11.079  0.00  0.00    +0.000 C 
ATOM     17  O   UNL     1       5.139   2.716  11.311  0.00  0.00    +0.000 OA
ENDBRANCH  10  17
ENDBRANCH   8  13
ENDBRANCH   7   8
ENDBRANCH   6   7
ENDBRANCH   2   6
ENDBRANCH   1   3
BRANCH   1  18
ATOM     18  C   UNL     1       2.492   4.362  19.367  0.00  0.00    +0.000 C 
BRANCH  18  19
ATOM     19  C   UNL     1       1.791   3.532  18.267  0.00  0.00    +0.000 C 
ATOM     20  C   UNL     1       2.709   3.144  17.109  0.00  0.00    +0.000 C 
ATOM     21  C   UNL     1       1.058   2.301  18.798  0.00  0.00    +0.000 C 
ENDBRANCH  18  19
ENDBRANCH   1  18
BRANCH   1  22
ATOM     22  O   UNL     1       2.564   6.670  20.137  0.00  0.00    +0.000 OA
BRANCH  22  23
ATOM     23  C   UNL     1       1.908   7.833  19.840  0.00  0.00    +0.000 A 
ATOM     24  C   UNL     1       1.936   8.451  18.590  0.00  0.00    +0.000 A 
ATOM     25  C   UNL     1       1.196   9.610  18.361  0.00  0.00    +0.000 A 
ATOM     26  C   UNL     1       0.379  10.140  19.360  0.00  0.00    +0.000 A 
ATOM     27  C   UNL     1       0.362   9.539  20.620  0.00  0.00    +0.000 A 
ATOM     28  C   UNL     1       1.109   8.373  20.848  0.00  0.00    +0.000 A 
BRANCH  26  29
ATOM     29  O   UNL     1      -0.308  11.284  19.027  0.00  0.00    +0.000 OA
BRANCH  29  30
ATOM     30  C   UNL     1       0.251  12.521  19.256  0.00  0.00    +0.000 A 
ATOM     31  C   UNL     1      -0.277  13.573  18.501  0.00  0.00    +0.000 A 
ATOM     32  C   UNL     1       0.214  14.871  18.658  0.00  0.00    +0.000 A 
ATOM     33  C   UNL     1       1.232  15.121  19.577  0.00  0.00    +0.000 A 
ATOM     34  C   UNL     1       1.736  14.082  20.359  0.00  0.00    +0.000 A 
ATOM     35  C   UNL     1       1.230  12.789  20.217  0.00  0.00    +0.000 A 
ENDBRANCH  29  30
ENDBRANCH  26  29
ENDBRANCH  22  23
ENDBRANCH   1  22
TORSDOF 12
ENDMDL
MODEL 5
REMARK VINA RESULT:      -7.7      2.396      9.199
REMARK  Name = 
REMARK  15 active torsions:
REMARK  status: ('A' for Active; 'I' for Inactive)
REMARK    1  A    between atoms: C_1  and  O_2
REMARK    2  A    between atoms: O_2  and  C_3
REMARK    3  A    between atoms: C_6  and  N_7
REMARK    4  A    between atoms: N_7  and  C_8
REMARK    5  A    between atoms: C_8  and  C_9
REMARK    6  A    between atoms: C_9  and  N_10
REMARK    7  A    between atoms: C_11  and  C_13
REMARK    8  A    between atoms: C_13  and  C_14
REMARK    9  A    between atoms: C_13  and  O_18
REMARK   10  A    between atoms: C_14  and  C_15
REMARK   11  A    between atoms: C_15  and  C_16
REMARK   12  A    between atoms: C_15  and  C_17
REMARK   13  A    between atoms: O_18  and  C_19
REMARK   14  A    between atoms: C_22  and  O_23
REMARK   15  A    between atoms: O_23  and  C_24
REMARK                            x       y       z     vdW  Elec       q    Type
REMARK                         _______ _______ _______ _____ _____    ______ ____
ROOT
ATOM      1  C   UNL     1       3.028   5.612  18.949  0.00  0.00    +0.000 C 
ENDROOT
BRANCH   1   3
ATOM      2  N   UNL     1       5.486   5.352  19.170  0.00  0.00    +0.000 N 
ATOM      3  C   UNL     1       4.461   5.823  18.368  0.00  0.00    +0.000 C 
ATOM      4  O   UNL     1       4.665   6.376  17.295  0.00  0.00    +0.000 OA
ATOM      5  H   UNL     1       5.252   4.691  19.900  0.00  0.00    +0.000 HD
BRANCH   2   6
ATOM      6  C   UNL     1       6.873   5.408  18.707  0.00  0.00    +0.000 C 
BRANCH   6   7
ATOM      7  C   UNL     1       7.126   4.504  17.485  0.00  0.00    +0.000 C 
BRANCH   7   8
ATOM      8  N   UNL     1       7.421   5.292  16.285  0.00  0.00    +0.000 N 
ATOM      9  H   UNL     1       7.149   6.269  16.379  0.00  0.00    +0.000 HD
BRANCH   8  13
ATOM     10  C   UNL     1       6.100   3.832  12.529  0.00  0.00    +0.000 A 
ATOM     11  C   UNL     1       5.401   3.552  13.701  0.00  0.00    +0.000 A 
ATOM     12  C   UNL     1       5.851   4.042  14.935  0.00  0.00    +0.000 A 
ATOM     13  C   UNL     1       7.041   4.774  15.037  0.00  0.00    +0.000 A 
ATOM     14  C   UNL     1       7.724   5.055  13.848  0.00  0.00    +0.000 A 
ATOM     15  C   UNL     1       7.268   4.583  12.606  0.00  0.00    +0.000 A 
BRANCH  10  17
ATOM     16  C   UNL     1       4.153   3.149  11.371  0.00  0.00    +0.000 C 
ATOM     17  O   UNL     1       5.568   3.302  11.386  0.00  0.00    +0.000 OA
ENDBRANCH  10  17
ENDBRANCH   8  13
ENDBRANCH   7   8
ENDBRANCH   6   7
ENDBRANCH   2   6
ENDBRANCH   1   3
BRANCH   1  18
ATOM     18  C   UNL     1       2.933   4.182  19.526  0.00  0.00    +0.000 C 
BRANCH  18  19
ATOM     19  C   UNL     1       1.542   3.621  19.900  0.00  0.00    +0.000 C 
ATOM     20  C   UNL     1       0.963   2.664  18.859  0.00  0.00    +0.000 C 
ATOM     21  C   UNL     1       1.487   2.988  21.290  0.00  0.00    +0.000 C 
ENDBRANCH  18  19
ENDBRANCH   1  18
BRANCH   1  22
ATOM     22  O   UNL     1       2.806   6.568  19.988  0.00  0.00    +0.000 OA
BRANCH  22  23
ATOM     23  C   UNL     1       2.086   7.688  19.671  0.00  0.00    +0.000 A 
ATOM     24  C   UNL     1       2.007   8.232  18.390  0.00  0.00    +0.000 A 
ATOM     25  C   UNL     1       1.208   9.349  18.148  0.00  0.00    +0.000 A 
ATOM     26  C   UNL     1       0.439   9.907  19.169  0.00  0.00    +0.000 A 
ATOM     27  C   UNL     1       0.529   9.380  20.459  0.00  0.00    +0.000 A 
ATOM     28  C   UNL     1       1.334   8.257  20.700  0.00  0.00    +0.000 A 
BRANCH  26  29
ATOM     29  O   UNL     1      -0.313  11.005  18.821  0.00  0.00    +0.000 OA
BRANCH  29  30
ATOM     30  C   UNL     1      -1.417  10.863  18.011  0.00  0.00    +0.000 A 
ATOM     31  C   UNL     1      -2.284   9.819  18.346  0.00  0.00    +0.000 A 
ATOM     32  C   UNL     1      -3.437   9.590  17.593  0.00  0.00    +0.000 A 
ATOM     33  C   UNL     1      -3.730  10.410  16.505  0.00  0.00    +0.000 A 
ATOM     34  C   UNL     1      -2.888  11.475  16.189  0.00  0.00    +0.000 A 
ATOM     35  C   UNL     1      -1.747  11.717  16.955  0.00  0.00    +0.000 A 
ENDBRANCH  29  30
ENDBRANCH  26  29
ENDBRANCH  22  23
ENDBRANCH   1  22
TORSDOF 12
ENDMDL
MODEL 6
REMARK VINA RESULT:      -7.6      2.428      2.624
REMARK  Name = 
REMARK  15 active torsions:
REMARK  status: ('A' for Active; 'I' for Inactive)
REMARK    1  A    between atoms: C_1  and  O_2
REMARK    2  A    between atoms: O_2  and  C_3
REMARK    3  A    between atoms: C_6  and  N_7
REMARK    4  A    between atoms: N_7  and  C_8
REMARK    5  A    between atoms: C_8  and  C_9
REMARK    6  A    between atoms: C_9  and  N_10
REMARK    7  A    between atoms: C_11  and  C_13
REMARK    8  A    between atoms: C_13  and  C_14
REMARK    9  A    between atoms: C_13  and  O_18
REMARK   10  A    between atoms: C_14  and  C_15
REMARK   11  A    between atoms: C_15  and  C_16
REMARK   12  A    between atoms: C_15  and  C_17
REMARK   13  A    between atoms: O_18  and  C_19
REMARK   14  A    between atoms: C_22  and  O_23
REMARK   15  A    between atoms: O_23  and  C_24
REMARK                            x       y       z     vdW  Elec       q    Type
REMARK                         _______ _______ _______ _____ _____    ______ ____
ROOT
ATOM      1  C   UNL     1       2.552   6.005  19.834  0.00  0.00    +0.000 C 
ENDROOT
BRANCH   1   3
ATOM      2  N   UNL     1       1.351   7.673  21.225  0.00  0.00    +0.000 N 
ATOM      3  C   UNL     1       1.982   7.446  20.013  0.00  0.00    +0.000 C 
ATOM      4  O   UNL     1       2.071   8.305  19.146  0.00  0.00    +0.000 OA
ATOM      5  H   UNL     1       1.533   7.026  21.982  0.00  0.00    +0.000 HD
BRANCH   2   6
ATOM      6  C   UNL     1       0.848   9.005  21.558  0.00  0.00    +0.000 C 
BRANCH   6   7
ATOM      7  C   UNL     1      -0.521   8.961  22.265  0.00  0.00    +0.000 C 
BRANCH   7   8
ATOM      8  N   UNL     1      -0.606   9.962  23.333  0.00  0.00    +0.000 N 
ATOM      9  H   UNL     1      -0.970   9.579  24.204  0.00  0.00    +0.000 HD
BRANCH   8  13
ATOM     10  C   UNL     1      -2.368  13.664  22.247  0.00  0.00    +0.000 A 
ATOM     11  C   UNL     1      -1.085  13.322  21.825  0.00  0.00    +0.000 A 
ATOM     12  C   UNL     1      -0.517  12.094  22.194  0.00  0.00    +0.000 A 
ATOM     13  C   UNL     1      -1.192  11.203  23.038  0.00  0.00    +0.000 A 
ATOM     14  C   UNL     1      -2.484  11.558  23.442  0.00  0.00    +0.000 A 
ATOM     15  C   UNL     1      -3.067  12.778  23.061  0.00  0.00    +0.000 A 
BRANCH  10  17
ATOM     16  C   UNL     1      -1.855  15.931  21.806  0.00  0.00    +0.000 C 
ATOM     17  O   UNL     1      -2.819  14.885  21.827  0.00  0.00    +0.000 OA
ENDBRANCH  10  17
ENDBRANCH   8  13
ENDBRANCH   7   8
ENDBRANCH   6   7
ENDBRANCH   2   6
ENDBRANCH   1   3
BRANCH   1  18
ATOM     18  C   UNL     1       1.745   5.037  20.728  0.00  0.00    +0.000 C 
BRANCH  18  19
ATOM     19  C   UNL     1       1.870   3.516  20.483  0.00  0.00    +0.000 C 
ATOM     20  C   UNL     1       1.928   2.687  21.765  0.00  0.00    +0.000 C 
ATOM     21  C   UNL     1       0.808   2.956  19.538  0.00  0.00    +0.000 C 
ENDBRANCH  18  19
ENDBRANCH   1  18
BRANCH   1  22
ATOM     22  O   UNL     1       2.416   5.622  18.463  0.00  0.00    +0.000 OA
BRANCH  22  23
ATOM     23  C   UNL     1       3.564   5.469  17.734  0.00  0.00    +0.000 A 
ATOM     24  C   UNL     1       4.317   6.528  17.227  0.00  0.00    +0.000 A 
ATOM     25  C   UNL     1       5.502   6.281  16.536  0.00  0.00    +0.000 A 
ATOM     26  C   UNL     1       5.978   4.978  16.385  0.00  0.00    +0.000 A 
ATOM     27  C   UNL     1       5.219   3.912  16.871  0.00  0.00    +0.000 A 
ATOM     28  C   UNL     1       4.026   4.163  17.566  0.00  0.00    +0.000 A 
BRANCH  26  29
ATOM     29  O   UNL     1       7.157   4.849  15.687  0.00  0.00    +0.000 OA
BRANCH  29  30
ATOM     30  C   UNL     1       7.141   4.675  14.322  0.00  0.00    +0.000 A 
ATOM     31  C   UNL     1       6.250   3.709  13.844  0.00  0.00    +0.000 A 
ATOM     32  C   UNL     1       6.150   3.457  12.475  0.00  0.00    +0.000 A 
ATOM     33  C   UNL     1       6.937   4.177  11.577  0.00  0.00    +0.000 A 
ATOM     34  C   UNL     1       7.799   5.168  12.045  0.00  0.00    +0.000 A 
ATOM     35  C   UNL     1       7.883   5.434  13.413  0.00  0.00    +0.000 A 
ENDBRANCH  29  30
ENDBRANCH  26  29
ENDBRANCH  22  23
ENDBRANCH   1  22
TORSDOF 12
ENDMDL
MODEL 7
REMARK VINA RESULT:      -7.6      3.968      7.321
REMARK  Name = 
REMARK  15 active torsions:
REMARK  status: ('A' for Active; 'I' for Inactive)
REMARK    1  A    between atoms: C_1  and  O_2
REMARK    2  A    between atoms: O_2  and  C_3
REMARK    3  A    between atoms: C_6  and  N_7
REMARK    4  A    between atoms: N_7  and  C_8
REMARK    5  A    between atoms: C_8  and  C_9
REMARK    6  A    between atoms: C_9  and  N_10
REMARK    7  A    between atoms: C_11  and  C_13
REMARK    8  A    between atoms: C_13  and  C_14
REMARK    9  A    between atoms: C_13  and  O_18
REMARK   10  A    between atoms: C_14  and  C_15
REMARK   11  A    between atoms: C_15  and  C_16
REMARK   12  A    between atoms: C_15  and  C_17
REMARK   13  A    between atoms: O_18  and  C_19
REMARK   14  A    between atoms: C_22  and  O_23
REMARK   15  A    between atoms: O_23  and  C_24
REMARK                            x       y       z     vdW  Elec       q    Type
REMARK                         _______ _______ _______ _____ _____    ______ ____
ROOT
ATOM      1  C   UNL     1      -1.196  11.210  18.965  0.00  0.00    +0.000 C 
ENDROOT
BRANCH   1   3
ATOM      2  N   UNL     1      -2.172  13.372  19.695  0.00  0.00    +0.000 N 
ATOM      3  C   UNL     1      -1.517  12.224  20.107  0.00  0.00    +0.000 C 
ATOM      4  O   UNL     1      -1.201  12.028  21.273  0.00  0.00    +0.000 OA
ATOM      5  H   UNL     1      -2.626  13.360  18.791  0.00  0.00    +0.000 HD
BRANCH   2   6
ATOM      6  C   UNL     1      -2.609  14.366  20.675  0.00  0.00    +0.000 C 
BRANCH   6   7
ATOM      7  C   UNL     1      -1.745  15.642  20.652  0.00  0.00    +0.000 C 
BRANCH   7   8
ATOM      8  N   UNL     1      -1.379  16.018  19.284  0.00  0.00    +0.000 N 
ATOM      9  H   UNL     1      -1.952  15.555  18.581  0.00  0.00    +0.000 HD
BRANCH   8  13
ATOM     10  C   UNL     1       2.752  16.116  18.326  0.00  0.00    +0.000 A 
ATOM     11  C   UNL     1       1.909  17.178  18.005  0.00  0.00    +0.000 A 
ATOM     12  C   UNL     1       0.546  17.129  18.328  0.00  0.00    +0.000 A 
ATOM     13  C   UNL     1      -0.020  15.997  18.927  0.00  0.00    +0.000 A 
ATOM     14  C   UNL     1       0.843  14.945  19.253  0.00  0.00    +0.000 A 
ATOM     15  C   UNL     1       2.214  14.995  18.949  0.00  0.00    +0.000 A 
BRANCH  10  17
ATOM     16  C   UNL     1       4.836  15.082  17.893  0.00  0.00    +0.000 C 
ATOM     17  O   UNL     1       4.061  16.274  17.963  0.00  0.00    +0.000 OA
ENDBRANCH  10  17
ENDBRANCH   8  13
ENDBRANCH   7   8
ENDBRANCH   6   7
ENDBRANCH   2   6
ENDBRANCH   1   3
BRANCH   1  18
ATOM     18  C   UNL     1      -1.895  11.684  17.670  0.00  0.00    +0.000 C 
BRANCH  18  19
ATOM     19  C   UNL     1      -3.005  10.800  17.058  0.00  0.00    +0.000 C 
ATOM     20  C   UNL     1      -3.226   9.484  17.801  0.00  0.00    +0.000 C 
ATOM     21  C   UNL     1      -4.335  11.528  16.864  0.00  0.00    +0.000 C 
ENDBRANCH  18  19
ENDBRANCH   1  18
BRANCH   1  22
ATOM     22  O   UNL     1       0.218  11.174  18.764  0.00  0.00    +0.000 OA
BRANCH  22  23
ATOM     23  C   UNL     1       0.843   9.963  18.894  0.00  0.00    +0.000 A 
ATOM     24  C   UNL     1       1.499   9.305  17.853  0.00  0.00    +0.000 A 
ATOM     25  C   UNL     1       2.153   8.096  18.087  0.00  0.00    +0.000 A 
ATOM     26  C   UNL     1       2.204   7.553  19.371  0.00  0.00    +0.000 A 
ATOM     27  C   UNL     1       1.533   8.196  20.413  0.00  0.00    +0.000 A 
ATOM     28  C   UNL     1       0.874   9.412  20.175  0.00  0.00    +0.000 A 
BRANCH  26  29
ATOM     29  O   UNL     1       2.875   6.358  19.490  0.00  0.00    +0.000 OA
BRANCH  29  30
ATOM     30  C   UNL     1       2.188   5.166  19.430  0.00  0.00    +0.000 A 
ATOM     31  C   UNL     1       2.196   4.525  18.188  0.00  0.00    +0.000 A 
ATOM     32  C   UNL     1       1.535   3.307  18.019  0.00  0.00    +0.000 A 
ATOM     33  C   UNL     1       0.868   2.723  19.096  0.00  0.00    +0.000 A 
ATOM     34  C   UNL     1       0.889   3.341  20.345  0.00  0.00    +0.000 A 
ATOM     35  C   UNL     1       1.569   4.548  20.519  0.00  0.00    +0.000 A 
ENDBRANCH  29  30
ENDBRANCH  26  29
ENDBRANCH  22  23
ENDBRANCH   1  22
TORSDOF 12
ENDMDL
MODEL 8
REMARK VINA RESULT:      -7.5      1.684      2.418
REMARK  Name = 
REMARK  15 active torsions:
REMARK  status: ('A' for Active; 'I' for Inactive)
REMARK    1  A    between atoms: C_1  and  O_2
REMARK    2  A    between atoms: O_2  and  C_3
REMARK    3  A    between atoms: C_6  and  N_7
REMARK    4  A    between atoms: N_7  and  C_8
REMARK    5  A    between atoms: C_8  and  C_9
REMARK    6  A    between atoms: C_9  and  N_10
REMARK    7  A    between atoms: C_11  and  C_13
REMARK    8  A    between atoms: C_13  and  C_14
REMARK    9  A    between atoms: C_13  and  O_18
REMARK   10  A    between atoms: C_14  and  C_15
REMARK   11  A    between atoms: C_15  and  C_16
REMARK   12  A    between atoms: C_15  and  C_17
REMARK   13  A    between atoms: O_18  and  C_19
REMARK   14  A    between atoms: C_22  and  O_23
REMARK   15  A    between atoms: O_23  and  C_24
REMARK                            x       y       z     vdW  Elec       q    Type
REMARK                         _______ _______ _______ _____ _____    ______ ____
ROOT
ATOM      1  C   UNL     1       2.448   6.314  19.957  0.00  0.00    +0.000 C 
ENDROOT
BRANCH   1   3
ATOM      2  N   UNL     1       1.521   8.007  21.517  0.00  0.00    +0.000 N 
ATOM      3  C   UNL     1       1.879   7.745  20.205  0.00  0.00    +0.000 C 
ATOM      4  O   UNL     1       1.744   8.567  19.308  0.00  0.00    +0.000 OA
ATOM      5  H   UNL     1       1.888   7.400  22.239  0.00  0.00    +0.000 HD
BRANCH   2   6
ATOM      6  C   UNL     1       1.054   9.339  21.904  0.00  0.00    +0.000 C 
BRANCH   6   7
ATOM      7  C   UNL     1      -0.315   9.304  22.610  0.00  0.00    +0.000 C 
BRANCH   7   8
ATOM      8  N   UNL     1      -0.891  10.646  22.732  0.00  0.00    +0.000 N 
ATOM      9  H   UNL     1      -1.874  10.631  22.997  0.00  0.00    +0.000 HD
BRANCH   8  13
ATOM     10  C   UNL     1      -0.381  13.451  19.591  0.00  0.00    +0.000 A 
ATOM     11  C   UNL     1      -1.020  12.232  19.376  0.00  0.00    +0.000 A 
ATOM     12  C   UNL     1      -1.180  11.316  20.425  0.00  0.00    +0.000 A 
ATOM     13  C   UNL     1      -0.656  11.569  21.699  0.00  0.00    +0.000 A 
ATOM     14  C   UNL     1      -0.027  12.803  21.900  0.00  0.00    +0.000 A 
ATOM     15  C   UNL     1       0.120  13.734  20.858  0.00  0.00    +0.000 A 
BRANCH  10  17
ATOM     16  C   UNL     1      -0.183  15.659  18.763  0.00  0.00    +0.000 C 
ATOM     17  O   UNL     1      -0.283  14.265  18.496  0.00  0.00    +0.000 OA
ENDBRANCH  10  17
ENDBRANCH   8  13
ENDBRANCH   7   8
ENDBRANCH   6   7
ENDBRANCH   2   6
ENDBRANCH   1   3
BRANCH   1  18
ATOM     18  C   UNL     1       1.595   5.297  20.750  0.00  0.00    +0.000 C 
BRANCH  18  19
ATOM     19  C   UNL     1       1.870   3.788  20.561  0.00  0.00    +0.000 C 
ATOM     20  C   UNL     1       2.018   3.020  21.874  0.00  0.00    +0.000 C 
ATOM     21  C   UNL     1       0.863   3.088  19.649  0.00  0.00    +0.000 C 
ENDBRANCH  18  19
ENDBRANCH   1  18
BRANCH   1  22
ATOM     22  O   UNL     1       2.372   6.022  18.560  0.00  0.00    +0.000 OA
BRANCH  22  23
ATOM     23  C   UNL     1       3.544   5.753  17.907  0.00  0.00    +0.000 A 
ATOM     24  C   UNL     1       4.087   4.476  17.767  0.00  0.00    +0.000 A 
ATOM     25  C   UNL     1       5.262   4.287  17.042  0.00  0.00    +0.000 A 
ATOM     26  C   UNL     1       5.884   5.361  16.404  0.00  0.00    +0.000 A 
ATOM     27  C   UNL     1       5.358   6.645  16.557  0.00  0.00    +0.000 A 
ATOM     28  C   UNL     1       4.175   6.833  17.289  0.00  0.00    +0.000 A 
BRANCH  26  29
ATOM     29  O   UNL     1       7.037   5.063  15.715  0.00  0.00    +0.000 OA
BRANCH  29  30
ATOM     30  C   UNL     1       6.983   4.739  14.378  0.00  0.00    +0.000 A 
ATOM     31  C   UNL     1       7.819   5.485  13.541  0.00  0.00    +0.000 A 
ATOM     32  C   UNL     1       7.848   5.234  12.168  0.00  0.00    +0.000 A 
ATOM     33  C   UNL     1       7.043   4.233  11.628  0.00  0.00    +0.000 A 
ATOM     34  C   UNL     1       6.235   3.462  12.463  0.00  0.00    +0.000 A 
ATOM     35  C   UNL     1       6.224   3.698  13.839  0.00  0.00    +0.000 A 
ENDBRANCH  29  30
ENDBRANCH  26  29
ENDBRANCH  22  23
ENDBRANCH   1  22
TORSDOF 12
ENDMDL
MODEL 9
REMARK VINA RESULT:      -7.5      5.131     10.018
REMARK  Name = 
REMARK  15 active torsions:
REMARK  status: ('A' for Active; 'I' for Inactive)
REMARK    1  A    between atoms: C_1  and  O_2
REMARK    2  A    between atoms: O_2  and  C_3
REMARK    3  A    between atoms: C_6  and  N_7
REMARK    4  A    between atoms: N_7  and  C_8
REMARK    5  A    between atoms: C_8  and  C_9
REMARK    6  A    between atoms: C_9  and  N_10
REMARK    7  A    between atoms: C_11  and  C_13
REMARK    8  A    between atoms: C_13  and  C_14
REMARK    9  A    between atoms: C_13  and  O_18
REMARK   10  A    between atoms: C_14  and  C_15
REMARK   11  A    between atoms: C_15  and  C_16
REMARK   12  A    between atoms: C_15  and  C_17
REMARK   13  A    between atoms: O_18  and  C_19
REMARK   14  A    between atoms: C_22  and  O_23
REMARK   15  A    between atoms: O_23  and  C_24
REMARK                            x       y       z     vdW  Elec       q    Type
REMARK                         _______ _______ _______ _____ _____    ______ ____
ROOT
ATOM      1  C   UNL     1       4.645   6.250  17.064  0.00  0.00    +0.000 C 
ENDROOT
BRANCH   1   3
ATOM      2  N   UNL     1       6.814   7.441  17.261  0.00  0.00    +0.000 N 
ATOM      3  C   UNL     1       5.996   6.470  17.814  0.00  0.00    +0.000 C 
ATOM      4  O   UNL     1       6.316   5.824  18.803  0.00  0.00    +0.000 OA
ATOM      5  H   UNL     1       6.397   8.103  16.620  0.00  0.00    +0.000 HD
BRANCH   2   6
ATOM      6  C   UNL     1       8.071   7.808  17.914  0.00  0.00    +0.000 C 
BRANCH   6   7
ATOM      7  C   UNL     1       8.226   9.331  18.085  0.00  0.00    +0.000 C 
BRANCH   7   8
ATOM      8  N   UNL     1       9.106   9.658  19.211  0.00  0.00    +0.000 N 
ATOM      9  H   UNL     1       8.655   9.526  20.115  0.00  0.00    +0.000 HD
BRANCH   8  13
ATOM     10  C   UNL     1      11.401  13.225  19.207  0.00  0.00    +0.000 A 
ATOM     11  C   UNL     1      10.859  12.715  20.385  0.00  0.00    +0.000 A 
ATOM     12  C   UNL     1      10.102  11.535  20.369  0.00  0.00    +0.000 A 
ATOM     13  C   UNL     1       9.820  10.867  19.170  0.00  0.00    +0.000 A 
ATOM     14  C   UNL     1      10.382  11.388  17.999  0.00  0.00    +0.000 A 
ATOM     15  C   UNL     1      11.157  12.559  18.010  0.00  0.00    +0.000 A 
BRANCH  10  17
ATOM     16  C   UNL     1      11.466  15.444  20.025  0.00  0.00    +0.000 C 
ATOM     17  O   UNL     1      12.120  14.380  19.344  0.00  0.00    +0.000 OA
ENDBRANCH  10  17
ENDBRANCH   8  13
ENDBRANCH   7   8
ENDBRANCH   6   7
ENDBRANCH   2   6
ENDBRANCH   1   3
BRANCH   1  18
ATOM     18  C   UNL     1       4.753   4.963  16.215  0.00  0.00    +0.000 C 
BRANCH  18  19
ATOM     19  C   UNL     1       5.822   4.894  15.101  0.00  0.00    +0.000 C 
ATOM     20  C   UNL     1       7.169   4.347  15.572  0.00  0.00    +0.000 C 
ATOM     21  C   UNL     1       5.358   4.152  13.848  0.00  0.00    +0.000 C 
ENDBRANCH  18  19
ENDBRANCH   1  18
BRANCH   1  22
ATOM     22  O   UNL     1       3.600   6.106  18.028  0.00  0.00    +0.000 OA
BRANCH  22  23
ATOM     23  C   UNL     1       2.899   7.229  18.372  0.00  0.00    +0.000 A 
ATOM     24  C   UNL     1       2.722   8.329  17.534  0.00  0.00    +0.000 A 
ATOM     25  C   UNL     1       1.949   9.413  17.948  0.00  0.00    +0.000 A 
ATOM     26  C   UNL     1       1.303   9.393  19.185  0.00  0.00    +0.000 A 
ATOM     27  C   UNL     1       1.493   8.304  20.038  0.00  0.00    +0.000 A 
ATOM     28  C   UNL     1       2.272   7.215  19.619  0.00  0.00    +0.000 A 
BRANCH  26  29
ATOM     29  O   UNL     1       0.567  10.513  19.494  0.00  0.00    +0.000 OA
BRANCH  29  30
ATOM     30  C   UNL     1      -0.695  10.682  18.969  0.00  0.00    +0.000 A 
ATOM     31  C   UNL     1      -1.472  11.678  19.569  0.00  0.00    +0.000 A 
ATOM     32  C   UNL     1      -2.765  11.936  19.110  0.00  0.00    +0.000 A 
ATOM     33  C   UNL     1      -3.283  11.202  18.044  0.00  0.00    +0.000 A 
ATOM     34  C   UNL     1      -2.499  10.233  17.419  0.00  0.00    +0.000 A 
ATOM     35  C   UNL     1      -1.198   9.990  17.864  0.00  0.00    +0.000 A 
ENDBRANCH  29  30
ENDBRANCH  26  29
ENDBRANCH  22  23
ENDBRANCH   1  22
TORSDOF 12
ENDMDL
