MODEL 1
REMARK VINA RESULT:      -9.2      0.000      0.000
REMARK  Name = 
REMARK  8 active torsions:
REMARK  status: ('A' for Active; 'I' for Inactive)
REMARK    1  A    between atoms: C_1  and  C_2
REMARK    2  A    between atoms: N_8  and  C_9
REMARK    3  A    between atoms: C_10  and  S_11
REMARK    4  A    between atoms: S_11  and  C_12
REMARK    5  A    between atoms: C_12  and  C_13
REMARK    6  A    between atoms: C_16  and  C_17
REMARK    7  A    between atoms: N_19  and  C_20
REMARK    8  A    between atoms: C_25  and  N_26
REMARK                            x       y       z     vdW  Elec       q    Type
REMARK                         _______ _______ _______ _____ _____    ______ ____
ROOT
ATOM      1  C   UNL     1       6.927   5.496  17.721  0.00  0.00    +0.000 A 
ATOM      2  C   UNL     1       6.525   6.568  16.913  0.00  0.00    +0.000 A 
ATOM      3  C   UNL     1       7.037   7.851  17.113  0.00  0.00    +0.000 A 
ATOM      4  C   UNL     1       7.944   8.105  18.147  0.00  0.00    +0.000 A 
ATOM      5  C   UNL     1       8.300   7.068  19.012  0.00  0.00    +0.000 A 
ATOM      6  C   UNL     1       7.790   5.774  18.800  0.00  0.00    +0.000 A 
ENDROOT
BRANCH   4   7
ATOM      7  C   UNL     1       8.453   9.499  18.268  0.00  0.00    +0.000 C 
ATOM      8  O   UNL     1       8.096  10.299  17.408  0.00  0.00    +0.000 OA
ATOM      9  N   UNL     1       9.362   9.735  19.283  0.00  0.00    +0.000 N 
ATOM     10  H   UNL     1       9.650   8.964  19.868  0.00  0.00    +0.000 HD
BRANCH   9  11
ATOM     11  C   UNL     1      10.100  10.936  19.464  0.00  0.00    +0.000 A 
ATOM     12  C   UNL     1      10.976  11.429  18.489  0.00  0.00    +0.000 A 
ATOM     13  C   UNL     1      11.712  12.594  18.703  0.00  0.00    +0.000 A 
ATOM     14  C   UNL     1      11.556  13.303  19.887  0.00  0.00    +0.000 A 
ATOM     15  C   UNL     1      10.657  12.848  20.853  0.00  0.00    +0.000 A 
ATOM     16  C   UNL     1       9.958  11.647  20.681  0.00  0.00    +0.000 A 
BRANCH  16  17
ATOM     17  N   UNL     1       9.020  11.253  21.663  0.00  0.00    +0.000 N 
ATOM     18  H   UNL     1       8.333  10.602  21.293  0.00  0.00    +0.000 HD
ATOM     19  H   UNL     1       8.555  12.042  22.098  0.00  0.00    +0.000 HD
ENDBRANCH  16  17
ENDBRANCH   9  11
ENDBRANCH   4   7
BRANCH   1  20
ATOM     20  C   UNL     1       6.396   4.084  17.506  0.00  0.00    +0.000 C 
BRANCH  20  21
ATOM     21  S   UNL     1       4.734   4.035  16.749  0.00  0.00    +0.000 S 
BRANCH  21  31
ATOM     22  C   UNL     1       1.114  10.345  18.718  0.00  0.00    +0.000 C 
ATOM     23  C   UNL     1       1.553   8.964  19.102  0.00  0.00    +0.000 A 
ATOM     24  C   UNL     1       1.317   8.474  20.391  0.00  0.00    +0.000 A 
ATOM     25  C   UNL     1       1.705   7.178  20.728  0.00  0.00    +0.000 A 
ATOM     26  C   UNL     1       2.347   6.379  19.775  0.00  0.00    +0.000 A 
ATOM     27  C   UNL     1       2.780   5.014  20.104  0.00  0.00    +0.000 A 
ATOM     28  O   UNL     1       2.465   4.539  21.194  0.00  0.00    +0.000 OA
ATOM     29  N   UNL     1       3.526   4.350  19.136  0.00  0.00    +0.000 N 
ATOM     30  C   UNL     1       4.011   3.020  19.491  0.00  0.00    +0.000 C 
ATOM     31  C   UNL     1       3.759   4.935  17.896  0.00  0.00    +0.000 A 
ATOM     32  N   UNL     1       3.320   6.100  17.550  0.00  0.00    +0.000 NA
ATOM     33  C   UNL     1       2.611   6.852  18.495  0.00  0.00    +0.000 A 
ATOM     34  C   UNL     1       2.191   8.143  18.160  0.00  0.00    +0.000 A 
ENDBRANCH  21  31
ENDBRANCH  20  21
ENDBRANCH   1  20
TORSDOF 6
ENDMDL
MODEL 2
REMARK VINA RESULT:      -9.0      5.025      8.172
REMARK  Name = 
REMARK  8 active torsions:
REMARK  status: ('A' for Active; 'I' for Inactive)
REMARK    1  A    between atoms: C_1  and  C_2
REMARK    2  A    between atoms: N_8  and  C_9
REMARK    3  A    between atoms: C_10  and  S_11
REMARK    4  A    between atoms: S_11  and  C_12
REMARK    5  A    between atoms: C_12  and  C_13
REMARK    6  A    between atoms: C_16  and  C_17
REMARK    7  A    between atoms: N_19  and  C_20
REMARK    8  A    between atoms: C_25  and  N_26
REMARK                            x       y       z     vdW  Elec       q    Type
REMARK                         _______ _______ _______ _____ _____    ______ ____
ROOT
ATOM      1  C   UNL     1       0.981   9.116  20.629  0.00  0.00    +0.000 A 
ATOM      2  C   UNL     1       1.402   9.470  19.340  0.00  0.00    +0.000 A 
ATOM      3  C   UNL     1       2.081   8.559  18.530  0.00  0.00    +0.000 A 
ATOM      4  C   UNL     1       2.384   7.275  18.997  0.00  0.00    +0.000 A 
ATOM      5  C   UNL     1       2.041   6.926  20.305  0.00  0.00    +0.000 A 
ATOM      6  C   UNL     1       1.348   7.845  21.115  0.00  0.00    +0.000 A 
ENDROOT
BRANCH   4   7
ATOM      7  C   UNL     1       3.089   6.365  18.053  0.00  0.00    +0.000 C 
ATOM      8  O   UNL     1       2.562   5.280  17.827  0.00  0.00    +0.000 OA
ATOM      9  N   UNL     1       4.326   6.788  17.599  0.00  0.00    +0.000 N 
ATOM     10  H   UNL     1       4.695   7.665  17.938  0.00  0.00    +0.000 HD
BRANCH   9  11
ATOM     11  C   UNL     1       5.237   6.004  16.842  0.00  0.00    +0.000 A 
ATOM     12  C   UNL     1       5.159   5.908  15.447  0.00  0.00    +0.000 A 
ATOM     13  C   UNL     1       6.047   5.107  14.728  0.00  0.00    +0.000 A 
ATOM     14  C   UNL     1       7.049   4.414  15.396  0.00  0.00    +0.000 A 
ATOM     15  C   UNL     1       7.166   4.530  16.781  0.00  0.00    +0.000 A 
ATOM     16  C   UNL     1       6.244   5.279  17.525  0.00  0.00    +0.000 A 
BRANCH  16  17
ATOM     17  N   UNL     1       6.434   5.409  18.920  0.00  0.00    +0.000 N 
ATOM     18  H   UNL     1       6.512   6.382  19.203  0.00  0.00    +0.000 HD
ATOM     19  H   UNL     1       7.230   4.880  19.257  0.00  0.00    +0.000 HD
ENDBRANCH  16  17
ENDBRANCH   9  11
ENDBRANCH   4   7
BRANCH   1  20
ATOM     20  C   UNL     1       0.221  10.090  21.522  0.00  0.00    +0.000 C 
BRANCH  20  21
ATOM     21  S   UNL     1       0.112  11.779  20.835  0.00  0.00    +0.000 S 
BRANCH  21  31
ATOM     22  C   UNL     1      -3.366  10.108  14.360  0.00  0.00    +0.000 C 
ATOM     23  C   UNL     1      -3.464  10.693  15.737  0.00  0.00    +0.000 A 
ATOM     24  C   UNL     1      -4.650  11.295  16.172  0.00  0.00    +0.000 A 
ATOM     25  C   UNL     1      -4.739  11.811  17.464  0.00  0.00    +0.000 A 
ATOM     26  C   UNL     1      -3.630  11.738  18.315  0.00  0.00    +0.000 A 
ATOM     27  C   UNL     1      -3.689  12.284  19.678  0.00  0.00    +0.000 A 
ATOM     28  O   UNL     1      -4.764  12.703  20.103  0.00  0.00    +0.000 OA
ATOM     29  N   UNL     1      -2.499  12.284  20.398  0.00  0.00    +0.000 N 
ATOM     30  C   UNL     1      -2.544  12.887  21.726  0.00  0.00    +0.000 C 
ATOM     31  C   UNL     1      -1.349  11.709  19.866  0.00  0.00    +0.000 A 
ATOM     32  N   UNL     1      -1.290  11.147  18.704  0.00  0.00    +0.000 NA
ATOM     33  C   UNL     1      -2.435  11.163  17.898  0.00  0.00    +0.000 A 
ATOM     34  C   UNL     1      -2.368  10.623  16.610  0.00  0.00    +0.000 A 
ENDBRANCH  21  31
ENDBRANCH  20  21
ENDBRANCH   1  20
TORSDOF 6
ENDMDL
MODEL 3
REMARK VINA RESULT:      -9.0      1.517      1.820
REMARK  Name = 
REMARK  8 active torsions:
REMARK  status: ('A' for Active; 'I' for Inactive)
REMARK    1  A    between atoms: C_1  and  C_2
REMARK    2  A    between atoms: N_8  and  C_9
REMARK    3  A    between atoms: C_10  and  S_11
REMARK    4  A    between atoms: S_11  and  C_12
REMARK    5  A    between atoms: C_12  and  C_13
REMARK    6  A    between atoms: C_16  and  C_17
REMARK    7  A    between atoms: N_19  and  C_20
REMARK    8  A    between atoms: C_25  and  N_26
REMARK                            x       y       z     vdW  Elec       q    Type
REMARK                         _______ _______ _______ _____ _____    ______ ____
ROOT
ATOM      1  C   UNL     1       7.223   6.072  17.791  0.00  0.00    +0.000 A 
ATOM      2  C   UNL     1       6.979   7.225  17.031  0.00  0.00    +0.000 A 
ATOM      3  C   UNL     1       7.564   8.446  17.369  0.00  0.00    +0.000 A 
ATOM      4  C   UNL     1       8.386   8.557  18.495  0.00  0.00    +0.000 A 
ATOM      5  C   UNL     1       8.583   7.440  19.309  0.00  0.00    +0.000 A 
ATOM      6  C   UNL     1       8.000   6.208  18.959  0.00  0.00    +0.000 A 
ENDROOT
BRANCH   4   7
ATOM      7  C   UNL     1       8.984   9.894  18.762  0.00  0.00    +0.000 C 
ATOM      8  O   UNL     1       9.326  10.131  19.917  0.00  0.00    +0.000 OA
ATOM      9  N   UNL     1       9.004  10.782  17.701  0.00  0.00    +0.000 N 
ATOM     10  H   UNL     1       8.601  10.496  16.820  0.00  0.00    +0.000 HD
BRANCH   9  11
ATOM     11  C   UNL     1       9.362  12.154  17.782  0.00  0.00    +0.000 A 
ATOM     12  C   UNL     1       8.414  13.161  18.005  0.00  0.00    +0.000 A 
ATOM     13  C   UNL     1       8.787  14.505  18.050  0.00  0.00    +0.000 A 
ATOM     14  C   UNL     1      10.122  14.858  17.906  0.00  0.00    +0.000 A 
ATOM     15  C   UNL     1      11.085  13.864  17.724  0.00  0.00    +0.000 A 
ATOM     16  C   UNL     1      10.721  12.516  17.612  0.00  0.00    +0.000 A 
BRANCH  16  17
ATOM     17  N   UNL     1      11.736  11.541  17.480  0.00  0.00    +0.000 N 
ATOM     18  H   UNL     1      12.307  11.470  18.318  0.00  0.00    +0.000 HD
ATOM     19  H   UNL     1      12.323  11.696  16.668  0.00  0.00    +0.000 HD
ENDBRANCH  16  17
ENDBRANCH   9  11
ENDBRANCH   4   7
BRANCH   1  20
ATOM     20  C   UNL     1       6.611   4.725  17.428  0.00  0.00    +0.000 C 
BRANCH  20  21
ATOM     21  S   UNL     1       5.042   4.860  16.501  0.00  0.00    +0.000 S 
BRANCH  21  31
ATOM     22  C   UNL     1       0.931  10.747  18.793  0.00  0.00    +0.000 C 
ATOM     23  C   UNL     1       1.447   9.371  19.087  0.00  0.00    +0.000 A 
ATOM     24  C   UNL     1       1.194   8.764  20.323  0.00  0.00    +0.000 A 
ATOM     25  C   UNL     1       1.654   7.473  20.575  0.00  0.00    +0.000 A 
ATOM     26  C   UNL     1       2.386   6.796  19.592  0.00  0.00    +0.000 A 
ATOM     27  C   UNL     1       2.896   5.439  19.833  0.00  0.00    +0.000 A 
ATOM     28  O   UNL     1       2.572   4.859  20.867  0.00  0.00    +0.000 OA
ATOM     29  N   UNL     1       3.723   4.904  18.851  0.00  0.00    +0.000 N 
ATOM     30  C   UNL     1       4.282   3.583  19.122  0.00  0.00    +0.000 C 
ATOM     31  C   UNL     1       3.965   5.601  17.671  0.00  0.00    +0.000 A 
ATOM     32  N   UNL     1       3.462   6.759  17.398  0.00  0.00    +0.000 NA
ATOM     33  C   UNL     1       2.668   7.386  18.365  0.00  0.00    +0.000 A 
ATOM     34  C   UNL     1       2.175   8.670  18.114  0.00  0.00    +0.000 A 
ENDBRANCH  21  31
ENDBRANCH  20  21
ENDBRANCH   1  20
TORSDOF 6
ENDMDL
MODEL 4
REMARK VINA RESULT:      -8.9      5.404      8.680
REMARK  Name = 
REMARK  8 active torsions:
REMARK  status: ('A' for Active; 'I' for Inactive)
REMARK    1  A    between atoms: C_1  and  C_2
REMARK    2  A    between atoms: N_8  and  C_9
REMARK    3  A    between atoms: C_10  and  S_11
REMARK    4  A    between atoms: S_11  and  C_12
REMARK    5  A    between atoms: C_12  and  C_13
REMARK    6  A    between atoms: C_16  and  C_17
REMARK    7  A    between atoms: N_19  and  C_20
REMARK    8  A    between atoms: C_25  and  N_26
REMARK                            x       y       z     vdW  Elec       q    Type
REMARK                         _______ _______ _______ _____ _____    ______ ____
ROOT
ATOM      1  C   UNL     1       0.723   9.681  19.766  0.00  0.00    +0.000 A 
ATOM      2  C   UNL     1       1.144   9.698  18.430  0.00  0.00    +0.000 A 
ATOM      3  C   UNL     1       1.914   8.659  17.905  0.00  0.00    +0.000 A 
ATOM      4  C   UNL     1       2.310   7.586  18.712  0.00  0.00    +0.000 A 
ATOM      5  C   UNL     1       1.966   7.586  20.065  0.00  0.00    +0.000 A 
ATOM      6  C   UNL     1       1.180   8.630  20.586  0.00  0.00    +0.000 A 
ENDROOT
BRANCH   4   7
ATOM      7  C   UNL     1       3.110   6.514  18.058  0.00  0.00    +0.000 C 
ATOM      8  O   UNL     1       2.771   5.354  18.277  0.00  0.00    +0.000 OA
ATOM      9  N   UNL     1       4.224   6.924  17.348  0.00  0.00    +0.000 N 
ATOM     10  H   UNL     1       4.451   7.907  17.324  0.00  0.00    +0.000 HD
BRANCH   9  11
ATOM     11  C   UNL     1       5.214   6.064  16.802  0.00  0.00    +0.000 A 
ATOM     12  C   UNL     1       5.351   5.863  15.423  0.00  0.00    +0.000 A 
ATOM     13  C   UNL     1       6.312   4.989  14.913  0.00  0.00    +0.000 A 
ATOM     14  C   UNL     1       7.174   4.328  15.778  0.00  0.00    +0.000 A 
ATOM     15  C   UNL     1       7.079   4.547  17.153  0.00  0.00    +0.000 A 
ATOM     16  C   UNL     1       6.079   5.371  17.685  0.00  0.00    +0.000 A 
BRANCH  16  17
ATOM     17  N   UNL     1       6.054   5.604  19.080  0.00  0.00    +0.000 N 
ATOM     18  H   UNL     1       5.513   6.432  19.317  0.00  0.00    +0.000 HD
ATOM     19  H   UNL     1       6.982   5.665  19.483  0.00  0.00    +0.000 HD
ENDBRANCH  16  17
ENDBRANCH   9  11
ENDBRANCH   4   7
BRANCH   1  20
ATOM     20  C   UNL     1      -0.136  10.796  20.353  0.00  0.00    +0.000 C 
BRANCH  20  21
ATOM     21  S   UNL     1      -0.565  12.100  19.147  0.00  0.00    +0.000 S 
BRANCH  21  31
ATOM     22  C   UNL     1      -7.046  13.094  22.865  0.00  0.00    +0.000 C 
ATOM     23  C   UNL     1      -6.363  12.674  21.598  0.00  0.00    +0.000 A 
ATOM     24  C   UNL     1      -7.102  12.152  20.530  0.00  0.00    +0.000 A 
ATOM     25  C   UNL     1      -6.460  11.791  19.347  0.00  0.00    +0.000 A 
ATOM     26  C   UNL     1      -5.072  11.936  19.241  0.00  0.00    +0.000 A 
ATOM     27  C   UNL     1      -4.366  11.552  18.011  0.00  0.00    +0.000 A 
ATOM     28  O   UNL     1      -5.024  11.209  17.031  0.00  0.00    +0.000 OA
ATOM     29  N   UNL     1      -2.977  11.608  18.051  0.00  0.00    +0.000 N 
ATOM     30  C   UNL     1      -2.275  11.162  16.851  0.00  0.00    +0.000 C 
ATOM     31  C   UNL     1      -2.319  12.092  19.177  0.00  0.00    +0.000 A 
ATOM     32  N   UNL     1      -2.918  12.514  20.241  0.00  0.00    +0.000 NA
ATOM     33  C   UNL     1      -4.315  12.432  20.296  0.00  0.00    +0.000 A 
ATOM     34  C   UNL     1      -4.973  12.819  21.466  0.00  0.00    +0.000 A 
ENDBRANCH  21  31
ENDBRANCH  20  21
ENDBRANCH   1  20
TORSDOF 6
ENDMDL
MODEL 5
REMARK VINA RESULT:      -8.9      0.701      1.560
REMARK  Name = 
REMARK  8 active torsions:
REMARK  status: ('A' for Active; 'I' for Inactive)
REMARK    1  A    between atoms: C_1  and  C_2
REMARK    2  A    between atoms: N_8  and  C_9
REMARK    3  A    between atoms: C_10  and  S_11
REMARK    4  A    between atoms: S_11  and  C_12
REMARK    5  A    between atoms: C_12  and  C_13
REMARK    6  A    between atoms: C_16  and  C_17
REMARK    7  A    between atoms: N_19  and  C_20
REMARK    8  A    between atoms: C_25  and  N_26
REMARK                            x       y       z     vdW  Elec       q    Type
REMARK                         _______ _______ _______ _____ _____    ______ ____
ROOT
ATOM      1  C   UNL     1       7.328   5.820  17.880  0.00  0.00    +0.000 A 
ATOM      2  C   UNL     1       8.104   6.266  18.959  0.00  0.00    +0.000 A 
ATOM      3  C   UNL     1       8.472   7.607  19.075  0.00  0.00    +0.000 A 
ATOM      4  C   UNL     1       8.099   8.537  18.099  0.00  0.00    +0.000 A 
ATOM      5  C   UNL     1       7.391   8.102  16.977  0.00  0.00    +0.000 A 
ATOM      6  C   UNL     1       7.013   6.751  16.869  0.00  0.00    +0.000 A 
ENDROOT
BRANCH   4   7
ATOM      7  C   UNL     1       8.518   9.949  18.320  0.00  0.00    +0.000 C 
ATOM      8  O   UNL     1       8.070  10.790  17.546  0.00  0.00    +0.000 OA
ATOM      9  N   UNL     1       9.452  10.164  19.316  0.00  0.00    +0.000 N 
ATOM     10  H   UNL     1       9.817   9.369  19.821  0.00  0.00    +0.000 HD
BRANCH   9  11
ATOM     11  C   UNL     1      10.114  11.395  19.572  0.00  0.00    +0.000 A 
ATOM     12  C   UNL     1       9.926  12.110  20.762  0.00  0.00    +0.000 A 
ATOM     13  C   UNL     1      10.564  13.333  20.976  0.00  0.00    +0.000 A 
ATOM     14  C   UNL     1      11.427  13.841  20.015  0.00  0.00    +0.000 A 
ATOM     15  C   UNL     1      11.658  13.121  18.841  0.00  0.00    +0.000 A 
ATOM     16  C   UNL     1      10.977  11.925  18.582  0.00  0.00    +0.000 A 
BRANCH  16  17
ATOM     17  N   UNL     1      11.282  11.205  17.403  0.00  0.00    +0.000 N 
ATOM     18  H   UNL     1      12.003  10.505  17.561  0.00  0.00    +0.000 HD
ATOM     19  H   UNL     1      11.543  11.809  16.633  0.00  0.00    +0.000 HD
ENDBRANCH  16  17
ENDBRANCH   9  11
ENDBRANCH   4   7
BRANCH   1  20
ATOM     20  C   UNL     1       6.899   4.364  17.745  0.00  0.00    +0.000 C 
BRANCH  20  21
ATOM     21  S   UNL     1       5.307   4.149  16.874  0.00  0.00    +0.000 S 
BRANCH  21  31
ATOM     22  C   UNL     1       1.289  10.325  18.458  0.00  0.00    +0.000 C 
ATOM     23  C   UNL     1       1.725   8.955  18.880  0.00  0.00    +0.000 A 
ATOM     24  C   UNL     1       1.360   8.445  20.131  0.00  0.00    +0.000 A 
ATOM     25  C   UNL     1       1.748   7.158  20.502  0.00  0.00    +0.000 A 
ATOM     26  C   UNL     1       2.520   6.389  19.623  0.00  0.00    +0.000 A 
ATOM     27  C   UNL     1       2.955   5.035  19.992  0.00  0.00    +0.000 A 
ATOM     28  O   UNL     1       2.535   4.540  21.035  0.00  0.00    +0.000 OA
ATOM     29  N   UNL     1       3.827   4.403  19.111  0.00  0.00    +0.000 N 
ATOM     30  C   UNL     1       4.311   3.085  19.511  0.00  0.00    +0.000 C 
ATOM     31  C   UNL     1       4.181   5.007  17.909  0.00  0.00    +0.000 A 
ATOM     32  N   UNL     1       3.747   6.161  17.522  0.00  0.00    +0.000 NA
ATOM     33  C   UNL     1       2.912   6.882  18.385  0.00  0.00    +0.000 A 
ATOM     34  C   UNL     1       2.492   8.162  18.012  0.00  0.00    +0.000 A 
ENDBRANCH  21  31
ENDBRANCH  20  21
ENDBRANCH   1  20
TORSDOF 6
ENDMDL
MODEL 6
REMARK VINA RESULT:      -8.9      4.302      7.635
REMARK  Name = 
REMARK  8 active torsions:
REMARK  status: ('A' for Active; 'I' for Inactive)
REMARK    1  A    between atoms: C_1  and  C_2
REMARK    2  A    between atoms: N_8  and  C_9
REMARK    3  A    between atoms: C_10  and  S_11
REMARK    4  A    between atoms: S_11  and  C_12
REMARK    5  A    between atoms: C_12  and  C_13
REMARK    6  A    between atoms: C_16  and  C_17
REMARK    7  A    between atoms: N_19  and  C_20
REMARK    8  A    between atoms: C_25  and  N_26
REMARK                            x       y       z     vdW  Elec       q    Type
REMARK                         _______ _______ _______ _____ _____    ______ ____
ROOT
ATOM      1  C   UNL     1       2.435   5.326  19.270  0.00  0.00    +0.000 A 
ATOM      2  C   UNL     1       2.616   6.362  18.344  0.00  0.00    +0.000 A 
ATOM      3  C   UNL     1       2.256   7.674  18.653  0.00  0.00    +0.000 A 
ATOM      4  C   UNL     1       1.676   7.984  19.888  0.00  0.00    +0.000 A 
ATOM      5  C   UNL     1       1.416   6.956  20.797  0.00  0.00    +0.000 A 
ATOM      6  C   UNL     1       1.791   5.636  20.485  0.00  0.00    +0.000 A 
ENDROOT
BRANCH   4   7
ATOM      7  C   UNL     1       1.346   9.414  20.136  0.00  0.00    +0.000 C 
ATOM      8  O   UNL     1       1.007   9.718  21.276  0.00  0.00    +0.000 OA
ATOM      9  N   UNL     1       1.356  10.248  19.033  0.00  0.00    +0.000 N 
ATOM     10  H   UNL     1       1.560   9.853  18.126  0.00  0.00    +0.000 HD
BRANCH   9  11
ATOM     11  C   UNL     1       0.904  11.595  19.015  0.00  0.00    +0.000 A 
ATOM     12  C   UNL     1       1.654  12.641  19.568  0.00  0.00    +0.000 A 
ATOM     13  C   UNL     1       1.174  13.952  19.565  0.00  0.00    +0.000 A 
ATOM     14  C   UNL     1      -0.051  14.238  18.977  0.00  0.00    +0.000 A 
ATOM     15  C   UNL     1      -0.792  13.214  18.386  0.00  0.00    +0.000 A 
ATOM     16  C   UNL     1      -0.356  11.885  18.436  0.00  0.00    +0.000 A 
BRANCH  16  17
ATOM     17  N   UNL     1      -1.114  10.889  17.778  0.00  0.00    +0.000 N 
ATOM     18  H   UNL     1      -2.100  11.133  17.728  0.00  0.00    +0.000 HD
ATOM     19  H   UNL     1      -1.001   9.972  18.195  0.00  0.00    +0.000 HD
ENDBRANCH  16  17
ENDBRANCH   9  11
ENDBRANCH   4   7
BRANCH   1  20
ATOM     20  C   UNL     1       2.840   3.890  18.960  0.00  0.00    +0.000 C 
BRANCH  20  21
ATOM     21  S   UNL     1       4.614   3.553  19.243  0.00  0.00    +0.000 S 
BRANCH  21  31
ATOM     22  C   UNL     1       5.639   3.040  11.794  0.00  0.00    +0.000 C 
ATOM     23  C   UNL     1       6.008   3.715  13.080  0.00  0.00    +0.000 A 
ATOM     24  C   UNL     1       7.024   4.677  13.113  0.00  0.00    +0.000 A 
ATOM     25  C   UNL     1       7.341   5.318  14.310  0.00  0.00    +0.000 A 
ATOM     26  C   UNL     1       6.648   4.981  15.479  0.00  0.00    +0.000 A 
ATOM     27  C   UNL     1       6.968   5.631  16.758  0.00  0.00    +0.000 A 
ATOM     28  O   UNL     1       7.773   6.560  16.766  0.00  0.00    +0.000 OA
ATOM     29  N   UNL     1       6.321   5.134  17.884  0.00  0.00    +0.000 N 
ATOM     30  C   UNL     1       6.689   5.736  19.162  0.00  0.00    +0.000 C 
ATOM     31  C   UNL     1       5.359   4.136  17.766  0.00  0.00    +0.000 A 
ATOM     32  N   UNL     1       4.998   3.606  16.644  0.00  0.00    +0.000 NA
ATOM     33  C   UNL     1       5.650   4.014  15.474  0.00  0.00    +0.000 A 
ATOM     34  C   UNL     1       5.322   3.399  14.263  0.00  0.00    +0.000 A 
ENDBRANCH  21  31
ENDBRANCH  20  21
ENDBRANCH   1  20
TORSDOF 6
ENDMDL
MODEL 7
REMARK VINA RESULT:      -8.9      4.191      8.120
REMARK  Name = 
REMARK  8 active torsions:
REMARK  status: ('A' for Active; 'I' for Inactive)
REMARK    1  A    between atoms: C_1  and  C_2
REMARK    2  A    between atoms: N_8  and  C_9
REMARK    3  A    between atoms: C_10  and  S_11
REMARK    4  A    between atoms: S_11  and  C_12
REMARK    5  A    between atoms: C_12  and  C_13
REMARK    6  A    between atoms: C_16  and  C_17
REMARK    7  A    between atoms: N_19  and  C_20
REMARK    8  A    between atoms: C_25  and  N_26
REMARK                            x       y       z     vdW  Elec       q    Type
REMARK                         _______ _______ _______ _____ _____    ______ ____
ROOT
ATOM      1  C   UNL     1       2.506   5.450  19.107  0.00  0.00    +0.000 A 
ATOM      2  C   UNL     1       2.003   5.878  20.343  0.00  0.00    +0.000 A 
ATOM      3  C   UNL     1       1.528   7.178  20.515  0.00  0.00    +0.000 A 
ATOM      4  C   UNL     1       1.570   8.099  19.463  0.00  0.00    +0.000 A 
ATOM      5  C   UNL     1       2.136   7.718  18.245  0.00  0.00    +0.000 A 
ATOM      6  C   UNL     1       2.604   6.402  18.072  0.00  0.00    +0.000 A 
ENDROOT
BRANCH   4   7
ATOM      7  C   UNL     1       1.019   9.456  19.734  0.00  0.00    +0.000 C 
ATOM      8  O   UNL     1       1.594  10.405  19.210  0.00  0.00    +0.000 OA
ATOM      9  N   UNL     1      -0.029   9.525  20.634  0.00  0.00    +0.000 N 
ATOM     10  H   UNL     1      -0.350   8.674  21.073  0.00  0.00    +0.000 HD
BRANCH   9  11
ATOM     11  C   UNL     1      -0.580  10.722  21.165  0.00  0.00    +0.000 A 
ATOM     12  C   UNL     1      -0.909  11.816  20.355  0.00  0.00    +0.000 A 
ATOM     13  C   UNL     1      -1.420  12.993  20.905  0.00  0.00    +0.000 A 
ATOM     14  C   UNL     1      -1.640  13.078  22.274  0.00  0.00    +0.000 A 
ATOM     15  C   UNL     1      -1.356  11.982  23.090  0.00  0.00    +0.000 A 
ATOM     16  C   UNL     1      -0.783  10.818  22.564  0.00  0.00    +0.000 A 
BRANCH  16  17
ATOM     17  N   UNL     1      -0.561   9.715  23.422  0.00  0.00    +0.000 N 
ATOM     18  H   UNL     1      -1.283   9.006  23.324  0.00  0.00    +0.000 HD
ATOM     19  H   UNL     1      -0.468   9.989  24.393  0.00  0.00    +0.000 HD
ENDBRANCH  16  17
ENDBRANCH   9  11
ENDBRANCH   4   7
BRANCH   1  20
ATOM     20  C   UNL     1       3.011   4.028  18.892  0.00  0.00    +0.000 C 
BRANCH  20  21
ATOM     21  S   UNL     1       4.801   3.833  19.201  0.00  0.00    +0.000 S 
BRANCH  21  31
ATOM     22  C   UNL     1       5.632   2.910  11.767  0.00  0.00    +0.000 C 
ATOM     23  C   UNL     1       6.040   3.651  13.005  0.00  0.00    +0.000 A 
ATOM     24  C   UNL     1       7.064   4.603  12.962  0.00  0.00    +0.000 A 
ATOM     25  C   UNL     1       7.415   5.305  14.113  0.00  0.00    +0.000 A 
ATOM     26  C   UNL     1       6.750   5.038  15.316  0.00  0.00    +0.000 A 
ATOM     27  C   UNL     1       7.108   5.752  16.549  0.00  0.00    +0.000 A 
ATOM     28  O   UNL     1       7.920   6.672  16.488  0.00  0.00    +0.000 OA
ATOM     29  N   UNL     1       6.485   5.323  17.716  0.00  0.00    +0.000 N 
ATOM     30  C   UNL     1       6.890   5.989  18.950  0.00  0.00    +0.000 C 
ATOM     31  C   UNL     1       5.512   4.329  17.677  0.00  0.00    +0.000 A 
ATOM     32  N   UNL     1       5.120   3.742  16.595  0.00  0.00    +0.000 NA
ATOM     33  C   UNL     1       5.745   4.081  15.388  0.00  0.00    +0.000 A 
ATOM     34  C   UNL     1       5.381   3.405  14.220  0.00  0.00    +0.000 A 
ENDBRANCH  21  31
ENDBRANCH  20  21
ENDBRANCH   1  20
TORSDOF 6
ENDMDL
MODEL 8
REMARK VINA RESULT:      -8.8      1.621      1.986
REMARK  Name = 
REMARK  8 active torsions:
REMARK  status: ('A' for Active; 'I' for Inactive)
REMARK    1  A    between atoms: C_1  and  C_2
REMARK    2  A    between atoms: N_8  and  C_9
REMARK    3  A    between atoms: C_10  and  S_11
REMARK    4  A    between atoms: S_11  and  C_12
REMARK    5  A    between atoms: C_12  and  C_13
REMARK    6  A    between atoms: C_16  and  C_17
REMARK    7  A    between atoms: N_19  and  C_20
REMARK    8  A    between atoms: C_25  and  N_26
REMARK                            x       y       z     vdW  Elec       q    Type
REMARK                         _______ _______ _______ _____ _____    ______ ____
ROOT
ATOM      1  C   UNL     1       7.305   6.045  17.643  0.00  0.00    +0.000 A 
ATOM      2  C   UNL     1       7.084   7.211  16.898  0.00  0.00    +0.000 A 
ATOM      3  C   UNL     1       7.633   8.432  17.294  0.00  0.00    +0.000 A 
ATOM      4  C   UNL     1       8.395   8.526  18.463  0.00  0.00    +0.000 A 
ATOM      5  C   UNL     1       8.565   7.393  19.260  0.00  0.00    +0.000 A 
ATOM      6  C   UNL     1       8.019   6.162  18.852  0.00  0.00    +0.000 A 
ENDROOT
BRANCH   4   7
ATOM      7  C   UNL     1       8.959   9.865  18.791  0.00  0.00    +0.000 C 
ATOM      8  O   UNL     1       9.140  10.117  19.979  0.00  0.00    +0.000 OA
ATOM      9  N   UNL     1       9.131  10.736  17.731  0.00  0.00    +0.000 N 
ATOM     10  H   UNL     1       8.851  10.440  16.807  0.00  0.00    +0.000 HD
BRANCH   9  11
ATOM     11  C   UNL     1       9.483  12.108  17.843  0.00  0.00    +0.000 A 
ATOM     12  C   UNL     1       8.537  13.102  18.122  0.00  0.00    +0.000 A 
ATOM     13  C   UNL     1       8.903  14.447  18.196  0.00  0.00    +0.000 A 
ATOM     14  C   UNL     1      10.232  14.812  18.024  0.00  0.00    +0.000 A 
ATOM     15  C   UNL     1      11.195  13.830  17.785  0.00  0.00    +0.000 A 
ATOM     16  C   UNL     1      10.835  12.484  17.644  0.00  0.00    +0.000 A 
BRANCH  16  17
ATOM     17  N   UNL     1      11.851  11.519  17.454  0.00  0.00    +0.000 N 
ATOM     18  H   UNL     1      11.468  10.593  17.279  0.00  0.00    +0.000 HD
ATOM     19  H   UNL     1      12.508  11.487  18.224  0.00  0.00    +0.000 HD
ENDBRANCH  16  17
ENDBRANCH   9  11
ENDBRANCH   4   7
BRANCH   1  20
ATOM     20  C   UNL     1       6.731   4.698  17.217  0.00  0.00    +0.000 C 
BRANCH  20  21
ATOM     21  S   UNL     1       5.167   4.833  16.282  0.00  0.00    +0.000 S 
BRANCH  21  31
ATOM     22  C   UNL     1       1.125   9.373  20.737  0.00  0.00    +0.000 C 
ATOM     23  C   UNL     1       1.508   7.971  20.370  0.00  0.00    +0.000 A 
ATOM     24  C   UNL     1       1.039   6.886  21.119  0.00  0.00    +0.000 A 
ATOM     25  C   UNL     1       1.380   5.585  20.752  0.00  0.00    +0.000 A 
ATOM     26  C   UNL     1       2.206   5.374  19.642  0.00  0.00    +0.000 A 
ATOM     27  C   UNL     1       2.593   4.014  19.238  0.00  0.00    +0.000 A 
ATOM     28  O   UNL     1       2.086   3.056  19.819  0.00  0.00    +0.000 OA
ATOM     29  N   UNL     1       3.521   3.915  18.208  0.00  0.00    +0.000 N 
ATOM     30  C   UNL     1       3.954   2.566  17.853  0.00  0.00    +0.000 C 
ATOM     31  C   UNL     1       3.976   5.053  17.551  0.00  0.00    +0.000 A 
ATOM     32  N   UNL     1       3.590   6.254  17.830  0.00  0.00    +0.000 NA
ATOM     33  C   UNL     1       2.701   6.437  18.896  0.00  0.00    +0.000 A 
ATOM     34  C   UNL     1       2.328   7.735  19.256  0.00  0.00    +0.000 A 
ENDBRANCH  21  31
ENDBRANCH  20  21
ENDBRANCH   1  20
TORSDOF 6
ENDMDL
MODEL 9
REMARK VINA RESULT:      -8.8      4.360      7.562
REMARK  Name = 
REMARK  8 active torsions:
REMARK  status: ('A' for Active; 'I' for Inactive)
REMARK    1  A    between atoms: C_1  and  C_2
REMARK    2  A    between atoms: N_8  and  C_9
REMARK    3  A    between atoms: C_10  and  S_11
REMARK    4  A    between atoms: S_11  and  C_12
REMARK    5  A    between atoms: C_12  and  C_13
REMARK    6  A    between atoms: C_16  and  C_17
REMARK    7  A    between atoms: N_19  and  C_20
REMARK    8  A    between atoms: C_25  and  N_26
REMARK                            x       y       z     vdW  Elec       q    Type
REMARK                         _______ _______ _______ _____ _____    ______ ____
ROOT
ATOM      1  C   UNL     1       2.357   5.294  19.320  0.00  0.00    +0.000 A 
ATOM      2  C   UNL     1       2.566   6.348  18.420  0.00  0.00    +0.000 A 
ATOM      3  C   UNL     1       2.228   7.659  18.757  0.00  0.00    +0.000 A 
ATOM      4  C   UNL     1       1.644   7.950  19.995  0.00  0.00    +0.000 A 
ATOM      5  C   UNL     1       1.358   6.906  20.877  0.00  0.00    +0.000 A 
ATOM      6  C   UNL     1       1.710   5.587  20.537  0.00  0.00    +0.000 A 
ENDROOT
BRANCH   4   7
ATOM      7  C   UNL     1       1.340   9.381  20.275  0.00  0.00    +0.000 C 
ATOM      8  O   UNL     1       1.204   9.701  21.452  0.00  0.00    +0.000 OA
ATOM      9  N   UNL     1       1.139  10.194  19.174  0.00  0.00    +0.000 N 
ATOM     10  H   UNL     1       1.184   9.784  18.252  0.00  0.00    +0.000 HD
BRANCH   9  11
ATOM     11  C   UNL     1       0.668  11.534  19.215  0.00  0.00    +0.000 A 
ATOM     12  C   UNL     1      -0.461  11.906  19.955  0.00  0.00    +0.000 A 
ATOM     13  C   UNL     1      -0.921  13.224  19.955  0.00  0.00    +0.000 A 
ATOM     14  C   UNL     1      -0.235  14.195  19.239  0.00  0.00    +0.000 A 
ATOM     15  C   UNL     1       0.915  13.850  18.529  0.00  0.00    +0.000 A 
ATOM     16  C   UNL     1       1.354  12.521  18.466  0.00  0.00    +0.000 A 
BRANCH  16  17
ATOM     17  N   UNL     1       2.554  12.228  17.778  0.00  0.00    +0.000 N 
ATOM     18  H   UNL     1       2.583  11.262  17.459  0.00  0.00    +0.000 HD
ATOM     19  H   UNL     1       3.380  12.441  18.324  0.00  0.00    +0.000 HD
ENDBRANCH  16  17
ENDBRANCH   9  11
ENDBRANCH   4   7
BRANCH   1  20
ATOM     20  C   UNL     1       2.738   3.858  18.979  0.00  0.00    +0.000 C 
BRANCH  20  21
ATOM     21  S   UNL     1       4.494   3.471  19.300  0.00  0.00    +0.000 S 
BRANCH  21  31
ATOM     22  C   UNL     1       5.695   3.152  11.866  0.00  0.00    +0.000 C 
ATOM     23  C   UNL     1       6.051   3.777  13.181  0.00  0.00    +0.000 A 
ATOM     24  C   UNL     1       7.093   4.707  13.270  0.00  0.00    +0.000 A 
ATOM     25  C   UNL     1       7.397   5.302  14.493  0.00  0.00    +0.000 A 
ATOM     26  C   UNL     1       6.665   4.951  15.633  0.00  0.00    +0.000 A 
ATOM     27  C   UNL     1       6.971   5.551  16.939  0.00  0.00    +0.000 A 
ATOM     28  O   UNL     1       7.802   6.455  16.996  0.00  0.00    +0.000 OA
ATOM     29  N   UNL     1       6.280   5.041  18.033  0.00  0.00    +0.000 N 
ATOM     30  C   UNL     1       6.633   5.592  19.337  0.00  0.00    +0.000 C 
ATOM     31  C   UNL     1       5.293   4.076  17.860  0.00  0.00    +0.000 A 
ATOM     32  N   UNL     1       4.947   3.590  16.714  0.00  0.00    +0.000 NA
ATOM     33  C   UNL     1       5.640   4.014  15.574  0.00  0.00    +0.000 A 
ATOM     34  C   UNL     1       5.325   3.446  14.336  0.00  0.00    +0.000 A 
ENDBRANCH  21  31
ENDBRANCH  20  21
ENDBRANCH   1  20
TORSDOF 6
ENDMDL
