MODEL 1
REMARK VINA RESULT:      -6.5      0.000      0.000
REMARK  Name = 
REMARK  9 active torsions:
REMARK  status: ('A' for Active; 'I' for Inactive)
REMARK    1  A    between atoms: N_1  and  C_2
REMARK    2  A    between atoms: C_2  and  C_3
REMARK    3  A    between atoms: C_2  and  C_17
REMARK    4  A    between atoms: C_3  and  S_4
REMARK    5  A    between atoms: S_4  and  S_5
REMARK    6  A    between atoms: S_5  and  C_6
REMARK    7  A    between atoms: C_6  and  C_7
REMARK    8  A    between atoms: C_7  and  N_8
REMARK    9  A    between atoms: C_7  and  C_9
REMARK                            x       y       z     vdW  Elec       q    Type
REMARK                         _______ _______ _______ _____ _____    ______ ____
ROOT
ATOM      1  S   UNL     1       2.360   6.548  18.736  0.00  0.00    +0.000 S 
ENDROOT
BRANCH   1   2
ATOM      2  C   UNL     1       2.067   8.259  19.303  0.00  0.00    +0.000 C 
BRANCH   2   3
ATOM      3  C   UNL     1       1.281   9.171  18.336  0.00  0.00    +0.000 C 
BRANCH   3   4
ATOM      4  C   UNL     1       0.505  10.312  19.052  0.00  0.00    +0.000 C 
ATOM      5  O   UNL     1       0.853  10.716  20.161  0.00  0.00    +0.000 OA
ATOM      6  N   UNL     1      -0.591  10.879  18.392  0.00  0.00    +0.000 N 
ATOM      7  C   UNL     1      -1.187  12.103  18.918  0.00  0.00    +0.000 C 
ATOM      8  C   UNL     1      -2.627  11.863  19.371  0.00  0.00    +0.000 C 
ATOM      9  C   UNL     1      -3.454  11.221  18.259  0.00  0.00    +0.000 C 
ATOM     10  C   UNL     1      -2.769   9.962  17.734  0.00  0.00    +0.000 C 
ATOM     11  C   UNL     1      -1.329  10.242  17.302  0.00  0.00    +0.000 C 
ENDBRANCH   3   4
BRANCH   3  12
ATOM     12  N   UNL     1       2.164   9.740  17.284  0.00  0.00    +0.000 NA
ATOM     13  H   UNL     1       1.691  10.538  16.859  0.00  0.00    +0.000 HD
ATOM     14  H   UNL     1       2.229   9.044  16.536  0.00  0.00    +0.000 HD
ENDBRANCH   3  12
ENDBRANCH   2   3
ENDBRANCH   1   2
BRANCH   1  15
ATOM     15  S   UNL     1       4.152   6.790  17.742  0.00  0.00    +0.000 S 
BRANCH  15  16
ATOM     16  C   UNL     1       5.220   5.623  18.646  0.00  0.00    +0.000 C 
BRANCH  16  17
ATOM     17  C   UNL     1       5.199   4.176  18.127  0.00  0.00    +0.000 C 
BRANCH  17  18
ATOM     18  C   UNL     1       3.789   3.561  17.940  0.00  0.00    +0.000 C 
ATOM     19  O   UNL     1       3.272   3.561  16.819  0.00  0.00    +0.000 OA
ATOM     20  N   UNL     1       3.184   2.884  19.000  0.00  0.00    +0.000 N 
ATOM     21  C   UNL     1       1.994   2.073  18.733  0.00  0.00    +0.000 C 
ATOM     22  C   UNL     1       0.772   2.640  19.448  0.00  0.00    +0.000 C 
ATOM     23  C   UNL     1       1.045   2.831  20.939  0.00  0.00    +0.000 C 
ATOM     24  C   UNL     1       2.320   3.647  21.159  0.00  0.00    +0.000 C 
ATOM     25  C   UNL     1       3.510   3.036  20.418  0.00  0.00    +0.000 C 
ENDBRANCH  17  18
BRANCH  17  26
ATOM     26  N   UNL     1       5.941   4.058  16.834  0.00  0.00    +0.000 NA
ATOM     27  H   UNL     1       6.932   4.220  17.052  0.00  0.00    +0.000 HD
ATOM     28  H   UNL     1       5.696   4.873  16.268  0.00  0.00    +0.000 HD
ENDBRANCH  17  26
ENDBRANCH  16  17
ENDBRANCH  15  16
ENDBRANCH   1  15
TORSDOF 9
ENDMDL
MODEL 2
REMARK VINA RESULT:      -6.4      1.597      8.407
REMARK  Name = 
REMARK  9 active torsions:
REMARK  status: ('A' for Active; 'I' for Inactive)
REMARK    1  A    between atoms: N_1  and  C_2
REMARK    2  A    between atoms: C_2  and  C_3
REMARK    3  A    between atoms: C_2  and  C_17
REMARK    4  A    between atoms: C_3  and  S_4
REMARK    5  A    between atoms: S_4  and  S_5
REMARK    6  A    between atoms: S_5  and  C_6
REMARK    7  A    between atoms: C_6  and  C_7
REMARK    8  A    between atoms: C_7  and  N_8
REMARK    9  A    between atoms: C_7  and  C_9
REMARK                            x       y       z     vdW  Elec       q    Type
REMARK                         _______ _______ _______ _____ _____    ______ ____
ROOT
ATOM      1  S   UNL     1       1.599   5.359  18.490  0.00  0.00    +0.000 S 
ENDROOT
BRANCH   1   2
ATOM      2  C   UNL     1       2.779   4.067  19.012  0.00  0.00    +0.000 C 
BRANCH   2   3
ATOM      3  C   UNL     1       3.960   3.798  18.055  0.00  0.00    +0.000 C 
BRANCH   3   4
ATOM      4  C   UNL     1       5.346   4.147  18.667  0.00  0.00    +0.000 C 
ATOM      5  O   UNL     1       5.657   3.761  19.793  0.00  0.00    +0.000 OA
ATOM      6  N   UNL     1       6.238   4.900  17.894  0.00  0.00    +0.000 N 
ATOM      7  C   UNL     1       7.623   5.037  18.331  0.00  0.00    +0.000 C 
ATOM      8  C   UNL     1       7.956   6.494  18.654  0.00  0.00    +0.000 C 
ATOM      9  C   UNL     1       7.601   7.412  17.487  0.00  0.00    +0.000 C 
ATOM     10  C   UNL     1       6.150   7.205  17.060  0.00  0.00    +0.000 C 
ATOM     11  C   UNL     1       5.855   5.736  16.756  0.00  0.00    +0.000 C 
ENDBRANCH   3   4
BRANCH   3  12
ATOM     12  N   UNL     1       3.959   2.393  17.569  0.00  0.00    +0.000 NA
ATOM     13  H   UNL     1       4.770   1.913  17.960  0.00  0.00    +0.000 HD
ATOM     14  H   UNL     1       4.133   2.423  16.561  0.00  0.00    +0.000 HD
ENDBRANCH   3  12
ENDBRANCH   2   3
ENDBRANCH   1   2
BRANCH   1  15
ATOM     15  S   UNL     1       2.813   7.026  18.581  0.00  0.00    +0.000 S 
BRANCH  15  16
ATOM     16  C   UNL     1       1.664   8.266  19.263  0.00  0.00    +0.000 C 
BRANCH  16  17
ATOM     17  C   UNL     1       1.070   9.245  18.238  0.00  0.00    +0.000 C 
BRANCH  17  18
ATOM     18  C   UNL     1       0.191  10.374  18.834  0.00  0.00    +0.000 C 
ATOM     19  O   UNL     1       0.570  10.963  19.850  0.00  0.00    +0.000 OA
ATOM     20  N   UNL     1      -0.935  10.813  18.137  0.00  0.00    +0.000 N 
ATOM     21  C   UNL     1      -1.588  12.053  18.561  0.00  0.00    +0.000 C 
ATOM     22  C   UNL     1      -2.999  11.784  19.075  0.00  0.00    +0.000 C 
ATOM     23  C   UNL     1      -3.816  10.994  18.054  0.00  0.00    +0.000 C 
ATOM     24  C   UNL     1      -3.069   9.733  17.616  0.00  0.00    +0.000 C 
ATOM     25  C   UNL     1      -1.663  10.063  17.114  0.00  0.00    +0.000 C 
ENDBRANCH  17  18
BRANCH  17  26
ATOM     26  N   UNL     1       2.145   9.871  17.407  0.00  0.00    +0.000 NA
ATOM     27  H   UNL     1       2.228   9.297  16.560  0.00  0.00    +0.000 HD
ATOM     28  H   UNL     1       3.033   9.703  17.885  0.00  0.00    +0.000 HD
ENDBRANCH  17  26
ENDBRANCH  16  17
ENDBRANCH  15  16
ENDBRANCH   1  15
TORSDOF 9
ENDMDL
MODEL 3
REMARK VINA RESULT:      -6.4      2.036      3.785
REMARK  Name = 
REMARK  9 active torsions:
REMARK  status: ('A' for Active; 'I' for Inactive)
REMARK    1  A    between atoms: N_1  and  C_2
REMARK    2  A    between atoms: C_2  and  C_3
REMARK    3  A    between atoms: C_2  and  C_17
REMARK    4  A    between atoms: C_3  and  S_4
REMARK    5  A    between atoms: S_4  and  S_5
REMARK    6  A    between atoms: S_5  and  C_6
REMARK    7  A    between atoms: C_6  and  C_7
REMARK    8  A    between atoms: C_7  and  N_8
REMARK    9  A    between atoms: C_7  and  C_9
REMARK                            x       y       z     vdW  Elec       q    Type
REMARK                         _______ _______ _______ _____ _____    ______ ____
ROOT
ATOM      1  S   UNL     1       2.541   7.759  18.205  0.00  0.00    +0.000 S 
ENDROOT
BRANCH   1   2
ATOM      2  C   UNL     1       1.530   8.630  19.452  0.00  0.00    +0.000 C 
BRANCH   2   3
ATOM      3  C   UNL     1       0.935   9.987  19.017  0.00  0.00    +0.000 C 
BRANCH   3   4
ATOM      4  C   UNL     1       0.633  10.942  20.207  0.00  0.00    +0.000 C 
ATOM      5  O   UNL     1       1.164  10.775  21.304  0.00  0.00    +0.000 OA
ATOM      6  N   UNL     1      -0.248  12.008  19.989  0.00  0.00    +0.000 N 
ATOM      7  C   UNL     1      -0.365  13.055  20.997  0.00  0.00    +0.000 C 
ATOM      8  C   UNL     1      -1.771  13.089  21.596  0.00  0.00    +0.000 C 
ATOM      9  C   UNL     1      -2.832  13.187  20.502  0.00  0.00    +0.000 C 
ATOM     10  C   UNL     1      -2.643  12.082  19.466  0.00  0.00    +0.000 C 
ATOM     11  C   UNL     1      -1.222  12.076  18.900  0.00  0.00    +0.000 C 
ENDBRANCH   3   4
BRANCH   3  12
ATOM     12  N   UNL     1       1.806  10.672  18.025  0.00  0.00    +0.000 NA
ATOM     13  H   UNL     1       2.721  10.827  18.448  0.00  0.00    +0.000 HD
ATOM     14  H   UNL     1       1.420  11.609  17.882  0.00  0.00    +0.000 HD
ENDBRANCH   3  12
ENDBRANCH   2   3
ENDBRANCH   1   2
BRANCH   1  15
ATOM     15  S   UNL     1       2.874   5.972  19.184  0.00  0.00    +0.000 S 
BRANCH  15  16
ATOM     16  C   UNL     1       2.661   4.778  17.824  0.00  0.00    +0.000 C 
BRANCH  16  17
ATOM     17  C   UNL     1       3.722   3.668  17.753  0.00  0.00    +0.000 C 
BRANCH  17  18
ATOM     18  C   UNL     1       5.074   4.001  18.431  0.00  0.00    +0.000 C 
ATOM     19  O   UNL     1       5.341   3.501  19.528  0.00  0.00    +0.000 OA
ATOM     20  N   UNL     1       6.035   4.735  17.734  0.00  0.00    +0.000 N 
ATOM     21  C   UNL     1       7.397   4.801  18.266  0.00  0.00    +0.000 C 
ATOM     22  C   UNL     1       7.761   6.225  18.672  0.00  0.00    +0.000 C 
ATOM     23  C   UNL     1       7.518   7.204  17.525  0.00  0.00    +0.000 C 
ATOM     24  C   UNL     1       6.095   7.063  16.981  0.00  0.00    +0.000 C 
ATOM     25  C   UNL     1       5.785   5.617  16.594  0.00  0.00    +0.000 C 
ENDBRANCH  17  18
BRANCH  17  26
ATOM     26  N   UNL     1       3.203   2.390  18.334  0.00  0.00    +0.000 NA
ATOM     27  H   UNL     1       2.998   2.583  19.322  0.00  0.00    +0.000 HD
ATOM     28  H   UNL     1       3.991   1.741  18.387  0.00  0.00    +0.000 HD
ENDBRANCH  17  26
ENDBRANCH  16  17
ENDBRANCH  15  16
ENDBRANCH   1  15
TORSDOF 9
ENDMDL
MODEL 4
REMARK VINA RESULT:      -6.3      1.429      8.642
REMARK  Name = 
REMARK  9 active torsions:
REMARK  status: ('A' for Active; 'I' for Inactive)
REMARK    1  A    between atoms: N_1  and  C_2
REMARK    2  A    between atoms: C_2  and  C_3
REMARK    3  A    between atoms: C_2  and  C_17
REMARK    4  A    between atoms: C_3  and  S_4
REMARK    5  A    between atoms: S_4  and  S_5
REMARK    6  A    between atoms: S_5  and  C_6
REMARK    7  A    between atoms: C_6  and  C_7
REMARK    8  A    between atoms: C_7  and  N_8
REMARK    9  A    between atoms: C_7  and  C_9
REMARK                            x       y       z     vdW  Elec       q    Type
REMARK                         _______ _______ _______ _____ _____    ______ ____
ROOT
ATOM      1  S   UNL     1       2.142   5.446  19.800  0.00  0.00    +0.000 S 
ENDROOT
BRANCH   1   2
ATOM      2  C   UNL     1       3.760   4.630  20.025  0.00  0.00    +0.000 C 
BRANCH   2   3
ATOM      3  C   UNL     1       3.928   3.255  19.344  0.00  0.00    +0.000 C 
BRANCH   3   4
ATOM      4  C   UNL     1       3.960   3.331  17.791  0.00  0.00    +0.000 C 
ATOM      5  O   UNL     1       3.246   2.601  17.106  0.00  0.00    +0.000 OA
ATOM      6  N   UNL     1       4.814   4.267  17.195  0.00  0.00    +0.000 N 
ATOM      7  C   UNL     1       4.694   4.536  15.767  0.00  0.00    +0.000 C 
ATOM      8  C   UNL     1       5.963   4.126  15.021  0.00  0.00    +0.000 C 
ATOM      9  C   UNL     1       7.201   4.762  15.649  0.00  0.00    +0.000 C 
ATOM     10  C   UNL     1       7.258   4.467  17.146  0.00  0.00    +0.000 C 
ATOM     11  C   UNL     1       5.967   4.882  17.853  0.00  0.00    +0.000 C 
ENDBRANCH   3   4
BRANCH   3  12
ATOM     12  N   UNL     1       5.135   2.543  19.842  0.00  0.00    +0.000 NA
ATOM     13  H   UNL     1       5.838   2.537  19.102  0.00  0.00    +0.000 HD
ATOM     14  H   UNL     1       4.876   1.561  19.966  0.00  0.00    +0.000 HD
ENDBRANCH   3  12
ENDBRANCH   2   3
ENDBRANCH   1   2
BRANCH   1  15
ATOM     15  S   UNL     1       2.689   7.021  18.583  0.00  0.00    +0.000 S 
BRANCH  15  16
ATOM     16  C   UNL     1       1.716   8.382  19.303  0.00  0.00    +0.000 C 
BRANCH  16  17
ATOM     17  C   UNL     1       1.038   9.315  18.287  0.00  0.00    +0.000 C 
BRANCH  17  18
ATOM     18  C   UNL     1       0.154  10.430  18.900  0.00  0.00    +0.000 C 
ATOM     19  O   UNL     1       0.515  10.985  19.941  0.00  0.00    +0.000 OA
ATOM     20  N   UNL     1      -0.957  10.896  18.195  0.00  0.00    +0.000 N 
ATOM     21  C   UNL     1      -1.612  12.127  18.644  0.00  0.00    +0.000 C 
ATOM     22  C   UNL     1      -3.034  11.850  19.121  0.00  0.00    +0.000 C 
ATOM     23  C   UNL     1      -3.834  11.096  18.060  0.00  0.00    +0.000 C 
ATOM     24  C   UNL     1      -3.085   9.845  17.599  0.00  0.00    +0.000 C 
ATOM     25  C   UNL     1      -1.667  10.182  17.135  0.00  0.00    +0.000 C 
ENDBRANCH  17  18
BRANCH  17  26
ATOM     26  N   UNL     1       2.049   9.954  17.387  0.00  0.00    +0.000 NA
ATOM     27  H   UNL     1       1.772   9.718  16.427  0.00  0.00    +0.000 HD
ATOM     28  H   UNL     1       2.925   9.441  17.505  0.00  0.00    +0.000 HD
ENDBRANCH  17  26
ENDBRANCH  16  17
ENDBRANCH  15  16
ENDBRANCH   1  15
TORSDOF 9
ENDMDL
MODEL 5
REMARK VINA RESULT:      -6.3      1.586      8.348
REMARK  Name = 
REMARK  9 active torsions:
REMARK  status: ('A' for Active; 'I' for Inactive)
REMARK    1  A    between atoms: N_1  and  C_2
REMARK    2  A    between atoms: C_2  and  C_3
REMARK    3  A    between atoms: C_2  and  C_17
REMARK    4  A    between atoms: C_3  and  S_4
REMARK    5  A    between atoms: S_4  and  S_5
REMARK    6  A    between atoms: S_5  and  C_6
REMARK    7  A    between atoms: C_6  and  C_7
REMARK    8  A    between atoms: C_7  and  N_8
REMARK    9  A    between atoms: C_7  and  C_9
REMARK                            x       y       z     vdW  Elec       q    Type
REMARK                         _______ _______ _______ _____ _____    ______ ____
ROOT
ATOM      1  S   UNL     1       4.408   6.672  17.421  0.00  0.00    +0.000 S 
ENDROOT
BRANCH   1   2
ATOM      2  C   UNL     1       5.264   5.874  18.822  0.00  0.00    +0.000 C 
BRANCH   2   3
ATOM      3  C   UNL     1       5.522   4.358  18.687  0.00  0.00    +0.000 C 
BRANCH   3   4
ATOM      4  C   UNL     1       4.317   3.575  18.094  0.00  0.00    +0.000 C 
ATOM      5  O   UNL     1       4.182   3.443  16.879  0.00  0.00    +0.000 OA
ATOM      6  N   UNL     1       3.397   3.008  18.985  0.00  0.00    +0.000 N 
ATOM      7  C   UNL     1       2.401   2.070  18.481  0.00  0.00    +0.000 C 
ATOM      8  C   UNL     1       0.986   2.622  18.657  0.00  0.00    +0.000 C 
ATOM      9  C   UNL     1       0.736   3.045  20.102  0.00  0.00    +0.000 C 
ATOM     10  C   UNL     1       1.823   4.006  20.579  0.00  0.00    +0.000 C 
ATOM     11  C   UNL     1       3.221   3.421  20.377  0.00  0.00    +0.000 C 
ENDBRANCH   3   4
BRANCH   3  12
ATOM     12  N   UNL     1       6.748   4.082  17.891  0.00  0.00    +0.000 NA
ATOM     13  H   UNL     1       7.280   3.348  18.358  0.00  0.00    +0.000 HD
ATOM     14  H   UNL     1       7.340   4.915  17.952  0.00  0.00    +0.000 HD
ENDBRANCH   3  12
ENDBRANCH   2   3
ENDBRANCH   1   2
BRANCH   1  15
ATOM     15  S   UNL     1       2.514   6.880  18.215  0.00  0.00    +0.000 S 
BRANCH  15  16
ATOM     16  C   UNL     1       2.148   8.619  17.810  0.00  0.00    +0.000 C 
BRANCH  16  17
ATOM     17  C   UNL     1       1.689   9.486  18.992  0.00  0.00    +0.000 C 
BRANCH  17  18
ATOM     18  C   UNL     1       0.518  10.454  18.688  0.00  0.00    +0.000 C 
ATOM     19  O   UNL     1      -0.429  10.061  18.001  0.00  0.00    +0.000 OA
ATOM     20  N   UNL     1       0.472  11.702  19.311  0.00  0.00    +0.000 N 
ATOM     21  C   UNL     1      -0.764  12.483  19.239  0.00  0.00    +0.000 C 
ATOM     22  C   UNL     1      -0.553  13.775  18.455  0.00  0.00    +0.000 C 
ATOM     23  C   UNL     1       0.627  14.570  19.012  0.00  0.00    +0.000 C 
ATOM     24  C   UNL     1       1.878  13.695  19.105  0.00  0.00    +0.000 C 
ATOM     25  C   UNL     1       1.608  12.415  19.897  0.00  0.00    +0.000 C 
ENDBRANCH  17  18
BRANCH  17  26
ATOM     26  N   UNL     1       1.310   8.639  20.166  0.00  0.00    +0.000 NA
ATOM     27  H   UNL     1       2.130   8.614  20.783  0.00  0.00    +0.000 HD
ATOM     28  H   UNL     1       1.245   7.675  19.833  0.00  0.00    +0.000 HD
ENDBRANCH  17  26
ENDBRANCH  16  17
ENDBRANCH  15  16
ENDBRANCH   1  15
TORSDOF 9
ENDMDL
MODEL 6
REMARK VINA RESULT:      -6.1      2.112      4.041
REMARK  Name = 
REMARK  9 active torsions:
REMARK  status: ('A' for Active; 'I' for Inactive)
REMARK    1  A    between atoms: N_1  and  C_2
REMARK    2  A    between atoms: C_2  and  C_3
REMARK    3  A    between atoms: C_2  and  C_17
REMARK    4  A    between atoms: C_3  and  S_4
REMARK    5  A    between atoms: S_4  and  S_5
REMARK    6  A    between atoms: S_5  and  C_6
REMARK    7  A    between atoms: C_6  and  C_7
REMARK    8  A    between atoms: C_7  and  N_8
REMARK    9  A    between atoms: C_7  and  C_9
REMARK                            x       y       z     vdW  Elec       q    Type
REMARK                         _______ _______ _______ _____ _____    ______ ____
ROOT
ATOM      1  S   UNL     1       2.310   5.678  19.890  0.00  0.00    +0.000 S 
ENDROOT
BRANCH   1   2
ATOM      2  C   UNL     1       2.455   7.352  19.174  0.00  0.00    +0.000 C 
BRANCH   2   3
ATOM      3  C   UNL     1       1.754   8.487  19.951  0.00  0.00    +0.000 C 
BRANCH   3   4
ATOM      4  C   UNL     1       0.991   9.486  19.036  0.00  0.00    +0.000 C 
ATOM      5  O   UNL     1       0.815   9.246  17.843  0.00  0.00    +0.000 OA
ATOM      6  N   UNL     1       0.494  10.660  19.614  0.00  0.00    +0.000 N 
ATOM      7  C   UNL     1      -0.429  11.496  18.853  0.00  0.00    +0.000 C 
ATOM      8  C   UNL     1       0.180  12.868  18.566  0.00  0.00    +0.000 C 
ATOM      9  C   UNL     1       0.670  13.532  19.852  0.00  0.00    +0.000 C 
ATOM     10  C   UNL     1       1.610  12.602  20.615  0.00  0.00    +0.000 C 
ATOM     11  C   UNL     1       0.968  11.238  20.871  0.00  0.00    +0.000 C 
ENDBRANCH   3   4
BRANCH   3  12
ATOM     12  N   UNL     1       0.838   7.950  20.992  0.00  0.00    +0.000 NA
ATOM     13  H   UNL     1       0.955   6.938  21.038  0.00  0.00    +0.000 HD
ATOM     14  H   UNL     1      -0.118   8.090  20.653  0.00  0.00    +0.000 HD
ENDBRANCH   3  12
ENDBRANCH   2   3
ENDBRANCH   1   2
BRANCH   1  15
ATOM     15  S   UNL     1       1.727   4.612  18.222  0.00  0.00    +0.000 S 
BRANCH  15  16
ATOM     16  C   UNL     1       2.266   2.930  18.669  0.00  0.00    +0.000 C 
BRANCH  16  17
ATOM     17  C   UNL     1       3.620   2.496  18.085  0.00  0.00    +0.000 C 
BRANCH  17  18
ATOM     18  C   UNL     1       4.841   3.322  18.561  0.00  0.00    +0.000 C 
ATOM     19  O   UNL     1       5.281   3.150  19.701  0.00  0.00    +0.000 OA
ATOM     20  N   UNL     1       5.520   4.137  17.654  0.00  0.00    +0.000 N 
ATOM     21  C   UNL     1       6.823   4.685  18.035  0.00  0.00    +0.000 C 
ATOM     22  C   UNL     1       6.772   6.206  18.136  0.00  0.00    +0.000 C 
ATOM     23  C   UNL     1       6.213   6.824  16.855  0.00  0.00    +0.000 C 
ATOM     24  C   UNL     1       4.874   6.186  16.482  0.00  0.00    +0.000 C 
ATOM     25  C   UNL     1       4.984   4.663  16.399  0.00  0.00    +0.000 C 
ENDBRANCH  17  18
BRANCH  17  26
ATOM     26  N   UNL     1       3.888   1.051  18.365  0.00  0.00    +0.000 NA
ATOM     27  H   UNL     1       4.184   0.633  17.475  0.00  0.00    +0.000 HD
ATOM     28  H   UNL     1       2.985   0.604  18.538  0.00  0.00    +0.000 HD
ENDBRANCH  17  26
ENDBRANCH  16  17
ENDBRANCH  15  16
ENDBRANCH   1  15
TORSDOF 9
ENDMDL
MODEL 7
REMARK VINA RESULT:      -6.1      1.816      8.571
REMARK  Name = 
REMARK  9 active torsions:
REMARK  status: ('A' for Active; 'I' for Inactive)
REMARK    1  A    between atoms: N_1  and  C_2
REMARK    2  A    between atoms: C_2  and  C_3
REMARK    3  A    between atoms: C_2  and  C_17
REMARK    4  A    between atoms: C_3  and  S_4
REMARK    5  A    between atoms: S_4  and  S_5
REMARK    6  A    between atoms: S_5  and  C_6
REMARK    7  A    between atoms: C_6  and  C_7
REMARK    8  A    between atoms: C_7  and  N_8
REMARK    9  A    between atoms: C_7  and  C_9
REMARK                            x       y       z     vdW  Elec       q    Type
REMARK                         _______ _______ _______ _____ _____    ______ ____
ROOT
ATOM      1  S   UNL     1       3.009   6.111  19.321  0.00  0.00    +0.000 S 
ENDROOT
BRANCH   1   2
ATOM      2  C   UNL     1       3.331   4.474  20.064  0.00  0.00    +0.000 C 
BRANCH   2   3
ATOM      3  C   UNL     1       4.339   3.575  19.316  0.00  0.00    +0.000 C 
BRANCH   3   4
ATOM      4  C   UNL     1       5.631   4.322  18.880  0.00  0.00    +0.000 C 
ATOM      5  O   UNL     1       6.269   5.005  19.679  0.00  0.00    +0.000 OA
ATOM      6  N   UNL     1       6.058   4.181  17.554  0.00  0.00    +0.000 N 
ATOM      7  C   UNL     1       7.382   4.661  17.175  0.00  0.00    +0.000 C 
ATOM      8  C   UNL     1       7.285   5.799  16.159  0.00  0.00    +0.000 C 
ATOM      9  C   UNL     1       6.426   5.398  14.962  0.00  0.00    +0.000 C 
ATOM     10  C   UNL     1       5.065   4.883  15.423  0.00  0.00    +0.000 C 
ATOM     11  C   UNL     1       5.206   3.753  16.444  0.00  0.00    +0.000 C 
ENDBRANCH   3   4
BRANCH   3  12
ATOM     12  N   UNL     1       4.693   2.372  20.114  0.00  0.00    +0.000 NA
ATOM     13  H   UNL     1       4.248   2.446  21.030  0.00  0.00    +0.000 HD
ATOM     14  H   UNL     1       5.698   2.423  20.306  0.00  0.00    +0.000 HD
ENDBRANCH   3  12
ENDBRANCH   2   3
ENDBRANCH   1   2
BRANCH   1  15
ATOM     15  S   UNL     1       1.470   6.768  20.529  0.00  0.00    +0.000 S 
BRANCH  15  16
ATOM     16  C   UNL     1       1.623   8.575  20.350  0.00  0.00    +0.000 C 
BRANCH  16  17
ATOM     17  C   UNL     1       0.952   9.171  19.103  0.00  0.00    +0.000 C 
BRANCH  17  18
ATOM     18  C   UNL     1       0.051  10.405  19.362  0.00  0.00    +0.000 C 
ATOM     19  O   UNL     1       0.279  11.126  20.337  0.00  0.00    +0.000 OA
ATOM     20  N   UNL     1      -0.906  10.772  18.416  0.00  0.00    +0.000 N 
ATOM     21  C   UNL     1      -1.549  12.083  18.533  0.00  0.00    +0.000 C 
ATOM     22  C   UNL     1      -3.042  11.940  18.813  0.00  0.00    +0.000 C 
ATOM     23  C   UNL     1      -3.711  11.034  17.781  0.00  0.00    +0.000 C 
ATOM     24  C   UNL     1      -2.976   9.698  17.670  0.00  0.00    +0.000 C 
ATOM     25  C   UNL     1      -1.486   9.901  17.393  0.00  0.00    +0.000 C 
ENDBRANCH  17  18
BRANCH  17  26
ATOM     26  N   UNL     1       1.969   9.537  18.068  0.00  0.00    +0.000 NA
ATOM     27  H   UNL     1       1.803   8.917  17.267  0.00  0.00    +0.000 HD
ATOM     28  H   UNL     1       2.879   9.223  18.415  0.00  0.00    +0.000 HD
ENDBRANCH  17  26
ENDBRANCH  16  17
ENDBRANCH  15  16
ENDBRANCH   1  15
TORSDOF 9
ENDMDL
MODEL 8
REMARK VINA RESULT:      -6.1      1.104      8.542
REMARK  Name = 
REMARK  9 active torsions:
REMARK  status: ('A' for Active; 'I' for Inactive)
REMARK    1  A    between atoms: N_1  and  C_2
REMARK    2  A    between atoms: C_2  and  C_3
REMARK    3  A    between atoms: C_2  and  C_17
REMARK    4  A    between atoms: C_3  and  S_4
REMARK    5  A    between atoms: S_4  and  S_5
REMARK    6  A    between atoms: S_5  and  C_6
REMARK    7  A    between atoms: C_6  and  C_7
REMARK    8  A    between atoms: C_7  and  N_8
REMARK    9  A    between atoms: C_7  and  C_9
REMARK                            x       y       z     vdW  Elec       q    Type
REMARK                         _______ _______ _______ _____ _____    ______ ____
ROOT
ATOM      1  S   UNL     1       2.729   6.426  18.425  0.00  0.00    +0.000 S 
ENDROOT
BRANCH   1   2
ATOM      2  C   UNL     1       4.290   5.880  17.651  0.00  0.00    +0.000 C 
BRANCH   2   3
ATOM      3  C   UNL     1       4.436   4.361  17.414  0.00  0.00    +0.000 C 
BRANCH   3   4
ATOM      4  C   UNL     1       3.104   3.576  17.584  0.00  0.00    +0.000 C 
ATOM      5  O   UNL     1       2.286   3.510  16.668  0.00  0.00    +0.000 OA
ATOM      6  N   UNL     1       2.870   2.932  18.805  0.00  0.00    +0.000 N 
ATOM      7  C   UNL     1       1.759   1.994  18.916  0.00  0.00    +0.000 C 
ATOM      8  C   UNL     1       0.716   2.492  19.916  0.00  0.00    +0.000 C 
ATOM      9  C   UNL     1       1.358   2.825  21.261  0.00  0.00    +0.000 C 
ATOM     10  C   UNL     1       2.527   3.789  21.077  0.00  0.00    +0.000 C 
ATOM     11  C   UNL     1       3.541   3.259  20.063  0.00  0.00    +0.000 C 
ENDBRANCH   3   4
BRANCH   3  12
ATOM     12  N   UNL     1       5.029   4.072  16.081  0.00  0.00    +0.000 NA
ATOM     13  H   UNL     1       5.430   3.134  16.100  0.00  0.00    +0.000 HD
ATOM     14  H   UNL     1       5.830   4.698  15.966  0.00  0.00    +0.000 HD
ENDBRANCH   3  12
ENDBRANCH   2   3
ENDBRANCH   1   2
BRANCH   1  15
ATOM     15  S   UNL     1       2.603   8.348  17.683  0.00  0.00    +0.000 S 
BRANCH  15  16
ATOM     16  C   UNL     1       1.496   9.128  18.902  0.00  0.00    +0.000 C 
BRANCH  16  17
ATOM     17  C   UNL     1       0.978  10.524  18.521  0.00  0.00    +0.000 C 
BRANCH  17  18
ATOM     18  C   UNL     1       0.281  11.305  19.663  0.00  0.00    +0.000 C 
ATOM     19  O   UNL     1       0.786  11.311  20.789  0.00  0.00    +0.000 OA
ATOM     20  N   UNL     1      -0.821  12.111  19.376  0.00  0.00    +0.000 N 
ATOM     21  C   UNL     1      -1.292  13.053  20.394  0.00  0.00    +0.000 C 
ATOM     22  C   UNL     1      -2.693  12.689  20.874  0.00  0.00    +0.000 C 
ATOM     23  C   UNL     1      -3.658  12.545  19.699  0.00  0.00    +0.000 C 
ATOM     24  C   UNL     1      -3.099  11.584  18.649  0.00  0.00    +0.000 C 
ATOM     25  C   UNL     1      -1.693  11.996  18.207  0.00  0.00    +0.000 C 
ENDBRANCH  17  18
BRANCH  17  26
ATOM     26  N   UNL     1       2.079  11.374  17.970  0.00  0.00    +0.000 NA
ATOM     27  H   UNL     1       1.640  12.246  17.651  0.00  0.00    +0.000 HD
ATOM     28  H   UNL     1       2.388  10.940  17.097  0.00  0.00    +0.000 HD
ENDBRANCH  17  26
ENDBRANCH  16  17
ENDBRANCH  15  16
ENDBRANCH   1  15
TORSDOF 9
ENDMDL
MODEL 9
REMARK VINA RESULT:      -6.0      7.128     10.558
REMARK  Name = 
REMARK  9 active torsions:
REMARK  status: ('A' for Active; 'I' for Inactive)
REMARK    1  A    between atoms: N_1  and  C_2
REMARK    2  A    between atoms: C_2  and  C_3
REMARK    3  A    between atoms: C_2  and  C_17
REMARK    4  A    between atoms: C_3  and  S_4
REMARK    5  A    between atoms: S_4  and  S_5
REMARK    6  A    between atoms: S_5  and  C_6
REMARK    7  A    between atoms: C_6  and  C_7
REMARK    8  A    between atoms: C_7  and  N_8
REMARK    9  A    between atoms: C_7  and  C_9
REMARK                            x       y       z     vdW  Elec       q    Type
REMARK                         _______ _______ _______ _____ _____    ______ ____
ROOT
ATOM      1  S   UNL     1       7.573   8.605  17.690  0.00  0.00    +0.000 S 
ENDROOT
BRANCH   1   2
ATOM      2  C   UNL     1       7.994   6.854  17.991  0.00  0.00    +0.000 C 
BRANCH   2   3
ATOM      3  C   UNL     1       7.024   6.068  18.899  0.00  0.00    +0.000 C 
BRANCH   3   4
ATOM      4  C   UNL     1       6.285   4.913  18.165  0.00  0.00    +0.000 C 
ATOM      5  O   UNL     1       6.837   4.275  17.270  0.00  0.00    +0.000 OA
ATOM      6  N   UNL     1       4.978   4.610  18.563  0.00  0.00    +0.000 N 
ATOM      7  C   UNL     1       4.347   3.390  18.072  0.00  0.00    +0.000 C 
ATOM      8  C   UNL     1       3.132   3.710  17.201  0.00  0.00    +0.000 C 
ATOM      9  C   UNL     1       2.162   4.637  17.929  0.00  0.00    +0.000 C 
ATOM     10  C   UNL     1       2.884   5.882  18.439  0.00  0.00    +0.000 C 
ATOM     11  C   UNL     1       4.097   5.518  19.296  0.00  0.00    +0.000 C 
ENDBRANCH   3   4
BRANCH   3  12
ATOM     12  N   UNL     1       7.714   5.541  20.107  0.00  0.00    +0.000 NA
ATOM     13  H   UNL     1       8.274   6.290  20.514  0.00  0.00    +0.000 HD
ATOM     14  H   UNL     1       8.395   4.848  19.787  0.00  0.00    +0.000 HD
ENDBRANCH   3  12
ENDBRANCH   2   3
ENDBRANCH   1   2
BRANCH   1  15
ATOM     15  S   UNL     1       8.950   9.532  18.917  0.00  0.00    +0.000 S 
BRANCH  15  16
ATOM     16  C   UNL     1       9.130  11.147  18.093  0.00  0.00    +0.000 C 
BRANCH  16  17
ATOM     17  C   UNL     1      10.578  11.621  17.887  0.00  0.00    +0.000 C 
BRANCH  17  18
ATOM     18  C   UNL     1      10.736  13.111  17.493  0.00  0.00    +0.000 C 
ATOM     19  O   UNL     1      11.261  13.400  16.414  0.00  0.00    +0.000 OA
ATOM     20  N   UNL     1      10.153  14.101  18.285  0.00  0.00    +0.000 N 
ATOM     21  C   UNL     1      10.066  15.465  17.761  0.00  0.00    +0.000 C 
ATOM     22  C   UNL     1      10.913  16.427  18.588  0.00  0.00    +0.000 C 
ATOM     23  C   UNL     1      10.564  16.331  20.072  0.00  0.00    +0.000 C 
ATOM     24  C   UNL     1      10.629  14.882  20.556  0.00  0.00    +0.000 C 
ATOM     25  C   UNL     1       9.765  13.964  19.689  0.00  0.00    +0.000 C 
ENDBRANCH  17  18
BRANCH  17  26
ATOM     26  N   UNL     1      11.407  11.363  19.105  0.00  0.00    +0.000 NA
ATOM     27  H   UNL     1      12.385  11.505  18.826  0.00  0.00    +0.000 HD
ATOM     28  H   UNL     1      11.366  10.358  19.291  0.00  0.00    +0.000 HD
ENDBRANCH  17  26
ENDBRANCH  16  17
ENDBRANCH  15  16
ENDBRANCH   1  15
TORSDOF 9
ENDMDL
