MODEL 1
REMARK VINA RESULT:      -7.9      0.000      0.000
REMARK  Name = 
REMARK  8 active torsions:
REMARK  status: ('A' for Active; 'I' for Inactive)
REMARK    1  A    between atoms: C_1  and  C_2
REMARK    2  A    between atoms: C_2  and  C_3
REMARK    3  A    between atoms: C_2  and  C_4
REMARK    4  A    between atoms: C_4  and  C_5
REMARK    5  A    between atoms: N_9  and  C_10
REMARK    6  A    between atoms: C_10  and  C_11
REMARK    7  A    between atoms: N_16  and  S_17
REMARK    8  A    between atoms: S_17  and  C_20
REMARK                            x       y       z     vdW  Elec       q    Type
REMARK                         _______ _______ _______ _____ _____    ______ ____
ROOT
ATOM      1  C   UNL     1       2.630   7.478  18.799  0.00  0.00    +0.000 C 
ATOM      2  O   UNL     1       3.325   7.657  17.796  0.00  0.00    +0.000 OA
ATOM      3  N   UNL     1       1.678   8.409  19.200  0.00  0.00    +0.000 N 
ATOM      4  C   UNL     1       1.399   9.544  18.313  0.00  0.00    +0.000 C 
ATOM      5  C   UNL     1      -0.059  10.016  18.452  0.00  0.00    +0.000 C 
ATOM      6  N   UNL     1      -0.436  10.283  19.877  0.00  0.00    +0.000 NA
ATOM      7  C   UNL     1      -0.184   9.068  20.711  0.00  0.00    +0.000 C 
ATOM      8  C   UNL     1       1.270   8.600  20.601  0.00  0.00    +0.000 C 
ENDROOT
BRANCH   6   9
ATOM      9  S   UNL     1       0.118  11.744  20.563  0.00  0.00    +0.000 S 
ATOM     10  O   UNL     1       1.119  11.424  21.557  0.00  0.00    +0.000 OA
ATOM     11  O   UNL     1       0.396  12.678  19.496  0.00  0.00    +0.000 OA
BRANCH   9  12
ATOM     12  C   UNL     1      -1.316  12.317  21.440  0.00  0.00    +0.000 A 
ATOM     13  C   UNL     1      -1.560  11.813  22.722  0.00  0.00    +0.000 A 
ATOM     14  C   UNL     1      -2.690  12.241  23.423  0.00  0.00    +0.000 A 
ATOM     15  C   UNL     1      -3.555  13.169  22.844  0.00  0.00    +0.000 A 
ATOM     16 CL   UNL     1      -4.952  13.685  23.704  0.00  0.00    +0.000 Cl
ATOM     17  C   UNL     1      -3.298  13.687  21.568  0.00  0.00    +0.000 A 
ATOM     18  C   UNL     1      -2.170  13.256  20.858  0.00  0.00    +0.000 A 
ENDBRANCH   9  12
ENDBRANCH   6   9
BRANCH   1  19
ATOM     19  C   UNL     1       2.732   6.171  19.590  0.00  0.00    +0.000 C 
BRANCH  19  24
ATOM     20  C   UNL     1       5.118   3.803  17.928  0.00  0.00    +0.000 C 
ATOM     21  N   UNL     1       3.816   3.516  17.383  0.00  0.00    +0.000 N 
ATOM     22  C   UNL     1       2.846   4.344  17.891  0.00  0.00    +0.000 C 
ATOM     23  O   UNL     1       1.713   4.389  17.447  0.00  0.00    +0.000 OA
ATOM     24  N   UNL     1       3.390   5.089  18.890  0.00  0.00    +0.000 N 
ATOM     25  C   UNL     1       4.725   4.831  18.997  0.00  0.00    +0.000 C 
ATOM     26  O   UNL     1       5.507   5.378  19.760  0.00  0.00    +0.000 OA
ATOM     27  H   UNL     1       3.621   2.905  16.600  0.00  0.00    +0.000 HD
BRANCH  20  28
ATOM     28  C   UNL     1       6.033   4.402  16.854  0.00  0.00    +0.000 C 
BRANCH  28  30
ATOM     29  C   UNL     1       5.272   6.248  15.280  0.00  0.00    +0.000 C 
ATOM     30  C   UNL     1       5.331   4.741  15.523  0.00  0.00    +0.000 C 
ATOM     31  C   UNL     1       6.035   4.050  14.352  0.00  0.00    +0.000 C 
ENDBRANCH  28  30
ENDBRANCH  20  28
ENDBRANCH  19  24
ENDBRANCH   1  19
TORSDOF 6
ENDMDL
MODEL 2
REMARK VINA RESULT:      -7.7      0.997      1.236
REMARK  Name = 
REMARK  8 active torsions:
REMARK  status: ('A' for Active; 'I' for Inactive)
REMARK    1  A    between atoms: C_1  and  C_2
REMARK    2  A    between atoms: C_2  and  C_3
REMARK    3  A    between atoms: C_2  and  C_4
REMARK    4  A    between atoms: C_4  and  C_5
REMARK    5  A    between atoms: N_9  and  C_10
REMARK    6  A    between atoms: C_10  and  C_11
REMARK    7  A    between atoms: N_16  and  S_17
REMARK    8  A    between atoms: S_17  and  C_20
REMARK                            x       y       z     vdW  Elec       q    Type
REMARK                         _______ _______ _______ _____ _____    ______ ____
ROOT
ATOM      1  C   UNL     1       2.381   7.523  19.184  0.00  0.00    +0.000 C 
ATOM      2  O   UNL     1       3.013   7.980  18.229  0.00  0.00    +0.000 OA
ATOM      3  N   UNL     1       1.411   8.274  19.840  0.00  0.00    +0.000 N 
ATOM      4  C   UNL     1       1.035   9.573  19.270  0.00  0.00    +0.000 C 
ATOM      5  C   UNL     1      -0.433   9.914  19.579  0.00  0.00    +0.000 C 
ATOM      6  N   UNL     1      -0.745   9.805  21.041  0.00  0.00    +0.000 NA
ATOM      7  C   UNL     1      -0.395   8.440  21.540  0.00  0.00    +0.000 C 
ATOM      8  C   UNL     1       1.070   8.096  21.260  0.00  0.00    +0.000 C 
ENDROOT
BRANCH   6   9
ATOM      9  S   UNL     1      -0.222  11.085  22.041  0.00  0.00    +0.000 S 
ATOM     10  O   UNL     1      -0.037  10.565  23.379  0.00  0.00    +0.000 OA
ATOM     11  O   UNL     1       0.837  11.797  21.363  0.00  0.00    +0.000 OA
BRANCH   9  12
ATOM     12  C   UNL     1      -1.652  12.136  22.090  0.00  0.00    +0.000 A 
ATOM     13  C   UNL     1      -2.494  12.069  23.206  0.00  0.00    +0.000 A 
ATOM     14  C   UNL     1      -3.630  12.877  23.257  0.00  0.00    +0.000 A 
ATOM     15  C   UNL     1      -3.911  13.747  22.203  0.00  0.00    +0.000 A 
ATOM     16 CL   UNL     1      -5.319  14.733  22.263  0.00  0.00    +0.000 Cl
ATOM     17  C   UNL     1      -3.058  13.827  21.096  0.00  0.00    +0.000 A 
ATOM     18  C   UNL     1      -1.919  13.013  21.036  0.00  0.00    +0.000 A 
ENDBRANCH   9  12
ENDBRANCH   6   9
BRANCH   1  19
ATOM     19  C   UNL     1       2.583   6.072  19.625  0.00  0.00    +0.000 C 
BRANCH  19  24
ATOM     20  C   UNL     1       4.693   4.379  17.027  0.00  0.00    +0.000 C 
ATOM     21  N   UNL     1       3.350   3.887  16.844  0.00  0.00    +0.000 N 
ATOM     22  C   UNL     1       2.463   4.458  17.723  0.00  0.00    +0.000 C 
ATOM     23  O   UNL     1       1.257   4.315  17.634  0.00  0.00    +0.000 OA
ATOM     24  N   UNL     1       3.160   5.207  18.618  0.00  0.00    +0.000 N 
ATOM     25  C   UNL     1       4.486   5.211  18.299  0.00  0.00    +0.000 C 
ATOM     26  O   UNL     1       5.365   5.835  18.875  0.00  0.00    +0.000 OA
ATOM     27  H   UNL     1       3.026   3.320  16.072  0.00  0.00    +0.000 HD
BRANCH  20  28
ATOM     28  C   UNL     1       5.119   5.239  15.832  0.00  0.00    +0.000 C 
BRANCH  28  30
ATOM     29  C   UNL     1       7.433   4.405  16.477  0.00  0.00    +0.000 C 
ATOM     30  C   UNL     1       6.579   5.037  15.379  0.00  0.00    +0.000 C 
ATOM     31  C   UNL     1       6.635   4.178  14.113  0.00  0.00    +0.000 C 
ENDBRANCH  28  30
ENDBRANCH  20  28
ENDBRANCH  19  24
ENDBRANCH   1  19
TORSDOF 6
ENDMDL
MODEL 3
REMARK VINA RESULT:      -7.7      0.581      1.184
REMARK  Name = 
REMARK  8 active torsions:
REMARK  status: ('A' for Active; 'I' for Inactive)
REMARK    1  A    between atoms: C_1  and  C_2
REMARK    2  A    between atoms: C_2  and  C_3
REMARK    3  A    between atoms: C_2  and  C_4
REMARK    4  A    between atoms: C_4  and  C_5
REMARK    5  A    between atoms: N_9  and  C_10
REMARK    6  A    between atoms: C_10  and  C_11
REMARK    7  A    between atoms: N_16  and  S_17
REMARK    8  A    between atoms: S_17  and  C_20
REMARK                            x       y       z     vdW  Elec       q    Type
REMARK                         _______ _______ _______ _____ _____    ______ ____
ROOT
ATOM      1  C   UNL     1       2.553   7.604  18.903  0.00  0.00    +0.000 C 
ATOM      2  O   UNL     1       3.260   7.809  17.915  0.00  0.00    +0.000 OA
ATOM      3  N   UNL     1       1.565   8.503  19.290  0.00  0.00    +0.000 N 
ATOM      4  C   UNL     1       1.266   9.632  18.400  0.00  0.00    +0.000 C 
ATOM      5  C   UNL     1      -0.208  10.057  18.514  0.00  0.00    +0.000 C 
ATOM      6  N   UNL     1      -0.620  10.306  19.932  0.00  0.00    +0.000 NA
ATOM      7  C   UNL     1      -0.345   9.097  20.767  0.00  0.00    +0.000 C 
ATOM      8  C   UNL     1       1.124   8.676  20.683  0.00  0.00    +0.000 C 
ENDROOT
BRANCH   6   9
ATOM      9  S   UNL     1      -0.126  11.782  20.633  0.00  0.00    +0.000 S 
ATOM     10  O   UNL     1       0.886  11.493  21.626  0.00  0.00    +0.000 OA
ATOM     11  O   UNL     1       0.115  12.736  19.575  0.00  0.00    +0.000 OA
BRANCH   9  12
ATOM     12  C   UNL     1      -1.583  12.289  21.513  0.00  0.00    +0.000 A 
ATOM     13  C   UNL     1      -2.532  13.067  20.842  0.00  0.00    +0.000 A 
ATOM     14  C   UNL     1      -3.678  13.486  21.520  0.00  0.00    +0.000 A 
ATOM     15  C   UNL     1      -3.868  13.121  22.853  0.00  0.00    +0.000 A 
ATOM     16 CL   UNL     1      -5.274  13.650  23.690  0.00  0.00    +0.000 Cl
ATOM     17  C   UNL     1      -2.926  12.327  23.517  0.00  0.00    +0.000 A 
ATOM     18  C   UNL     1      -1.771  11.908  22.844  0.00  0.00    +0.000 A 
ENDBRANCH   9  12
ENDBRANCH   6   9
BRANCH   1  19
ATOM     19  C   UNL     1       2.682   6.299  19.692  0.00  0.00    +0.000 C 
BRANCH  19  24
ATOM     20  C   UNL     1       4.848   3.816  17.901  0.00  0.00    +0.000 C 
ATOM     21  N   UNL     1       3.513   3.636  17.387  0.00  0.00    +0.000 N 
ATOM     22  C   UNL     1       2.619   4.515  17.944  0.00  0.00    +0.000 C 
ATOM     23  O   UNL     1       1.480   4.652  17.535  0.00  0.00    +0.000 OA
ATOM     24  N   UNL     1       3.242   5.192  18.946  0.00  0.00    +0.000 N 
ATOM     25  C   UNL     1       4.557   4.838  19.007  0.00  0.00    +0.000 C 
ATOM     26  O   UNL     1       5.397   5.308  19.760  0.00  0.00    +0.000 OA
ATOM     27  H   UNL     1       3.254   3.062  16.595  0.00  0.00    +0.000 HD
BRANCH  20  28
ATOM     28  C   UNL     1       5.773   4.378  16.816  0.00  0.00    +0.000 C 
BRANCH  28  30
ATOM     29  C   UNL     1       7.214   6.467  16.954  0.00  0.00    +0.000 C 
ATOM     30  C   UNL     1       5.807   5.917  16.730  0.00  0.00    +0.000 C 
ATOM     31  C   UNL     1       5.269   6.392  15.377  0.00  0.00    +0.000 C 
ENDBRANCH  28  30
ENDBRANCH  20  28
ENDBRANCH  19  24
ENDBRANCH   1  19
TORSDOF 6
ENDMDL
MODEL 4
REMARK VINA RESULT:      -7.5      0.982      1.219
REMARK  Name = 
REMARK  8 active torsions:
REMARK  status: ('A' for Active; 'I' for Inactive)
REMARK    1  A    between atoms: C_1  and  C_2
REMARK    2  A    between atoms: C_2  and  C_3
REMARK    3  A    between atoms: C_2  and  C_4
REMARK    4  A    between atoms: C_4  and  C_5
REMARK    5  A    between atoms: N_9  and  C_10
REMARK    6  A    between atoms: C_10  and  C_11
REMARK    7  A    between atoms: N_16  and  S_17
REMARK    8  A    between atoms: S_17  and  C_20
REMARK                            x       y       z     vdW  Elec       q    Type
REMARK                         _______ _______ _______ _____ _____    ______ ____
ROOT
ATOM      1  C   UNL     1       2.394   7.634  18.617  0.00  0.00    +0.000 C 
ATOM      2  O   UNL     1       2.839   7.744  17.472  0.00  0.00    +0.000 OA
ATOM      3  N   UNL     1       1.574   8.607  19.176  0.00  0.00    +0.000 N 
ATOM      4  C   UNL     1       1.109   9.703  18.316  0.00  0.00    +0.000 C 
ATOM      5  C   UNL     1      -0.270  10.216  18.763  0.00  0.00    +0.000 C 
ATOM      6  N   UNL     1      -0.301  10.565  20.220  0.00  0.00    +0.000 NA
ATOM      7  C   UNL     1       0.123   9.388  21.038  0.00  0.00    +0.000 C 
ATOM      8  C   UNL     1       1.505   8.880  20.620  0.00  0.00    +0.000 C 
ENDROOT
BRANCH   6   9
ATOM      9  S   UNL     1       0.415  12.045  20.677  0.00  0.00    +0.000 S 
ATOM     10  O   UNL     1       1.642  11.752  21.386  0.00  0.00    +0.000 OA
ATOM     11  O   UNL     1       0.403  12.933  19.538  0.00  0.00    +0.000 OA
BRANCH   9  12
ATOM     12  C   UNL     1      -0.737  12.668  21.876  0.00  0.00    +0.000 A 
ATOM     13  C   UNL     1      -1.901  11.934  22.130  0.00  0.00    +0.000 A 
ATOM     14  C   UNL     1      -2.825  12.413  23.059  0.00  0.00    +0.000 A 
ATOM     15  C   UNL     1      -2.577  13.611  23.729  0.00  0.00    +0.000 A 
ATOM     16 CL   UNL     1      -3.724  14.206  24.865  0.00  0.00    +0.000 Cl
ATOM     17  C   UNL     1      -1.404  14.335  23.489  0.00  0.00    +0.000 A 
ATOM     18  C   UNL     1      -0.475  13.862  22.552  0.00  0.00    +0.000 A 
ENDBRANCH   9  12
ENDBRANCH   6   9
BRANCH   1  19
ATOM     19  C   UNL     1       2.661   6.367  19.434  0.00  0.00    +0.000 C 
BRANCH  19  24
ATOM     20  C   UNL     1       4.473   3.932  17.231  0.00  0.00    +0.000 C 
ATOM     21  N   UNL     1       3.111   3.467  17.316  0.00  0.00    +0.000 N 
ATOM     22  C   UNL     1       2.326   4.296  18.078  0.00  0.00    +0.000 C 
ATOM     23  O   UNL     1       1.115   4.187  18.143  0.00  0.00    +0.000 OA
ATOM     24  N   UNL     1       3.121   5.233  18.660  0.00  0.00    +0.000 N 
ATOM     25  C   UNL     1       4.408   5.091  18.233  0.00  0.00    +0.000 C 
ATOM     26  O   UNL     1       5.350   5.812  18.528  0.00  0.00    +0.000 OA
ATOM     27  H   UNL     1       2.702   2.723  16.766  0.00  0.00    +0.000 HD
BRANCH  20  28
ATOM     28  C   UNL     1       4.791   4.408  15.809  0.00  0.00    +0.000 C 
BRANCH  28  30
ATOM     29  C   UNL     1       6.129   3.861  13.717  0.00  0.00    +0.000 C 
ATOM     30  C   UNL     1       6.135   3.904  15.244  0.00  0.00    +0.000 C 
ATOM     31  C   UNL     1       7.289   4.779  15.738  0.00  0.00    +0.000 C 
ENDBRANCH  28  30
ENDBRANCH  20  28
ENDBRANCH  19  24
ENDBRANCH   1  19
TORSDOF 6
ENDMDL
MODEL 5
REMARK VINA RESULT:      -7.5      0.932      1.278
REMARK  Name = 
REMARK  8 active torsions:
REMARK  status: ('A' for Active; 'I' for Inactive)
REMARK    1  A    between atoms: C_1  and  C_2
REMARK    2  A    between atoms: C_2  and  C_3
REMARK    3  A    between atoms: C_2  and  C_4
REMARK    4  A    between atoms: C_4  and  C_5
REMARK    5  A    between atoms: N_9  and  C_10
REMARK    6  A    between atoms: C_10  and  C_11
REMARK    7  A    between atoms: N_16  and  S_17
REMARK    8  A    between atoms: S_17  and  C_20
REMARK                            x       y       z     vdW  Elec       q    Type
REMARK                         _______ _______ _______ _____ _____    ______ ____
ROOT
ATOM      1  C   UNL     1       2.432   6.964  19.017  0.00  0.00    +0.000 C 
ATOM      2  O   UNL     1       3.163   7.345  18.100  0.00  0.00    +0.000 OA
ATOM      3  N   UNL     1       1.580   7.841  19.680  0.00  0.00    +0.000 N 
ATOM      4  C   UNL     1       1.447   9.207  19.160  0.00  0.00    +0.000 C 
ATOM      5  C   UNL     1       0.047   9.778  19.445  0.00  0.00    +0.000 C 
ATOM      6  N   UNL     1      -0.328   9.665  20.892  0.00  0.00    +0.000 NA
ATOM      7  C   UNL     1      -0.229   8.241  21.337  0.00  0.00    +0.000 C 
ATOM      8  C   UNL     1       1.166   7.666  21.081  0.00  0.00    +0.000 C 
ENDROOT
BRANCH   6   9
ATOM      9  S   UNL     1       0.369  10.797  21.962  0.00  0.00    +0.000 S 
ATOM     10  O   UNL     1       0.679  10.114  23.200  0.00  0.00    +0.000 OA
ATOM     11  O   UNL     1       1.378  11.545  21.248  0.00  0.00    +0.000 OA
BRANCH   9  12
ATOM     12  C   UNL     1      -0.992  11.886  22.300  0.00  0.00    +0.000 A 
ATOM     13  C   UNL     1      -1.006  13.146  21.693  0.00  0.00    +0.000 A 
ATOM     14  C   UNL     1      -2.061  14.022  21.956  0.00  0.00    +0.000 A 
ATOM     15  C   UNL     1      -3.091  13.630  22.811  0.00  0.00    +0.000 A 
ATOM     16 CL   UNL     1      -4.382  14.716  23.143  0.00  0.00    +0.000 Cl
ATOM     17  C   UNL     1      -3.086  12.361  23.402  0.00  0.00    +0.000 A 
ATOM     18  C   UNL     1      -2.026  11.480  23.147  0.00  0.00    +0.000 A 
ENDBRANCH   9  12
ENDBRANCH   6   9
BRANCH   1  19
ATOM     19  C   UNL     1       2.372   5.482  19.397  0.00  0.00    +0.000 C 
BRANCH  19  24
ATOM     20  C   UNL     1       5.443   3.899  17.939  0.00  0.00    +0.000 C 
ATOM     21  N   UNL     1       4.321   3.336  17.231  0.00  0.00    +0.000 N 
ATOM     22  C   UNL     1       3.125   3.861  17.652  0.00  0.00    +0.000 C 
ATOM     23  O   UNL     1       2.071   3.655  17.077  0.00  0.00    +0.000 OA
ATOM     24  N   UNL     1       3.354   4.647  18.738  0.00  0.00    +0.000 N 
ATOM     25  C   UNL     1       4.691   4.720  18.994  0.00  0.00    +0.000 C 
ATOM     26  O   UNL     1       5.224   5.391  19.866  0.00  0.00    +0.000 OA
ATOM     27  H   UNL     1       4.372   2.752  16.406  0.00  0.00    +0.000 HD
BRANCH  20  28
ATOM     28  C   UNL     1       6.285   4.778  17.007  0.00  0.00    +0.000 C 
BRANCH  28  30
ATOM     29  C   UNL     1       5.165   6.450  15.453  0.00  0.00    +0.000 C 
ATOM     30  C   UNL     1       5.669   5.017  15.613  0.00  0.00    +0.000 C 
ATOM     31  C   UNL     1       6.684   4.693  14.514  0.00  0.00    +0.000 C 
ENDBRANCH  28  30
ENDBRANCH  20  28
ENDBRANCH  19  24
ENDBRANCH   1  19
TORSDOF 6
ENDMDL
MODEL 6
REMARK VINA RESULT:      -7.4      0.937      1.122
REMARK  Name = 
REMARK  8 active torsions:
REMARK  status: ('A' for Active; 'I' for Inactive)
REMARK    1  A    between atoms: C_1  and  C_2
REMARK    2  A    between atoms: C_2  and  C_3
REMARK    3  A    between atoms: C_2  and  C_4
REMARK    4  A    between atoms: C_4  and  C_5
REMARK    5  A    between atoms: N_9  and  C_10
REMARK    6  A    between atoms: C_10  and  C_11
REMARK    7  A    between atoms: N_16  and  S_17
REMARK    8  A    between atoms: S_17  and  C_20
REMARK                            x       y       z     vdW  Elec       q    Type
REMARK                         _______ _______ _______ _____ _____    ______ ____
ROOT
ATOM      1  C   UNL     1       2.365   7.496  18.734  0.00  0.00    +0.000 C 
ATOM      2  O   UNL     1       2.964   7.586  17.660  0.00  0.00    +0.000 OA
ATOM      3  N   UNL     1       1.567   8.531  19.211  0.00  0.00    +0.000 N 
ATOM      4  C   UNL     1       1.319   9.679  18.331  0.00  0.00    +0.000 C 
ATOM      5  C   UNL     1      -0.056  10.309  18.610  0.00  0.00    +0.000 C 
ATOM      6  N   UNL     1      -0.248  10.633  20.061  0.00  0.00    +0.000 NA
ATOM      7  C   UNL     1      -0.041   9.407  20.891  0.00  0.00    +0.000 C 
ATOM      8  C   UNL     1       1.333   8.782  20.641  0.00  0.00    +0.000 C 
ENDROOT
BRANCH   6   9
ATOM      9  S   UNL     1       0.530  12.033  20.650  0.00  0.00    +0.000 S 
ATOM     10  O   UNL     1       1.706  11.619  21.386  0.00  0.00    +0.000 OA
ATOM     11  O   UNL     1       0.620  12.996  19.578  0.00  0.00    +0.000 OA
BRANCH   9  12
ATOM     12  C   UNL     1      -0.637  12.640  21.843  0.00  0.00    +0.000 A 
ATOM     13  C   UNL     1      -1.677  11.797  22.250  0.00  0.00    +0.000 A 
ATOM     14  C   UNL     1      -2.612  12.260  23.177  0.00  0.00    +0.000 A 
ATOM     15  C   UNL     1      -2.497  13.550  23.692  0.00  0.00    +0.000 A 
ATOM     16 CL   UNL     1      -3.658  14.123  24.825  0.00  0.00    +0.000 Cl
ATOM     17  C   UNL     1      -1.445  14.386  23.299  0.00  0.00    +0.000 A 
ATOM     18  C   UNL     1      -0.507  13.929  22.364  0.00  0.00    +0.000 A 
ENDBRANCH   9  12
ENDBRANCH   6   9
BRANCH   1  19
ATOM     19  C   UNL     1       2.408   6.195  19.540  0.00  0.00    +0.000 C 
BRANCH  19  24
ATOM     20  C   UNL     1       4.693   3.704  17.917  0.00  0.00    +0.000 C 
ATOM     21  N   UNL     1       3.382   3.473  17.363  0.00  0.00    +0.000 N 
ATOM     22  C   UNL     1       2.449   4.350  17.857  0.00  0.00    +0.000 C 
ATOM     23  O   UNL     1       1.323   4.445  17.403  0.00  0.00    +0.000 OA
ATOM     24  N   UNL     1       3.020   5.077  18.854  0.00  0.00    +0.000 N 
ATOM     25  C   UNL     1       4.340   4.757  18.974  0.00  0.00    +0.000 C 
ATOM     26  O   UNL     1       5.142   5.274  19.739  0.00  0.00    +0.000 OA
ATOM     27  H   UNL     1       3.165   2.866  16.584  0.00  0.00    +0.000 HD
BRANCH  20  28
ATOM     28  C   UNL     1       5.643   4.250  16.845  0.00  0.00    +0.000 C 
BRANCH  28  30
ATOM     29  C   UNL     1       7.135   6.298  17.044  0.00  0.00    +0.000 C 
ATOM     30  C   UNL     1       5.721   5.788  16.773  0.00  0.00    +0.000 C 
ATOM     31  C   UNL     1       5.237   6.287  15.409  0.00  0.00    +0.000 C 
ENDBRANCH  28  30
ENDBRANCH  20  28
ENDBRANCH  19  24
ENDBRANCH   1  19
TORSDOF 6
ENDMDL
MODEL 7
REMARK VINA RESULT:      -7.4      1.072      1.357
REMARK  Name = 
REMARK  8 active torsions:
REMARK  status: ('A' for Active; 'I' for Inactive)
REMARK    1  A    between atoms: C_1  and  C_2
REMARK    2  A    between atoms: C_2  and  C_3
REMARK    3  A    between atoms: C_2  and  C_4
REMARK    4  A    between atoms: C_4  and  C_5
REMARK    5  A    between atoms: N_9  and  C_10
REMARK    6  A    between atoms: C_10  and  C_11
REMARK    7  A    between atoms: N_16  and  S_17
REMARK    8  A    between atoms: S_17  and  C_20
REMARK                            x       y       z     vdW  Elec       q    Type
REMARK                         _______ _______ _______ _____ _____    ______ ____
ROOT
ATOM      1  C   UNL     1       2.385   7.286  19.288  0.00  0.00    +0.000 C 
ATOM      2  O   UNL     1       3.088   7.634  18.337  0.00  0.00    +0.000 OA
ATOM      3  N   UNL     1       1.458   8.150  19.862  0.00  0.00    +0.000 N 
ATOM      4  C   UNL     1       1.215   9.442  19.208  0.00  0.00    +0.000 C 
ATOM      5  C   UNL     1      -0.230   9.919  19.437  0.00  0.00    +0.000 C 
ATOM      6  N   UNL     1      -0.605   9.919  20.888  0.00  0.00    +0.000 NA
ATOM      7  C   UNL     1      -0.391   8.559  21.473  0.00  0.00    +0.000 C 
ATOM      8  C   UNL     1       1.049   8.081  21.273  0.00  0.00    +0.000 C 
ENDROOT
BRANCH   6   9
ATOM      9  S   UNL     1      -0.012  11.205  21.840  0.00  0.00    +0.000 S 
ATOM     10  O   UNL     1       0.041  10.760  23.216  0.00  0.00    +0.000 OA
ATOM     11  O   UNL     1       1.150  11.763  21.189  0.00  0.00    +0.000 OA
BRANCH   9  12
ATOM     12  C   UNL     1      -1.329  12.392  21.733  0.00  0.00    +0.000 A 
ATOM     13  C   UNL     1      -2.431  12.246  22.583  0.00  0.00    +0.000 A 
ATOM     14  C   UNL     1      -3.482  13.161  22.505  0.00  0.00    +0.000 A 
ATOM     15  C   UNL     1      -3.421  14.212  21.590  0.00  0.00    +0.000 A 
ATOM     16 CL   UNL     1      -4.724  15.330  21.487  0.00  0.00    +0.000 Cl
ATOM     17  C   UNL     1      -2.309  14.367  20.753  0.00  0.00    +0.000 A 
ATOM     18  C   UNL     1      -1.254  13.449  20.823  0.00  0.00    +0.000 A 
ENDBRANCH   9  12
ENDBRANCH   6   9
BRANCH   1  19
ATOM     19  C   UNL     1       2.446   5.849  19.813  0.00  0.00    +0.000 C 
BRANCH  19  24
ATOM     20  C   UNL     1       4.768   3.802  17.697  0.00  0.00    +0.000 C 
ATOM     21  N   UNL     1       3.448   3.611  17.152  0.00  0.00    +0.000 N 
ATOM     22  C   UNL     1       2.498   4.339  17.824  0.00  0.00    +0.000 C 
ATOM     23  O   UNL     1       1.352   4.459  17.430  0.00  0.00    +0.000 OA
ATOM     24  N   UNL     1       3.077   4.903  18.918  0.00  0.00    +0.000 N 
ATOM     25  C   UNL     1       4.413   4.631  18.938  0.00  0.00    +0.000 C 
ATOM     26  O   UNL     1       5.221   5.041  19.758  0.00  0.00    +0.000 OA
ATOM     27  H   UNL     1       3.226   3.143  16.283  0.00  0.00    +0.000 HD
BRANCH  20  28
ATOM     28  C   UNL     1       5.652   4.576  16.713  0.00  0.00    +0.000 C 
BRANCH  28  30
ATOM     29  C   UNL     1       6.991   6.683  17.192  0.00  0.00    +0.000 C 
ATOM     30  C   UNL     1       5.611   6.109  16.875  0.00  0.00    +0.000 C 
ATOM     31  C   UNL     1       5.047   6.768  15.613  0.00  0.00    +0.000 C 
ENDBRANCH  28  30
ENDBRANCH  20  28
ENDBRANCH  19  24
ENDBRANCH   1  19
TORSDOF 6
ENDMDL
MODEL 8
REMARK VINA RESULT:      -7.4      1.673      2.739
REMARK  Name = 
REMARK  8 active torsions:
REMARK  status: ('A' for Active; 'I' for Inactive)
REMARK    1  A    between atoms: C_1  and  C_2
REMARK    2  A    between atoms: C_2  and  C_3
REMARK    3  A    between atoms: C_2  and  C_4
REMARK    4  A    between atoms: C_4  and  C_5
REMARK    5  A    between atoms: N_9  and  C_10
REMARK    6  A    between atoms: C_10  and  C_11
REMARK    7  A    between atoms: N_16  and  S_17
REMARK    8  A    between atoms: S_17  and  C_20
REMARK                            x       y       z     vdW  Elec       q    Type
REMARK                         _______ _______ _______ _____ _____    ______ ____
ROOT
ATOM      1  C   UNL     1       2.444   8.074  18.411  0.00  0.00    +0.000 C 
ATOM      2  O   UNL     1       2.835   8.379  17.282  0.00  0.00    +0.000 OA
ATOM      3  N   UNL     1       1.435   8.789  19.049  0.00  0.00    +0.000 N 
ATOM      4  C   UNL     1       0.724   9.821  18.284  0.00  0.00    +0.000 C 
ATOM      5  C   UNL     1      -0.728   9.973  18.768  0.00  0.00    +0.000 C 
ATOM      6  N   UNL     1      -0.814  10.180  20.250  0.00  0.00    +0.000 NA
ATOM      7  C   UNL     1      -0.125   9.063  20.965  0.00  0.00    +0.000 C 
ATOM      8  C   UNL     1       1.329   8.915  20.511  0.00  0.00    +0.000 C 
ENDROOT
BRANCH   6   9
ATOM      9  S   UNL     1      -0.440  11.739  20.835  0.00  0.00    +0.000 S 
ATOM     10  O   UNL     1       0.564  11.604  21.869  0.00  0.00    +0.000 OA
ATOM     11  O   UNL     1      -0.238  12.619  19.707  0.00  0.00    +0.000 OA
BRANCH   9  12
ATOM     12  C   UNL     1      -1.950  12.212  21.641  0.00  0.00    +0.000 A 
ATOM     13  C   UNL     1      -2.063  12.010  23.021  0.00  0.00    +0.000 A 
ATOM     14  C   UNL     1      -3.247  12.363  23.671  0.00  0.00    +0.000 A 
ATOM     15  C   UNL     1      -4.298  12.919  22.944  0.00  0.00    +0.000 A 
ATOM     16 CL   UNL     1      -5.760  13.341  23.745  0.00  0.00    +0.000 Cl
ATOM     17  C   UNL     1      -4.177  13.139  21.567  0.00  0.00    +0.000 A 
ATOM     18  C   UNL     1      -2.993  12.781  20.907  0.00  0.00    +0.000 A 
ENDBRANCH   9  12
ENDBRANCH   6   9
BRANCH   1  19
ATOM     19  C   UNL     1       3.000   6.835  19.117  0.00  0.00    +0.000 C 
BRANCH  19  24
ATOM     20  C   UNL     1       1.725   3.406  18.293  0.00  0.00    +0.000 C 
ATOM     21  N   UNL     1       2.730   3.713  17.307  0.00  0.00    +0.000 N 
ATOM     22  C   UNL     1       3.304   4.942  17.516  0.00  0.00    +0.000 C 
ATOM     23  O   UNL     1       4.286   5.327  16.908  0.00  0.00    +0.000 OA
ATOM     24  N   UNL     1       2.627   5.574  18.511  0.00  0.00    +0.000 N 
ATOM     25  C   UNL     1       1.667   4.753  19.024  0.00  0.00    +0.000 C 
ATOM     26  O   UNL     1       0.928   5.005  19.965  0.00  0.00    +0.000 OA
ATOM     27  H   UNL     1       3.114   3.067  16.630  0.00  0.00    +0.000 HD
BRANCH  20  28
ATOM     28  C   UNL     1       2.195   2.268  19.206  0.00  0.00    +0.000 C 
BRANCH  28  30
ATOM     29  C   UNL     1       2.515   2.432  21.723  0.00  0.00    +0.000 C 
ATOM     30  C   UNL     1       3.131   2.703  20.352  0.00  0.00    +0.000 C 
ATOM     31  C   UNL     1       4.485   1.997  20.238  0.00  0.00    +0.000 C 
ENDBRANCH  28  30
ENDBRANCH  20  28
ENDBRANCH  19  24
ENDBRANCH   1  19
TORSDOF 6
ENDMDL
MODEL 9
REMARK VINA RESULT:      -7.4      4.021      9.846
REMARK  Name = 
REMARK  8 active torsions:
REMARK  status: ('A' for Active; 'I' for Inactive)
REMARK    1  A    between atoms: C_1  and  C_2
REMARK    2  A    between atoms: C_2  and  C_3
REMARK    3  A    between atoms: C_2  and  C_4
REMARK    4  A    between atoms: C_4  and  C_5
REMARK    5  A    between atoms: N_9  and  C_10
REMARK    6  A    between atoms: C_10  and  C_11
REMARK    7  A    between atoms: N_16  and  S_17
REMARK    8  A    between atoms: S_17  and  C_20
REMARK                            x       y       z     vdW  Elec       q    Type
REMARK                         _______ _______ _______ _____ _____    ______ ____
ROOT
ATOM      1  C   UNL     1       1.569   8.658  19.783  0.00  0.00    +0.000 C 
ATOM      2  O   UNL     1       1.286   8.888  20.961  0.00  0.00    +0.000 OA
ATOM      3  N   UNL     1       2.106   7.436  19.389  0.00  0.00    +0.000 N 
ATOM      4  C   UNL     1       2.181   6.358  20.382  0.00  0.00    +0.000 C 
ATOM      5  C   UNL     1       2.058   4.977  19.715  0.00  0.00    +0.000 C 
ATOM      6  N   UNL     1       3.029   4.802  18.588  0.00  0.00    +0.000 NA
ATOM      7  C   UNL     1       2.855   5.898  17.586  0.00  0.00    +0.000 C 
ATOM      8  C   UNL     1       2.999   7.278  18.231  0.00  0.00    +0.000 C 
ENDROOT
BRANCH   6   9
ATOM      9  S   UNL     1       4.650   4.471  19.007  0.00  0.00    +0.000 S 
ATOM     10  O   UNL     1       5.130   5.553  19.839  0.00  0.00    +0.000 OA
ATOM     11  O   UNL     1       4.742   3.096  19.443  0.00  0.00    +0.000 OA
BRANCH   9  12
ATOM     12  C   UNL     1       5.481   4.613  17.445  0.00  0.00    +0.000 A 
ATOM     13  C   UNL     1       6.449   5.612  17.291  0.00  0.00    +0.000 A 
ATOM     14  C   UNL     1       7.104   5.748  16.066  0.00  0.00    +0.000 A 
ATOM     15  C   UNL     1       6.795   4.886  15.014  0.00  0.00    +0.000 A 
ATOM     16 CL   UNL     1       7.594   5.065  13.502  0.00  0.00    +0.000 Cl
ATOM     17  C   UNL     1       5.840   3.875  15.175  0.00  0.00    +0.000 A 
ATOM     18  C   UNL     1       5.175   3.737  16.401  0.00  0.00    +0.000 A 
ENDBRANCH   9  12
ENDBRANCH   6   9
BRANCH   1  19
ATOM     19  C   UNL     1       1.252   9.685  18.694  0.00  0.00    +0.000 C 
BRANCH  19  24
ATOM     20  C   UNL     1      -0.446  12.628  20.281  0.00  0.00    +0.000 C 
ATOM     21  N   UNL     1      -1.488  11.834  19.680  0.00  0.00    +0.000 N 
ATOM     22  C   UNL     1      -0.998  10.698  19.085  0.00  0.00    +0.000 C 
ATOM     23  O   UNL     1      -1.714   9.806  18.668  0.00  0.00    +0.000 OA
ATOM     24  N   UNL     1       0.361  10.749  19.105  0.00  0.00    +0.000 N 
ATOM     25  C   UNL     1       0.781  11.859  19.778  0.00  0.00    +0.000 C 
ATOM     26  O   UNL     1       1.941  12.161  20.018  0.00  0.00    +0.000 OA
ATOM     27  H   UNL     1      -2.483  11.970  19.801  0.00  0.00    +0.000 HD
BRANCH  20  28
ATOM     28  C   UNL     1      -0.563  12.603  21.810  0.00  0.00    +0.000 C 
BRANCH  28  30
ATOM     29  C   UNL     1      -0.935  10.451  23.111  0.00  0.00    +0.000 C 
ATOM     30  C   UNL     1      -1.600  11.604  22.363  0.00  0.00    +0.000 C 
ATOM     31  C   UNL     1      -2.597  12.317  23.280  0.00  0.00    +0.000 C 
ENDBRANCH  28  30
ENDBRANCH  20  28
ENDBRANCH  19  24
ENDBRANCH   1  19
TORSDOF 6
ENDMDL
