MODEL 1
REMARK VINA RESULT:      -8.3      0.000      0.000
REMARK  Name = 
REMARK  7 active torsions:
REMARK  status: ('A' for Active; 'I' for Inactive)
REMARK    1  A    between atoms: C_2  and  C_3
REMARK    2  A    between atoms: C_6  and  N_7
REMARK    3  A    between atoms: C_8  and  C_10
REMARK    4  A    between atoms: C_13  and  C_14
REMARK    5  A    between atoms: N_16  and  C_17
REMARK    6  A    between atoms: N_16  and  C_18
REMARK    7  A    between atoms: C_21  and  C_22
REMARK                            x       y       z     vdW  Elec       q    Type
REMARK                         _______ _______ _______ _____ _____    ______ ____
ROOT
ATOM      1  C   UNL     1      -1.888  12.913  22.646  0.00  0.00    +0.000 A 
ATOM      2  C   UNL     1      -1.530  11.856  23.463  0.00  0.00    +0.000 A 
ATOM      3  C   UNL     1      -0.973  10.713  22.902  0.00  0.00    +0.000 A 
ATOM      4  C   UNL     1      -0.827  10.564  21.512  0.00  0.00    +0.000 A 
ATOM      5  C   UNL     1      -1.272  11.624  20.679  0.00  0.00    +0.000 A 
ATOM      6  C   UNL     1      -1.745  12.811  21.264  0.00  0.00    +0.000 A 
ENDROOT
BRANCH   5   7
ATOM      7  C   UNL     1      -1.354  11.460  19.196  0.00  0.00    +0.000 C 
ATOM      8  O   UNL     1      -0.317  11.196  18.590  0.00  0.00    +0.000 OA
ATOM      9  N   UNL     1      -2.622  11.603  18.627  0.00  0.00    +0.000 N 
ATOM     10  C   UNL     1      -2.959  11.219  17.320  0.00  0.00    +0.000 A 
ATOM     11  C   UNL     1      -4.213  11.575  16.823  0.00  0.00    +0.000 A 
ATOM     12  C   UNL     1      -4.581  11.149  15.540  0.00  0.00    +0.000 A 
ATOM     13  C   UNL     1      -3.701  10.363  14.812  0.00  0.00    +0.000 A 
ATOM     14 CL   UNL     1      -4.113   9.785  13.251  0.00  0.00    +0.000 Cl
ATOM     15  C   UNL     1      -2.482  10.052  15.384  0.00  0.00    +0.000 A 
ATOM     16  N   UNL     1      -2.098  10.468  16.610  0.00  0.00    +0.000 NA
ATOM     17  H   UNL     1      -3.397  11.909  19.188  0.00  0.00    +0.000 HD
ENDBRANCH   5   7
BRANCH   4  18
ATOM     18  N   UNL     1      -0.226   9.384  20.973  0.00  0.00    +0.000 N 
ATOM     19  C   UNL     1       1.075   8.965  21.220  0.00  0.00    +0.000 C 
ATOM     20  O   UNL     1       1.841   9.482  22.032  0.00  0.00    +0.000 OA
ATOM     21  H   UNL     1      -0.853   8.808  20.410  0.00  0.00    +0.000 HD
BRANCH  19  22
ATOM     22  C   UNL     1       1.612   7.783  20.482  0.00  0.00    +0.000 A 
ATOM     23  C   UNL     1       1.455   6.518  21.084  0.00  0.00    +0.000 A 
ATOM     24  C   UNL     1       1.801   5.339  20.414  0.00  0.00    +0.000 A 
ATOM     25  C   UNL     1       2.335   5.391  19.121  0.00  0.00    +0.000 A 
ATOM     26  C   UNL     1       2.552   6.662  18.549  0.00  0.00    +0.000 A 
ATOM     27  C   UNL     1       2.182   7.847  19.207  0.00  0.00    +0.000 A 
BRANCH  25  28
ATOM     28  C   UNL     1       2.513   4.124  18.307  0.00  0.00    +0.000 C 
ATOM     29  N   UNL     1       1.607   3.810  17.419  0.00  0.00    +0.000 NA
ATOM     30  N   UNL     1       3.552   3.221  18.512  0.00  0.00    +0.000 N 
ATOM     31  C   UNL     1       4.916   3.591  18.848  0.00  0.00    +0.000 C 
ATOM     32  C   UNL     1       3.388   1.807  18.175  0.00  0.00    +0.000 C 
ATOM     33  H   UNL     1       0.841   4.481  17.397  0.00  0.00    +0.000 HD
ENDBRANCH  25  28
ENDBRANCH  19  22
ENDBRANCH   4  18
BRANCH   1  35
ATOM     34  C   UNL     1      -2.862  15.103  23.690  0.00  0.00    +0.000 C 
ATOM     35  C   UNL     1      -2.429  14.100  23.209  0.00  0.00    +0.000 C 
ENDBRANCH   1  35
TORSDOF 5
ENDMDL
MODEL 2
REMARK VINA RESULT:      -8.2      2.136      2.837
REMARK  Name = 
REMARK  7 active torsions:
REMARK  status: ('A' for Active; 'I' for Inactive)
REMARK    1  A    between atoms: C_2  and  C_3
REMARK    2  A    between atoms: C_6  and  N_7
REMARK    3  A    between atoms: C_8  and  C_10
REMARK    4  A    between atoms: C_13  and  C_14
REMARK    5  A    between atoms: N_16  and  C_17
REMARK    6  A    between atoms: N_16  and  C_18
REMARK    7  A    between atoms: C_21  and  C_22
REMARK                            x       y       z     vdW  Elec       q    Type
REMARK                         _______ _______ _______ _____ _____    ______ ____
ROOT
ATOM      1  C   UNL     1      -1.028  10.951  22.380  0.00  0.00    +0.000 A 
ATOM      2  C   UNL     1      -0.134  10.033  22.902  0.00  0.00    +0.000 A 
ATOM      3  C   UNL     1       0.695   9.319  22.045  0.00  0.00    +0.000 A 
ATOM      4  C   UNL     1       0.605   9.447  20.648  0.00  0.00    +0.000 A 
ATOM      5  C   UNL     1      -0.371  10.333  20.122  0.00  0.00    +0.000 A 
ATOM      6  C   UNL     1      -1.137  11.118  21.001  0.00  0.00    +0.000 A 
ENDROOT
BRANCH   5   7
ATOM      7  C   UNL     1      -0.679  10.365  18.660  0.00  0.00    +0.000 C 
ATOM      8  O   UNL     1       0.201  10.006  17.880  0.00  0.00    +0.000 OA
ATOM      9  N   UNL     1      -1.963  10.788  18.308  0.00  0.00    +0.000 N 
ATOM     10  C   UNL     1      -2.537  10.627  17.037  0.00  0.00    +0.000 A 
ATOM     11  C   UNL     1      -3.758  11.247  16.773  0.00  0.00    +0.000 A 
ATOM     12  C   UNL     1      -4.367  11.049  15.527  0.00  0.00    +0.000 A 
ATOM     13  C   UNL     1      -3.752  10.218  14.602  0.00  0.00    +0.000 A 
ATOM     14 CL   UNL     1      -4.468   9.912  13.074  0.00  0.00    +0.000 Cl
ATOM     15  C   UNL     1      -2.545   9.639  14.948  0.00  0.00    +0.000 A 
ATOM     16  N   UNL     1      -1.932   9.833  16.135  0.00  0.00    +0.000 NA
ATOM     17  H   UNL     1      -2.587  11.151  19.007  0.00  0.00    +0.000 HD
ENDBRANCH   5   7
BRANCH   4  18
ATOM     18  N   UNL     1       1.493   8.715  19.799  0.00  0.00    +0.000 N 
ATOM     19  C   UNL     1       1.910   7.407  20.014  0.00  0.00    +0.000 C 
ATOM     20  O   UNL     1       1.474   6.663  20.892  0.00  0.00    +0.000 OA
ATOM     21  H   UNL     1       1.779   9.213  18.955  0.00  0.00    +0.000 HD
BRANCH  19  22
ATOM     22  C   UNL     1       2.946   6.816  19.116  0.00  0.00    +0.000 A 
ATOM     23  C   UNL     1       3.155   7.441  17.870  0.00  0.00    +0.000 A 
ATOM     24  C   UNL     1       4.192   7.047  17.017  0.00  0.00    +0.000 A 
ATOM     25  C   UNL     1       5.046   5.997  17.379  0.00  0.00    +0.000 A 
ATOM     26  C   UNL     1       4.792   5.333  18.596  0.00  0.00    +0.000 A 
ATOM     27  C   UNL     1       3.768   5.742  19.468  0.00  0.00    +0.000 A 
BRANCH  25  28
ATOM     28  C   UNL     1       6.295   5.704  16.570  0.00  0.00    +0.000 C 
ATOM     29  N   UNL     1       7.355   6.445  16.753  0.00  0.00    +0.000 NA
ATOM     30  N   UNL     1       6.351   4.735  15.572  0.00  0.00    +0.000 N 
ATOM     31  C   UNL     1       5.687   3.445  15.633  0.00  0.00    +0.000 C 
ATOM     32  C   UNL     1       7.293   4.864  14.460  0.00  0.00    +0.000 C 
ATOM     33  H   UNL     1       7.196   7.183  17.438  0.00  0.00    +0.000 HD
ENDBRANCH  25  28
ENDBRANCH  19  22
ENDBRANCH   4  18
BRANCH   1  35
ATOM     34  C   UNL     1      -2.566  12.362  23.954  0.00  0.00    +0.000 C 
ATOM     35  C   UNL     1      -1.860  11.710  23.245  0.00  0.00    +0.000 C 
ENDBRANCH   1  35
TORSDOF 5
ENDMDL
MODEL 3
REMARK VINA RESULT:      -7.7      1.131      1.764
REMARK  Name = 
REMARK  7 active torsions:
REMARK  status: ('A' for Active; 'I' for Inactive)
REMARK    1  A    between atoms: C_2  and  C_3
REMARK    2  A    between atoms: C_6  and  N_7
REMARK    3  A    between atoms: C_8  and  C_10
REMARK    4  A    between atoms: C_13  and  C_14
REMARK    5  A    between atoms: N_16  and  C_17
REMARK    6  A    between atoms: N_16  and  C_18
REMARK    7  A    between atoms: C_21  and  C_22
REMARK                            x       y       z     vdW  Elec       q    Type
REMARK                         _______ _______ _______ _____ _____    ______ ____
ROOT
ATOM      1  C   UNL     1      -2.636  13.901  22.849  0.00  0.00    +0.000 A 
ATOM      2  C   UNL     1      -2.307  12.887  23.731  0.00  0.00    +0.000 A 
ATOM      3  C   UNL     1      -1.683  11.739  23.255  0.00  0.00    +0.000 A 
ATOM      4  C   UNL     1      -1.440  11.541  21.885  0.00  0.00    +0.000 A 
ATOM      5  C   UNL     1      -1.855  12.555  20.982  0.00  0.00    +0.000 A 
ATOM      6  C   UNL     1      -2.397  13.750  21.485  0.00  0.00    +0.000 A 
ENDROOT
BRANCH   5   7
ATOM      7  C   UNL     1      -1.831  12.330  19.504  0.00  0.00    +0.000 C 
ATOM      8  O   UNL     1      -0.738  12.329  18.942  0.00  0.00    +0.000 OA
ATOM      9  N   UNL     1      -3.069  12.120  18.892  0.00  0.00    +0.000 N 
ATOM     10  C   UNL     1      -3.242  11.623  17.590  0.00  0.00    +0.000 A 
ATOM     11  C   UNL     1      -4.524  11.624  17.041  0.00  0.00    +0.000 A 
ATOM     12  C   UNL     1      -4.717  11.079  15.765  0.00  0.00    +0.000 A 
ATOM     13  C   UNL     1      -3.635  10.528  15.096  0.00  0.00    +0.000 A 
ATOM     14 CL   UNL     1      -3.819   9.816  13.547  0.00  0.00    +0.000 Cl
ATOM     15  C   UNL     1      -2.400  10.564  15.717  0.00  0.00    +0.000 A 
ATOM     16  N   UNL     1      -2.187  11.102  16.937  0.00  0.00    +0.000 NA
ATOM     17  H   UNL     1      -3.919  12.230  19.415  0.00  0.00    +0.000 HD
ENDBRANCH   5   7
BRANCH   4  18
ATOM     18  N   UNL     1      -0.772  10.359  21.436  0.00  0.00    +0.000 N 
ATOM     19  C   UNL     1       0.579  10.273  21.124  0.00  0.00    +0.000 C 
ATOM     20  O   UNL     1       1.405  11.165  21.311  0.00  0.00    +0.000 OA
ATOM     21  H   UNL     1      -1.361   9.526  21.406  0.00  0.00    +0.000 HD
BRANCH  19  22
ATOM     22  C   UNL     1       1.112   9.006  20.539  0.00  0.00    +0.000 A 
ATOM     23  C   UNL     1       1.648   9.071  19.237  0.00  0.00    +0.000 A 
ATOM     24  C   UNL     1       2.293   7.973  18.654  0.00  0.00    +0.000 A 
ATOM     25  C   UNL     1       2.404   6.765  19.354  0.00  0.00    +0.000 A 
ATOM     26  C   UNL     1       1.808   6.686  20.629  0.00  0.00    +0.000 A 
ATOM     27  C   UNL     1       1.183   7.793  21.228  0.00  0.00    +0.000 A 
BRANCH  25  28
ATOM     28  C   UNL     1       3.279   5.645  18.826  0.00  0.00    +0.000 C 
ATOM     29  N   UNL     1       4.518   5.562  19.236  0.00  0.00    +0.000 NA
ATOM     30  N   UNL     1       2.862   4.740  17.854  0.00  0.00    +0.000 N 
ATOM     31  C   UNL     1       1.523   4.184  17.761  0.00  0.00    +0.000 C 
ATOM     32  C   UNL     1       3.833   4.097  16.968  0.00  0.00    +0.000 C 
ATOM     33  H   UNL     1       4.761   6.315  19.878  0.00  0.00    +0.000 HD
ENDBRANCH  25  28
ENDBRANCH  19  22
ENDBRANCH   4  18
BRANCH   1  35
ATOM     34  C   UNL     1      -3.745  16.092  23.746  0.00  0.00    +0.000 C 
ATOM     35  C   UNL     1      -3.246  15.092  23.325  0.00  0.00    +0.000 C 
ENDBRANCH   1  35
TORSDOF 5
ENDMDL
MODEL 4
REMARK VINA RESULT:      -7.7      1.669      2.269
REMARK  Name = 
REMARK  7 active torsions:
REMARK  status: ('A' for Active; 'I' for Inactive)
REMARK    1  A    between atoms: C_2  and  C_3
REMARK    2  A    between atoms: C_6  and  N_7
REMARK    3  A    between atoms: C_8  and  C_10
REMARK    4  A    between atoms: C_13  and  C_14
REMARK    5  A    between atoms: N_16  and  C_17
REMARK    6  A    between atoms: N_16  and  C_18
REMARK    7  A    between atoms: C_21  and  C_22
REMARK                            x       y       z     vdW  Elec       q    Type
REMARK                         _______ _______ _______ _____ _____    ______ ____
ROOT
ATOM      1  C   UNL     1      -1.183  11.510  22.558  0.00  0.00    +0.000 A 
ATOM      2  C   UNL     1      -0.441  10.527  23.187  0.00  0.00    +0.000 A 
ATOM      3  C   UNL     1       0.311   9.640  22.425  0.00  0.00    +0.000 A 
ATOM      4  C   UNL     1       0.285   9.664  21.019  0.00  0.00    +0.000 A 
ATOM      5  C   UNL     1      -0.543  10.627  20.385  0.00  0.00    +0.000 A 
ATOM      6  C   UNL     1      -1.223  11.577  21.167  0.00  0.00    +0.000 A 
ENDROOT
BRANCH   5   7
ATOM      7  C   UNL     1      -0.795  10.581  18.913  0.00  0.00    +0.000 C 
ATOM      8  O   UNL     1       0.105  10.159  18.190  0.00  0.00    +0.000 OA
ATOM      9  N   UNL     1      -2.055  11.009  18.488  0.00  0.00    +0.000 N 
ATOM     10  C   UNL     1      -2.584  10.786  17.207  0.00  0.00    +0.000 A 
ATOM     11  C   UNL     1      -3.780  11.415  16.861  0.00  0.00    +0.000 A 
ATOM     12  C   UNL     1      -4.346  11.157  15.605  0.00  0.00    +0.000 A 
ATOM     13  C   UNL     1      -3.717  10.261  14.754  0.00  0.00    +0.000 A 
ATOM     14 CL   UNL     1      -4.382   9.881  13.220  0.00  0.00    +0.000 Cl
ATOM     15  C   UNL     1      -2.537   9.679  15.179  0.00  0.00    +0.000 A 
ATOM     16  N   UNL     1      -1.964   9.929  16.376  0.00  0.00    +0.000 NA
ATOM     17  H   UNL     1      -2.696  11.424  19.140  0.00  0.00    +0.000 HD
ENDBRANCH   5   7
BRANCH   4  18
ATOM     18  N   UNL     1       1.092   8.754  20.269  0.00  0.00    +0.000 N 
ATOM     19  C   UNL     1       1.259   7.405  20.560  0.00  0.00    +0.000 C 
ATOM     20  O   UNL     1       0.638   6.788  21.425  0.00  0.00    +0.000 OA
ATOM     21  H   UNL     1       1.520   9.155  19.434  0.00  0.00    +0.000 HD
BRANCH  19  22
ATOM     22  C   UNL     1       2.239   6.605  19.767  0.00  0.00    +0.000 A 
ATOM     23  C   UNL     1       2.659   7.137  18.531  0.00  0.00    +0.000 A 
ATOM     24  C   UNL     1       3.673   6.532  17.780  0.00  0.00    +0.000 A 
ATOM     25  C   UNL     1       4.288   5.359  18.236  0.00  0.00    +0.000 A 
ATOM     26  C   UNL     1       3.819   4.795  19.440  0.00  0.00    +0.000 A 
ATOM     27  C   UNL     1       2.820   5.413  20.211  0.00  0.00    +0.000 A 
BRANCH  25  28
ATOM     28  C   UNL     1       5.525   4.817  17.545  0.00  0.00    +0.000 C 
ATOM     29  N   UNL     1       5.406   3.779  16.759  0.00  0.00    +0.000 NA
ATOM     30  N   UNL     1       6.806   5.312  17.767  0.00  0.00    +0.000 N 
ATOM     31  C   UNL     1       7.129   6.715  17.967  0.00  0.00    +0.000 C 
ATOM     32  C   UNL     1       7.978   4.455  17.587  0.00  0.00    +0.000 C 
ATOM     33  H   UNL     1       4.449   3.431  16.723  0.00  0.00    +0.000 HD
ENDBRANCH  25  28
ENDBRANCH  19  22
ENDBRANCH   4  18
BRANCH   1  35
ATOM     34  C   UNL     1      -2.575  13.229  23.952  0.00  0.00    +0.000 C 
ATOM     35  C   UNL     1      -1.932  12.442  23.326  0.00  0.00    +0.000 C 
ENDBRANCH   1  35
TORSDOF 5
ENDMDL
MODEL 5
REMARK VINA RESULT:      -7.6      1.248      1.671
REMARK  Name = 
REMARK  7 active torsions:
REMARK  status: ('A' for Active; 'I' for Inactive)
REMARK    1  A    between atoms: C_2  and  C_3
REMARK    2  A    between atoms: C_6  and  N_7
REMARK    3  A    between atoms: C_8  and  C_10
REMARK    4  A    between atoms: C_13  and  C_14
REMARK    5  A    between atoms: N_16  and  C_17
REMARK    6  A    between atoms: N_16  and  C_18
REMARK    7  A    between atoms: C_21  and  C_22
REMARK                            x       y       z     vdW  Elec       q    Type
REMARK                         _______ _______ _______ _____ _____    ______ ____
ROOT
ATOM      1  C   UNL     1      -1.825  12.306  22.733  0.00  0.00    +0.000 A 
ATOM      2  C   UNL     1      -1.332  11.203  23.406  0.00  0.00    +0.000 A 
ATOM      3  C   UNL     1      -0.705  10.187  22.694  0.00  0.00    +0.000 A 
ATOM      4  C   UNL     1      -0.618  10.210  21.291  0.00  0.00    +0.000 A 
ATOM      5  C   UNL     1      -1.198  11.310  20.606  0.00  0.00    +0.000 A 
ATOM      6  C   UNL     1      -1.745  12.374  21.344  0.00  0.00    +0.000 A 
ENDROOT
BRANCH   5   7
ATOM      7  C   UNL     1      -1.340  11.306  19.118  0.00  0.00    +0.000 C 
ATOM      8  O   UNL     1      -0.315  11.242  18.444  0.00  0.00    +0.000 OA
ATOM      9  N   UNL     1      -2.645  11.356  18.623  0.00  0.00    +0.000 N 
ATOM     10  C   UNL     1      -3.006  11.084  17.293  0.00  0.00    +0.000 A 
ATOM     11  C   UNL     1      -4.318  11.337  16.893  0.00  0.00    +0.000 A 
ATOM     12  C   UNL     1      -4.704  11.018  15.585  0.00  0.00    +0.000 A 
ATOM     13  C   UNL     1      -3.778  10.432  14.733  0.00  0.00    +0.000 A 
ATOM     14 CL   UNL     1      -4.204   9.989  13.132  0.00  0.00    +0.000 Cl
ATOM     15  C   UNL     1      -2.501  10.211  15.214  0.00  0.00    +0.000 A 
ATOM     16  N   UNL     1      -2.103  10.529  16.465  0.00  0.00    +0.000 NA
ATOM     17  H   UNL     1      -3.420  11.499  19.247  0.00  0.00    +0.000 HD
ENDBRANCH   5   7
BRANCH   4  18
ATOM     18  N   UNL     1       0.058   9.161  20.595  0.00  0.00    +0.000 N 
ATOM     19  C   UNL     1       1.263   8.588  20.984  0.00  0.00    +0.000 C 
ATOM     20  O   UNL     1       1.844   8.820  22.044  0.00  0.00    +0.000 OA
ATOM     21  H   UNL     1      -0.443   8.799  19.783  0.00  0.00    +0.000 HD
BRANCH  19  22
ATOM     22  C   UNL     1       1.920   7.592  20.086  0.00  0.00    +0.000 A 
ATOM     23  C   UNL     1       2.292   8.028  18.798  0.00  0.00    +0.000 A 
ATOM     24  C   UNL     1       3.032   7.214  17.934  0.00  0.00    +0.000 A 
ATOM     25  C   UNL     1       3.410   5.924  18.327  0.00  0.00    +0.000 A 
ATOM     26  C   UNL     1       2.979   5.468  19.590  0.00  0.00    +0.000 A 
ATOM     27  C   UNL     1       2.258   6.292  20.472  0.00  0.00    +0.000 A 
BRANCH  25  28
ATOM     28  C   UNL     1       4.387   5.117  17.493  0.00  0.00    +0.000 C 
ATOM     29  N   UNL     1       3.983   3.998  16.953  0.00  0.00    +0.000 NA
ATOM     30  N   UNL     1       5.727   5.461  17.338  0.00  0.00    +0.000 N 
ATOM     31  C   UNL     1       6.223   6.820  17.206  0.00  0.00    +0.000 C 
ATOM     32  C   UNL     1       6.732   4.433  17.066  0.00  0.00    +0.000 C 
ATOM     33  H   UNL     1       3.016   3.782  17.190  0.00  0.00    +0.000 HD
ENDBRANCH  25  28
ENDBRANCH  19  22
ENDBRANCH   4  18
BRANCH   1  35
ATOM     34  C   UNL     1      -2.977  14.242  24.061  0.00  0.00    +0.000 C 
ATOM     35  C   UNL     1      -2.441  13.366  23.451  0.00  0.00    +0.000 C 
ENDBRANCH   1  35
TORSDOF 5
ENDMDL
MODEL 6
REMARK VINA RESULT:      -7.6      1.435      1.995
REMARK  Name = 
REMARK  7 active torsions:
REMARK  status: ('A' for Active; 'I' for Inactive)
REMARK    1  A    between atoms: C_2  and  C_3
REMARK    2  A    between atoms: C_6  and  N_7
REMARK    3  A    between atoms: C_8  and  C_10
REMARK    4  A    between atoms: C_13  and  C_14
REMARK    5  A    between atoms: N_16  and  C_17
REMARK    6  A    between atoms: N_16  and  C_18
REMARK    7  A    between atoms: C_21  and  C_22
REMARK                            x       y       z     vdW  Elec       q    Type
REMARK                         _______ _______ _______ _____ _____    ______ ____
ROOT
ATOM      1  C   UNL     1      -1.653  11.999  22.541  0.00  0.00    +0.000 A 
ATOM      2  C   UNL     1      -0.939  11.059  23.263  0.00  0.00    +0.000 A 
ATOM      3  C   UNL     1      -0.132  10.147  22.593  0.00  0.00    +0.000 A 
ATOM      4  C   UNL     1      -0.073  10.099  21.189  0.00  0.00    +0.000 A 
ATOM      5  C   UNL     1      -0.873  11.017  20.458  0.00  0.00    +0.000 A 
ATOM      6  C   UNL     1      -1.609  11.995  21.148  0.00  0.00    +0.000 A 
ENDROOT
BRANCH   5   7
ATOM      7  C   UNL     1      -1.034  10.893  18.977  0.00  0.00    +0.000 C 
ATOM      8  O   UNL     1      -0.075  10.483  18.328  0.00  0.00    +0.000 OA
ATOM      9  N   UNL     1      -2.285  11.239  18.462  0.00  0.00    +0.000 N 
ATOM     10  C   UNL     1      -2.727  10.935  17.164  0.00  0.00    +0.000 A 
ATOM     11  C   UNL     1      -3.928  11.488  16.722  0.00  0.00    +0.000 A 
ATOM     12  C   UNL     1      -4.407  11.147  15.450  0.00  0.00    +0.000 A 
ATOM     13  C   UNL     1      -3.687  10.246  14.679  0.00  0.00    +0.000 A 
ATOM     14 CL   UNL     1      -4.242   9.766  13.129  0.00  0.00    +0.000 Cl
ATOM     15  C   UNL     1      -2.510   9.741  15.198  0.00  0.00    +0.000 A 
ATOM     16  N   UNL     1      -2.020  10.072  16.412  0.00  0.00    +0.000 NA
ATOM     17  H   UNL     1      -2.982  11.652  19.056  0.00  0.00    +0.000 HD
ENDBRANCH   5   7
BRANCH   4  18
ATOM     18  N   UNL     1       0.788   9.164  20.536  0.00  0.00    +0.000 N 
ATOM     19  C   UNL     1       0.798   7.793  20.761  0.00  0.00    +0.000 C 
ATOM     20  O   UNL     1      -0.015   7.186  21.457  0.00  0.00    +0.000 OA
ATOM     21  H   UNL     1       1.391   9.571  19.819  0.00  0.00    +0.000 HD
BRANCH  19  22
ATOM     22  C   UNL     1       1.846   6.955  20.104  0.00  0.00    +0.000 A 
ATOM     23  C   UNL     1       2.570   7.537  19.045  0.00  0.00    +0.000 A 
ATOM     24  C   UNL     1       3.660   6.885  18.456  0.00  0.00    +0.000 A 
ATOM     25  C   UNL     1       4.048   5.615  18.900  0.00  0.00    +0.000 A 
ATOM     26  C   UNL     1       3.280   5.009  19.915  0.00  0.00    +0.000 A 
ATOM     27  C   UNL     1       2.202   5.671  20.527  0.00  0.00    +0.000 A 
BRANCH  25  28
ATOM     28  C   UNL     1       5.347   4.994  18.422  0.00  0.00    +0.000 C 
ATOM     29  N   UNL     1       6.352   4.911  19.254  0.00  0.00    +0.000 NA
ATOM     30  N   UNL     1       5.561   4.581  17.110  0.00  0.00    +0.000 N 
ATOM     31  C   UNL     1       4.562   3.944  16.270  0.00  0.00    +0.000 C 
ATOM     32  C   UNL     1       6.911   4.555  16.548  0.00  0.00    +0.000 C 
ATOM     33  H   UNL     1       6.134   5.316  20.163  0.00  0.00    +0.000 HD
ENDBRANCH  25  28
ENDBRANCH  19  22
ENDBRANCH   4  18
BRANCH   1  35
ATOM     34  C   UNL     1      -3.122  13.780  23.768  0.00  0.00    +0.000 C 
ATOM     35  C   UNL     1      -2.457  12.957  23.214  0.00  0.00    +0.000 C 
ENDBRANCH   1  35
TORSDOF 5
ENDMDL
MODEL 7
REMARK VINA RESULT:      -7.5      1.631      1.962
REMARK  Name = 
REMARK  7 active torsions:
REMARK  status: ('A' for Active; 'I' for Inactive)
REMARK    1  A    between atoms: C_2  and  C_3
REMARK    2  A    between atoms: C_6  and  N_7
REMARK    3  A    between atoms: C_8  and  C_10
REMARK    4  A    between atoms: C_13  and  C_14
REMARK    5  A    between atoms: N_16  and  C_17
REMARK    6  A    between atoms: N_16  and  C_18
REMARK    7  A    between atoms: C_21  and  C_22
REMARK                            x       y       z     vdW  Elec       q    Type
REMARK                         _______ _______ _______ _____ _____    ______ ____
ROOT
ATOM      1  C   UNL     1      -1.479  11.608  22.484  0.00  0.00    +0.000 A 
ATOM      2  C   UNL     1      -0.667  10.678  23.110  0.00  0.00    +0.000 A 
ATOM      3  C   UNL     1       0.161   9.865  22.346  0.00  0.00    +0.000 A 
ATOM      4  C   UNL     1       0.148   9.904  20.941  0.00  0.00    +0.000 A 
ATOM      5  C   UNL     1      -0.747  10.806  20.308  0.00  0.00    +0.000 A 
ATOM      6  C   UNL     1      -1.509  11.688  21.093  0.00  0.00    +0.000 A 
ENDROOT
BRANCH   5   7
ATOM      7  C   UNL     1      -0.978  10.758  18.833  0.00  0.00    +0.000 C 
ATOM      8  O   UNL     1      -0.039  10.419  18.115  0.00  0.00    +0.000 OA
ATOM      9  N   UNL     1      -2.264  11.088  18.398  0.00  0.00    +0.000 N 
ATOM     10  C   UNL     1      -2.760  10.839  17.108  0.00  0.00    +0.000 A 
ATOM     11  C   UNL     1      -3.999  11.374  16.756  0.00  0.00    +0.000 A 
ATOM     12  C   UNL     1      -4.529  11.086  15.491  0.00  0.00    +0.000 A 
ATOM     13  C   UNL     1      -3.820  10.256  14.636  0.00  0.00    +0.000 A 
ATOM     14 CL   UNL     1      -4.435   9.842  13.090  0.00  0.00    +0.000 Cl
ATOM     15  C   UNL     1      -2.601   9.765  15.069  0.00  0.00    +0.000 A 
ATOM     16  N   UNL     1      -2.063  10.046  16.275  0.00  0.00    +0.000 NA
ATOM     17  H   UNL     1      -2.944  11.442  19.048  0.00  0.00    +0.000 HD
ENDBRANCH   5   7
BRANCH   4  18
ATOM     18  N   UNL     1       1.034   9.070  20.190  0.00  0.00    +0.000 N 
ATOM     19  C   UNL     1       1.309   7.737  20.470  0.00  0.00    +0.000 C 
ATOM     20  O   UNL     1       0.733   7.063  21.323  0.00  0.00    +0.000 OA
ATOM     21  H   UNL     1       1.434   9.514  19.362  0.00  0.00    +0.000 HD
BRANCH  19  22
ATOM     22  C   UNL     1       2.358   7.028  19.679  0.00  0.00    +0.000 A 
ATOM     23  C   UNL     1       2.718   5.731  20.098  0.00  0.00    +0.000 A 
ATOM     24  C   UNL     1       3.589   4.934  19.347  0.00  0.00    +0.000 A 
ATOM     25  C   UNL     1       4.144   5.419  18.157  0.00  0.00    +0.000 A 
ATOM     26  C   UNL     1       3.833   6.741  17.776  0.00  0.00    +0.000 A 
ATOM     27  C   UNL     1       2.938   7.536  18.513  0.00  0.00    +0.000 A 
BRANCH  25  28
ATOM     28  C   UNL     1       4.913   4.497  17.230  0.00  0.00    +0.000 C 
ATOM     29  N   UNL     1       4.926   3.214  17.482  0.00  0.00    +0.000 NA
ATOM     30  N   UNL     1       5.686   4.951  16.165  0.00  0.00    +0.000 N 
ATOM     31  C   UNL     1       5.332   6.065  15.302  0.00  0.00    +0.000 C 
ATOM     32  C   UNL     1       6.830   4.173  15.689  0.00  0.00    +0.000 C 
ATOM     33  H   UNL     1       4.407   2.983  18.328  0.00  0.00    +0.000 HD
ENDBRANCH  25  28
ENDBRANCH  19  22
ENDBRANCH   4  18
BRANCH   1  35
ATOM     34  C   UNL     1      -2.985  13.199  23.911  0.00  0.00    +0.000 C 
ATOM     35  C   UNL     1      -2.308  12.467  23.253  0.00  0.00    +0.000 C 
ENDBRANCH   1  35
TORSDOF 5
ENDMDL
MODEL 8
REMARK VINA RESULT:      -7.5      1.619      2.455
REMARK  Name = 
REMARK  7 active torsions:
REMARK  status: ('A' for Active; 'I' for Inactive)
REMARK    1  A    between atoms: C_2  and  C_3
REMARK    2  A    between atoms: C_6  and  N_7
REMARK    3  A    between atoms: C_8  and  C_10
REMARK    4  A    between atoms: C_13  and  C_14
REMARK    5  A    between atoms: N_16  and  C_17
REMARK    6  A    between atoms: N_16  and  C_18
REMARK    7  A    between atoms: C_21  and  C_22
REMARK                            x       y       z     vdW  Elec       q    Type
REMARK                         _______ _______ _______ _____ _____    ______ ____
ROOT
ATOM      1  C   UNL     1      -2.509  14.817  22.823  0.00  0.00    +0.000 A 
ATOM      2  C   UNL     1      -1.528  14.163  23.547  0.00  0.00    +0.000 A 
ATOM      3  C   UNL     1      -0.980  12.986  23.053  0.00  0.00    +0.000 A 
ATOM      4  C   UNL     1      -1.443  12.392  21.866  0.00  0.00    +0.000 A 
ATOM      5  C   UNL     1      -2.505  13.030  21.174  0.00  0.00    +0.000 A 
ATOM      6  C   UNL     1      -2.985  14.268  21.633  0.00  0.00    +0.000 A 
ENDROOT
BRANCH   5   7
ATOM      7  C   UNL     1      -3.198  12.358  20.032  0.00  0.00    +0.000 C 
ATOM      8  O   UNL     1      -4.415  12.501  19.935  0.00  0.00    +0.000 OA
ATOM      9  N   UNL     1      -2.385  11.636  19.156  0.00  0.00    +0.000 N 
ATOM     10  C   UNL     1      -2.784  11.174  17.892  0.00  0.00    +0.000 A 
ATOM     11  C   UNL     1      -1.932  10.320  17.193  0.00  0.00    +0.000 A 
ATOM     12  C   UNL     1      -2.295   9.897  15.908  0.00  0.00    +0.000 A 
ATOM     13  C   UNL     1      -3.479  10.363  15.355  0.00  0.00    +0.000 A 
ATOM     14 CL   UNL     1      -3.958   9.907  13.773  0.00  0.00    +0.000 Cl
ATOM     15  C   UNL     1      -4.262  11.212  16.115  0.00  0.00    +0.000 A 
ATOM     16  N   UNL     1      -3.940  11.615  17.363  0.00  0.00    +0.000 NA
ATOM     17  H   UNL     1      -1.411  11.497  19.364  0.00  0.00    +0.000 HD
ENDBRANCH   5   7
BRANCH   4  18
ATOM     18  N   UNL     1      -0.836  11.194  21.376  0.00  0.00    +0.000 N 
ATOM     19  C   UNL     1       0.492  11.072  20.986  0.00  0.00    +0.000 C 
ATOM     20  O   UNL     1       1.352  11.940  21.129  0.00  0.00    +0.000 OA
ATOM     21  H   UNL     1      -1.448  10.377  21.377  0.00  0.00    +0.000 HD
BRANCH  19  22
ATOM     22  C   UNL     1       0.955   9.794  20.367  0.00  0.00    +0.000 A 
ATOM     23  C   UNL     1       1.221   9.805  18.983  0.00  0.00    +0.000 A 
ATOM     24  C   UNL     1       1.786   8.699  18.336  0.00  0.00    +0.000 A 
ATOM     25  C   UNL     1       2.087   7.537  19.056  0.00  0.00    +0.000 A 
ATOM     26  C   UNL     1       1.758   7.507  20.427  0.00  0.00    +0.000 A 
ATOM     27  C   UNL     1       1.215   8.623  21.086  0.00  0.00    +0.000 A 
BRANCH  25  28
ATOM     28  C   UNL     1       2.890   6.420  18.418  0.00  0.00    +0.000 C 
ATOM     29  N   UNL     1       3.997   6.715  17.790  0.00  0.00    +0.000 NA
ATOM     30  N   UNL     1       2.468   5.093  18.387  0.00  0.00    +0.000 N 
ATOM     31  C   UNL     1       1.772   4.421  19.471  0.00  0.00    +0.000 C 
ATOM     32  C   UNL     1       2.908   4.195  17.319  0.00  0.00    +0.000 C 
ATOM     33  H   UNL     1       4.182   7.717  17.788  0.00  0.00    +0.000 HD
ENDBRANCH  25  28
ENDBRANCH  19  22
ENDBRANCH   4  18
BRANCH   1  35
ATOM     34  C   UNL     1      -3.519  17.054  23.723  0.00  0.00    +0.000 C 
ATOM     35  C   UNL     1      -3.057  16.037  23.300  0.00  0.00    +0.000 C 
ENDBRANCH   1  35
TORSDOF 5
ENDMDL
MODEL 9
REMARK VINA RESULT:      -7.4      4.406      5.609
REMARK  Name = 
REMARK  7 active torsions:
REMARK  status: ('A' for Active; 'I' for Inactive)
REMARK    1  A    between atoms: C_2  and  C_3
REMARK    2  A    between atoms: C_6  and  N_7
REMARK    3  A    between atoms: C_8  and  C_10
REMARK    4  A    between atoms: C_13  and  C_14
REMARK    5  A    between atoms: N_16  and  C_17
REMARK    6  A    between atoms: N_16  and  C_18
REMARK    7  A    between atoms: C_21  and  C_22
REMARK                            x       y       z     vdW  Elec       q    Type
REMARK                         _______ _______ _______ _____ _____    ______ ____
ROOT
ATOM      1  C   UNL     1      -1.349  13.309  22.969  0.00  0.00    +0.000 A 
ATOM      2  C   UNL     1      -1.740  11.982  22.977  0.00  0.00    +0.000 A 
ATOM      3  C   UNL     1      -0.966  11.034  22.319  0.00  0.00    +0.000 A 
ATOM      4  C   UNL     1       0.172  11.392  21.576  0.00  0.00    +0.000 A 
ATOM      5  C   UNL     1       0.518  12.768  21.509  0.00  0.00    +0.000 A 
ATOM      6  C   UNL     1      -0.217  13.703  22.257  0.00  0.00    +0.000 A 
ENDROOT
BRANCH   5   7
ATOM      7  C   UNL     1       1.576  13.254  20.573  0.00  0.00    +0.000 C 
ATOM      8  O   UNL     1       1.328  13.240  19.369  0.00  0.00    +0.000 OA
ATOM      9  N   UNL     1       2.761  13.705  21.161  0.00  0.00    +0.000 N 
ATOM     10  C   UNL     1       3.750  14.448  20.497  0.00  0.00    +0.000 A 
ATOM     11  C   UNL     1       4.958  14.686  21.152  0.00  0.00    +0.000 A 
ATOM     12  C   UNL     1       5.931  15.472  20.521  0.00  0.00    +0.000 A 
ATOM     13  C   UNL     1       5.653  16.016  19.276  0.00  0.00    +0.000 A 
ATOM     14 CL   UNL     1       6.793  17.015  18.472  0.00  0.00    +0.000 Cl
ATOM     15  C   UNL     1       4.428  15.734  18.701  0.00  0.00    +0.000 A 
ATOM     16  N   UNL     1       3.485  14.963  19.282  0.00  0.00    +0.000 NA
ATOM     17  H   UNL     1       2.912  13.594  22.148  0.00  0.00    +0.000 HD
ENDBRANCH   5   7
BRANCH   4  18
ATOM     18  N   UNL     1       0.958  10.386  20.933  0.00  0.00    +0.000 N 
ATOM     19  C   UNL     1       0.673   9.814  19.699  0.00  0.00    +0.000 C 
ATOM     20  O   UNL     1      -0.221  10.184  18.940  0.00  0.00    +0.000 OA
ATOM     21  H   UNL     1       1.814  10.134  21.430  0.00  0.00    +0.000 HD
BRANCH  19  22
ATOM     22  C   UNL     1       1.510   8.677  19.213  0.00  0.00    +0.000 A 
ATOM     23  C   UNL     1       2.009   8.758  17.897  0.00  0.00    +0.000 A 
ATOM     24  C   UNL     1       2.911   7.812  17.396  0.00  0.00    +0.000 A 
ATOM     25  C   UNL     1       3.329   6.741  18.194  0.00  0.00    +0.000 A 
ATOM     26  C   UNL     1       2.776   6.628  19.486  0.00  0.00    +0.000 A 
ATOM     27  C   UNL     1       1.891   7.589  20.003  0.00  0.00    +0.000 A 
BRANCH  25  28
ATOM     28  C   UNL     1       4.460   5.837  17.743  0.00  0.00    +0.000 C 
ATOM     29  N   UNL     1       5.694   6.211  17.959  0.00  0.00    +0.000 NA
ATOM     30  N   UNL     1       4.261   4.660  17.027  0.00  0.00    +0.000 N 
ATOM     31  C   UNL     1       3.166   3.732  17.249  0.00  0.00    +0.000 C 
ATOM     32  C   UNL     1       5.297   4.150  16.128  0.00  0.00    +0.000 C 
ATOM     33  H   UNL     1       5.746   7.124  18.409  0.00  0.00    +0.000 HD
ENDBRANCH  25  28
ENDBRANCH  19  22
ENDBRANCH   4  18
BRANCH   1  35
ATOM     34  C   UNL     1      -2.769  15.086  24.259  0.00  0.00    +0.000 C 
ATOM     35  C   UNL     1      -2.113  14.284  23.664  0.00  0.00    +0.000 C 
ENDBRANCH   1  35
TORSDOF 5
ENDMDL
