MODEL 1
REMARK VINA RESULT:      -8.3      0.000      0.000
REMARK  Name = 
REMARK  12 active torsions:
REMARK  status: ('A' for Active; 'I' for Inactive)
REMARK    1  A    between atoms: C_1  and  C_2
REMARK    2  A    between atoms: C_3  and  C_4
REMARK    3  A    between atoms: C_5  and  C_6
REMARK    4  A    between atoms: C_5  and  C_8
REMARK    5  A    between atoms: N_10  and  C_11
REMARK    6  A    between atoms: C_11  and  C_12
REMARK    7  A    between atoms: N_24  and  C_25
REMARK    8  A    between atoms: C_25  and  C_26
REMARK    9  A    between atoms: C_26  and  C_27
REMARK   10  A    between atoms: C_27  and  N_28
REMARK   11  A    between atoms: N_28  and  C_29
REMARK   12  A    between atoms: N_28  and  C_30
REMARK                            x       y       z     vdW  Elec       q    Type
REMARK                         _______ _______ _______ _____ _____    ______ ____
ROOT
ATOM      1  C   UNL     1       6.152   7.305  17.203  0.00  0.00    +0.000 C 
ATOM      2  C   UNL     1       5.042   6.336  17.457  0.00  0.00    +0.000 A 
ATOM      3  C   UNL     1       3.684   6.504  17.705  0.00  0.00    +0.000 A 
ATOM      4  C   UNL     1       3.098   5.191  17.755  0.00  0.00    +0.000 A 
ATOM      5  C   UNL     1       1.773   4.703  17.904  0.00  0.00    +0.000 A 
ATOM      6  C   UNL     1       1.526   3.323  17.894  0.00  0.00    +0.000 A 
ATOM      7  C   UNL     1       2.571   2.421  17.750  0.00  0.00    +0.000 A 
ATOM      8  C   UNL     1       3.885   2.870  17.608  0.00  0.00    +0.000 A 
ATOM      9  C   UNL     1       4.123   4.257  17.598  0.00  0.00    +0.000 A 
ATOM     10  N   UNL     1       5.295   4.973  17.442  0.00  0.00    +0.000 N 
ENDROOT
BRANCH   3  11
ATOM     11  C   UNL     1       2.929   7.734  17.777  0.00  0.00    +0.000 C 
ATOM     12  C   UNL     1       2.170   8.250  18.768  0.00  0.00    +0.000 C 
BRANCH  12  13
ATOM     13  C   UNL     1       1.570   9.619  18.577  0.00  0.00    +0.000 C 
ATOM     14  O   UNL     1       2.115  10.477  17.888  0.00  0.00    +0.000 OA
ATOM     15  N   UNL     1       0.377   9.827  19.240  0.00  0.00    +0.000 N 
ATOM     16  H   UNL     1      -0.002   9.116  19.851  0.00  0.00    +0.000 HD
BRANCH  15  17
ATOM     17  C   UNL     1      -0.375  11.064  19.197  0.00  0.00    +0.000 C 
BRANCH  17  18
ATOM     18  C   UNL     1      -1.619  10.891  18.360  0.00  0.00    +0.000 A 
ATOM     19  C   UNL     1      -1.627   9.998  17.279  0.00  0.00    +0.000 A 
ATOM     20  C   UNL     1      -2.756   9.876  16.468  0.00  0.00    +0.000 A 
ATOM     21  C   UNL     1      -3.888  10.648  16.721  0.00  0.00    +0.000 A 
ATOM     22  C   UNL     1      -3.896  11.537  17.795  0.00  0.00    +0.000 A 
ATOM     23  C   UNL     1      -2.768  11.660  18.610  0.00  0.00    +0.000 A 
ENDBRANCH  17  18
ENDBRANCH  15  17
ENDBRANCH  12  13
BRANCH  12  24
ATOM     24  C   UNL     1       1.899   7.589  19.995  0.00  0.00    +0.000 C 
ATOM     25  N   UNL     1       1.617   6.949  20.923  0.00  0.00    +0.000 NA
ENDBRANCH  12  24
ENDBRANCH   3  11
BRANCH  10  26
ATOM     26  C   UNL     1       6.607   4.359  17.249  0.00  0.00    +0.000 C 
BRANCH  26  27
ATOM     27  C   UNL     1       7.117   4.551  15.823  0.00  0.00    +0.000 C 
BRANCH  27  28
ATOM     28  C   UNL     1       6.075   4.080  14.793  0.00  0.00    +0.000 C 
BRANCH  28  29
ATOM     29  N   UNL     1       6.665   3.789  13.476  0.00  0.00    +0.000 NA
ATOM     30  C   UNL     1       5.659   3.392  12.491  0.00  0.00    +0.000 C 
ATOM     31  C   UNL     1       7.404   4.955  12.982  0.00  0.00    +0.000 C 
ENDBRANCH  28  29
ENDBRANCH  27  28
ENDBRANCH  26  27
ENDBRANCH  10  26
TORSDOF 9
ENDMDL
MODEL 2
REMARK VINA RESULT:      -8.1      3.191      8.603
REMARK  Name = 
REMARK  12 active torsions:
REMARK  status: ('A' for Active; 'I' for Inactive)
REMARK    1  A    between atoms: C_1  and  C_2
REMARK    2  A    between atoms: C_3  and  C_4
REMARK    3  A    between atoms: C_5  and  C_6
REMARK    4  A    between atoms: C_5  and  C_8
REMARK    5  A    between atoms: N_10  and  C_11
REMARK    6  A    between atoms: C_11  and  C_12
REMARK    7  A    between atoms: N_24  and  C_25
REMARK    8  A    between atoms: C_25  and  C_26
REMARK    9  A    between atoms: C_26  and  C_27
REMARK   10  A    between atoms: C_27  and  N_28
REMARK   11  A    between atoms: N_28  and  C_29
REMARK   12  A    between atoms: N_28  and  C_30
REMARK                            x       y       z     vdW  Elec       q    Type
REMARK                         _______ _______ _______ _____ _____    ______ ____
ROOT
ATOM      1  C   UNL     1       3.137   8.115  17.749  0.00  0.00    +0.000 C 
ATOM      2  C   UNL     1       3.040   6.773  18.400  0.00  0.00    +0.000 A 
ATOM      3  C   UNL     1       3.753   5.591  18.232  0.00  0.00    +0.000 A 
ATOM      4  C   UNL     1       3.280   4.666  19.228  0.00  0.00    +0.000 A 
ATOM      5  C   UNL     1       3.647   3.349  19.610  0.00  0.00    +0.000 A 
ATOM      6  C   UNL     1       2.980   2.711  20.666  0.00  0.00    +0.000 A 
ATOM      7  C   UNL     1       1.950   3.353  21.339  0.00  0.00    +0.000 A 
ATOM      8  C   UNL     1       1.562   4.645  20.981  0.00  0.00    +0.000 A 
ATOM      9  C   UNL     1       2.249   5.287  19.935  0.00  0.00    +0.000 A 
ATOM     10  N   UNL     1       2.106   6.554  19.401  0.00  0.00    +0.000 N 
ENDROOT
BRANCH   3  11
ATOM     11  C   UNL     1       4.856   5.327  17.337  0.00  0.00    +0.000 C 
ATOM     12  C   UNL     1       6.179   5.198  17.577  0.00  0.00    +0.000 C 
BRANCH  12  13
ATOM     13  C   UNL     1       7.085   4.828  16.432  0.00  0.00    +0.000 C 
ATOM     14  O   UNL     1       8.135   4.216  16.605  0.00  0.00    +0.000 OA
ATOM     15  N   UNL     1       6.646   5.238  15.189  0.00  0.00    +0.000 N 
ATOM     16  H   UNL     1       5.810   5.799  15.098  0.00  0.00    +0.000 HD
BRANCH  15  17
ATOM     17  C   UNL     1       7.355   4.991  13.950  0.00  0.00    +0.000 C 
BRANCH  17  18
ATOM     18  C   UNL     1       6.548   4.081  13.057  0.00  0.00    +0.000 A 
ATOM     19  C   UNL     1       7.191   3.198  12.178  0.00  0.00    +0.000 A 
ATOM     20  C   UNL     1       6.449   2.394  11.311  0.00  0.00    +0.000 A 
ATOM     21  C   UNL     1       5.057   2.467  11.306  0.00  0.00    +0.000 A 
ATOM     22  C   UNL     1       4.405   3.337  12.177  0.00  0.00    +0.000 A 
ATOM     23  C   UNL     1       5.145   4.141  13.048  0.00  0.00    +0.000 A 
ENDBRANCH  17  18
ENDBRANCH  15  17
ENDBRANCH  12  13
BRANCH  12  24
ATOM     24  C   UNL     1       6.784   5.382  18.848  0.00  0.00    +0.000 C 
ATOM     25  N   UNL     1       7.185   5.444  19.938  0.00  0.00    +0.000 NA
ENDBRANCH  12  24
ENDBRANCH   3  11
BRANCH  10  26
ATOM     26  C   UNL     1       1.124   7.530  19.869  0.00  0.00    +0.000 C 
BRANCH  26  27
ATOM     27  C   UNL     1       1.573   8.209  21.161  0.00  0.00    +0.000 C 
BRANCH  27  28
ATOM     28  C   UNL     1       0.374   8.802  21.921  0.00  0.00    +0.000 C 
BRANCH  28  29
ATOM     29  N   UNL     1       0.537  10.235  22.217  0.00  0.00    +0.000 NA
ATOM     30  C   UNL     1       0.742  11.033  21.007  0.00  0.00    +0.000 C 
ATOM     31  C   UNL     1      -0.631  10.739  22.947  0.00  0.00    +0.000 C 
ENDBRANCH  28  29
ENDBRANCH  27  28
ENDBRANCH  26  27
ENDBRANCH  10  26
TORSDOF 9
ENDMDL
MODEL 3
REMARK VINA RESULT:      -8.1      1.838      4.161
REMARK  Name = 
REMARK  12 active torsions:
REMARK  status: ('A' for Active; 'I' for Inactive)
REMARK    1  A    between atoms: C_1  and  C_2
REMARK    2  A    between atoms: C_3  and  C_4
REMARK    3  A    between atoms: C_5  and  C_6
REMARK    4  A    between atoms: C_5  and  C_8
REMARK    5  A    between atoms: N_10  and  C_11
REMARK    6  A    between atoms: C_11  and  C_12
REMARK    7  A    between atoms: N_24  and  C_25
REMARK    8  A    between atoms: C_25  and  C_26
REMARK    9  A    between atoms: C_26  and  C_27
REMARK   10  A    between atoms: C_27  and  N_28
REMARK   11  A    between atoms: N_28  and  C_29
REMARK   12  A    between atoms: N_28  and  C_30
REMARK                            x       y       z     vdW  Elec       q    Type
REMARK                         _______ _______ _______ _____ _____    ______ ____
ROOT
ATOM      1  C   UNL     1       1.626   4.616  17.651  0.00  0.00    +0.000 C 
ATOM      2  C   UNL     1       3.038   5.104  17.611  0.00  0.00    +0.000 A 
ATOM      3  C   UNL     1       3.592   6.379  17.576  0.00  0.00    +0.000 A 
ATOM      4  C   UNL     1       5.020   6.221  17.667  0.00  0.00    +0.000 A 
ATOM      5  C   UNL     1       6.113   7.124  17.747  0.00  0.00    +0.000 A 
ATOM      6  C   UNL     1       7.424   6.636  17.844  0.00  0.00    +0.000 A 
ATOM      7  C   UNL     1       7.667   5.269  17.851  0.00  0.00    +0.000 A 
ATOM      8  C   UNL     1       6.614   4.357  17.767  0.00  0.00    +0.000 A 
ATOM      9  C   UNL     1       5.300   4.854  17.690  0.00  0.00    +0.000 A 
ATOM     10  N   UNL     1       4.085   4.197  17.633  0.00  0.00    +0.000 N 
ENDROOT
BRANCH   3  11
ATOM     11  C   UNL     1       2.914   7.655  17.583  0.00  0.00    +0.000 C 
ATOM     12  C   UNL     1       2.190   8.267  18.545  0.00  0.00    +0.000 C 
BRANCH  12  13
ATOM     13  C   UNL     1       1.674   9.658  18.282  0.00  0.00    +0.000 C 
ATOM     14  O   UNL     1       2.250  10.432  17.523  0.00  0.00    +0.000 OA
ATOM     15  N   UNL     1       0.520   9.987  18.965  0.00  0.00    +0.000 N 
ATOM     16  H   UNL     1       0.116   9.344  19.632  0.00  0.00    +0.000 HD
BRANCH  15  17
ATOM     17  C   UNL     1      -0.151  11.267  18.864  0.00  0.00    +0.000 C 
BRANCH  17  18
ATOM     18  C   UNL     1      -1.551  11.083  18.330  0.00  0.00    +0.000 A 
ATOM     19  C   UNL     1      -2.611  11.841  18.846  0.00  0.00    +0.000 A 
ATOM     20  C   UNL     1      -3.916  11.635  18.396  0.00  0.00    +0.000 A 
ATOM     21  C   UNL     1      -4.180  10.666  17.431  0.00  0.00    +0.000 A 
ATOM     22  C   UNL     1      -3.134   9.907  16.906  0.00  0.00    +0.000 A 
ATOM     23  C   UNL     1      -1.827  10.112  17.353  0.00  0.00    +0.000 A 
ENDBRANCH  17  18
ENDBRANCH  15  17
ENDBRANCH  12  13
BRANCH  12  24
ATOM     24  C   UNL     1       1.880   7.688  19.804  0.00  0.00    +0.000 C 
ATOM     25  N   UNL     1       1.620   7.344  20.883  0.00  0.00    +0.000 NA
ENDBRANCH  12  24
ENDBRANCH   3  11
BRANCH  10  26
ATOM     26  C   UNL     1       3.944   2.743  17.636  0.00  0.00    +0.000 C 
BRANCH  26  27
ATOM     27  C   UNL     1       3.887   2.183  19.055  0.00  0.00    +0.000 C 
BRANCH  27  28
ATOM     28  C   UNL     1       2.446   1.819  19.450  0.00  0.00    +0.000 C 
BRANCH  28  29
ATOM     29  N   UNL     1       1.991   2.519  20.663  0.00  0.00    +0.000 NA
ATOM     30  C   UNL     1       2.909   3.586  21.066  0.00  0.00    +0.000 C 
ATOM     31  C   UNL     1       0.650   3.075  20.456  0.00  0.00    +0.000 C 
ENDBRANCH  28  29
ENDBRANCH  27  28
ENDBRANCH  26  27
ENDBRANCH  10  26
TORSDOF 9
ENDMDL
MODEL 4
REMARK VINA RESULT:      -7.9      3.290      9.999
REMARK  Name = 
REMARK  12 active torsions:
REMARK  status: ('A' for Active; 'I' for Inactive)
REMARK    1  A    between atoms: C_1  and  C_2
REMARK    2  A    between atoms: C_3  and  C_4
REMARK    3  A    between atoms: C_5  and  C_6
REMARK    4  A    between atoms: C_5  and  C_8
REMARK    5  A    between atoms: N_10  and  C_11
REMARK    6  A    between atoms: C_11  and  C_12
REMARK    7  A    between atoms: N_24  and  C_25
REMARK    8  A    between atoms: C_25  and  C_26
REMARK    9  A    between atoms: C_26  and  C_27
REMARK   10  A    between atoms: C_27  and  N_28
REMARK   11  A    between atoms: N_28  and  C_29
REMARK   12  A    between atoms: N_28  and  C_30
REMARK                            x       y       z     vdW  Elec       q    Type
REMARK                         _______ _______ _______ _____ _____    ______ ____
ROOT
ATOM      1  C   UNL     1       0.045  11.583  21.090  0.00  0.00    +0.000 C 
ATOM      2  C   UNL     1      -0.858  11.336  19.926  0.00  0.00    +0.000 A 
ATOM      3  C   UNL     1      -0.771  10.482  18.831  0.00  0.00    +0.000 A 
ATOM      4  C   UNL     1      -2.006  10.603  18.102  0.00  0.00    +0.000 A 
ATOM      5  C   UNL     1      -2.547   9.961  16.957  0.00  0.00    +0.000 A 
ATOM      6  C   UNL     1      -3.825  10.306  16.494  0.00  0.00    +0.000 A 
ATOM      7  C   UNL     1      -4.568  11.283  17.141  0.00  0.00    +0.000 A 
ATOM      8  C   UNL     1      -4.060  11.937  18.264  0.00  0.00    +0.000 A 
ATOM      9  C   UNL     1      -2.786  11.572  18.735  0.00  0.00    +0.000 A 
ATOM     10  N   UNL     1      -2.061  12.018  19.825  0.00  0.00    +0.000 N 
ENDROOT
BRANCH   3  11
ATOM     11  C   UNL     1       0.273   9.538  18.509  0.00  0.00    +0.000 C 
ATOM     12  C   UNL     1       1.570   9.729  18.183  0.00  0.00    +0.000 C 
BRANCH  12  13
ATOM     13  C   UNL     1       2.448   8.520  17.986  0.00  0.00    +0.000 C 
ATOM     14  O   UNL     1       3.074   8.334  16.947  0.00  0.00    +0.000 OA
ATOM     15  N   UNL     1       2.481   7.647  19.055  0.00  0.00    +0.000 N 
ATOM     16  H   UNL     1       1.898   7.804  19.866  0.00  0.00    +0.000 HD
BRANCH  15  17
ATOM     17  C   UNL     1       3.257   6.424  19.086  0.00  0.00    +0.000 C 
BRANCH  17  18
ATOM     18  C   UNL     1       2.346   5.230  19.238  0.00  0.00    +0.000 A 
ATOM     19  C   UNL     1       1.861   4.866  20.502  0.00  0.00    +0.000 A 
ATOM     20  C   UNL     1       1.064   3.730  20.656  0.00  0.00    +0.000 A 
ATOM     21  C   UNL     1       0.746   2.942  19.552  0.00  0.00    +0.000 A 
ATOM     22  C   UNL     1       1.218   3.295  18.289  0.00  0.00    +0.000 A 
ATOM     23  C   UNL     1       2.015   4.432  18.131  0.00  0.00    +0.000 A 
ENDBRANCH  17  18
ENDBRANCH  15  17
ENDBRANCH  12  13
BRANCH  12  24
ATOM     24  C   UNL     1       2.174  11.003  18.017  0.00  0.00    +0.000 C 
ATOM     25  N   UNL     1       2.592  12.087  17.989  0.00  0.00    +0.000 NA
ENDBRANCH  12  24
ENDBRANCH   3  11
BRANCH  10  26
ATOM     26  C   UNL     1      -2.533  13.041  20.755  0.00  0.00    +0.000 C 
BRANCH  26  27
ATOM     27  C   UNL     1      -3.336  12.436  21.903  0.00  0.00    +0.000 C 
BRANCH  27  28
ATOM     28  C   UNL     1      -4.647  13.209  22.131  0.00  0.00    +0.000 C 
BRANCH  28  29
ATOM     29  N   UNL     1      -5.806  12.323  22.328  0.00  0.00    +0.000 NA
ATOM     30  C   UNL     1      -6.673  12.775  23.417  0.00  0.00    +0.000 C 
ATOM     31  C   UNL     1      -6.583  12.220  21.089  0.00  0.00    +0.000 C 
ENDBRANCH  28  29
ENDBRANCH  27  28
ENDBRANCH  26  27
ENDBRANCH  10  26
TORSDOF 9
ENDMDL
MODEL 5
REMARK VINA RESULT:      -7.9      1.385      2.257
REMARK  Name = 
REMARK  12 active torsions:
REMARK  status: ('A' for Active; 'I' for Inactive)
REMARK    1  A    between atoms: C_1  and  C_2
REMARK    2  A    between atoms: C_3  and  C_4
REMARK    3  A    between atoms: C_5  and  C_6
REMARK    4  A    between atoms: C_5  and  C_8
REMARK    5  A    between atoms: N_10  and  C_11
REMARK    6  A    between atoms: C_11  and  C_12
REMARK    7  A    between atoms: N_24  and  C_25
REMARK    8  A    between atoms: C_25  and  C_26
REMARK    9  A    between atoms: C_26  and  C_27
REMARK   10  A    between atoms: C_27  and  N_28
REMARK   11  A    between atoms: N_28  and  C_29
REMARK   12  A    between atoms: N_28  and  C_30
REMARK                            x       y       z     vdW  Elec       q    Type
REMARK                         _______ _______ _______ _____ _____    ______ ____
ROOT
ATOM      1  C   UNL     1       6.134   7.320  17.304  0.00  0.00    +0.000 C 
ATOM      2  C   UNL     1       5.031   6.339  17.535  0.00  0.00    +0.000 A 
ATOM      3  C   UNL     1       3.665   6.490  17.754  0.00  0.00    +0.000 A 
ATOM      4  C   UNL     1       3.094   5.170  17.791  0.00  0.00    +0.000 A 
ATOM      5  C   UNL     1       1.773   4.666  17.913  0.00  0.00    +0.000 A 
ATOM      6  C   UNL     1       1.542   3.283  17.898  0.00  0.00    +0.000 A 
ATOM      7  C   UNL     1       2.601   2.394  17.777  0.00  0.00    +0.000 A 
ATOM      8  C   UNL     1       3.913   2.859  17.662  0.00  0.00    +0.000 A 
ATOM      9  C   UNL     1       4.134   4.248  17.657  0.00  0.00    +0.000 A 
ATOM     10  N   UNL     1       5.300   4.979  17.526  0.00  0.00    +0.000 N 
ENDROOT
BRANCH   3  11
ATOM     11  C   UNL     1       2.895   7.711  17.809  0.00  0.00    +0.000 C 
ATOM     12  C   UNL     1       2.132   8.233  18.794  0.00  0.00    +0.000 C 
BRANCH  12  13
ATOM     13  C   UNL     1       1.514   9.590  18.583  0.00  0.00    +0.000 C 
ATOM     14  O   UNL     1       2.077  10.469  17.938  0.00  0.00    +0.000 OA
ATOM     15  N   UNL     1       0.279   9.763  19.178  0.00  0.00    +0.000 N 
ATOM     16  H   UNL     1      -0.119   9.037  19.757  0.00  0.00    +0.000 HD
BRANCH  15  17
ATOM     17  C   UNL     1      -0.498  10.984  19.105  0.00  0.00    +0.000 C 
BRANCH  17  18
ATOM     18  C   UNL     1      -1.017  11.355  20.473  0.00  0.00    +0.000 A 
ATOM     19  C   UNL     1      -0.471  10.766  21.622  0.00  0.00    +0.000 A 
ATOM     20  C   UNL     1      -0.985  11.064  22.885  0.00  0.00    +0.000 A 
ATOM     21  C   UNL     1      -2.054  11.948  23.016  0.00  0.00    +0.000 A 
ATOM     22  C   UNL     1      -2.605  12.544  21.882  0.00  0.00    +0.000 A 
ATOM     23  C   UNL     1      -2.091  12.249  20.617  0.00  0.00    +0.000 A 
ENDBRANCH  17  18
ENDBRANCH  15  17
ENDBRANCH  12  13
BRANCH  12  24
ATOM     24  C   UNL     1       1.874   7.588  20.033  0.00  0.00    +0.000 C 
ATOM     25  N   UNL     1       1.629   6.949  20.972  0.00  0.00    +0.000 NA
ENDBRANCH  12  24
ENDBRANCH   3  11
BRANCH  10  26
ATOM     26  C   UNL     1       6.623   4.381  17.361  0.00  0.00    +0.000 C 
BRANCH  26  27
ATOM     27  C   UNL     1       7.136   4.527  15.930  0.00  0.00    +0.000 C 
BRANCH  27  28
ATOM     28  C   UNL     1       6.207   3.815  14.932  0.00  0.00    +0.000 C 
BRANCH  28  29
ATOM     29  N   UNL     1       6.269   4.394  13.580  0.00  0.00    +0.000 NA
ATOM     30  C   UNL     1       7.581   4.968  13.280  0.00  0.00    +0.000 C 
ATOM     31  C   UNL     1       5.934   3.378  12.577  0.00  0.00    +0.000 C 
ENDBRANCH  28  29
ENDBRANCH  27  28
ENDBRANCH  26  27
ENDBRANCH  10  26
TORSDOF 9
ENDMDL
MODEL 6
REMARK VINA RESULT:      -7.6      2.633     10.046
REMARK  Name = 
REMARK  12 active torsions:
REMARK  status: ('A' for Active; 'I' for Inactive)
REMARK    1  A    between atoms: C_1  and  C_2
REMARK    2  A    between atoms: C_3  and  C_4
REMARK    3  A    between atoms: C_5  and  C_6
REMARK    4  A    between atoms: C_5  and  C_8
REMARK    5  A    between atoms: N_10  and  C_11
REMARK    6  A    between atoms: C_11  and  C_12
REMARK    7  A    between atoms: N_24  and  C_25
REMARK    8  A    between atoms: C_25  and  C_26
REMARK    9  A    between atoms: C_26  and  C_27
REMARK   10  A    between atoms: C_27  and  N_28
REMARK   11  A    between atoms: N_28  and  C_29
REMARK   12  A    between atoms: N_28  and  C_30
REMARK                            x       y       z     vdW  Elec       q    Type
REMARK                         _______ _______ _______ _____ _____    ______ ____
ROOT
ATOM      1  C   UNL     1       0.704  12.092  20.849  0.00  0.00    +0.000 C 
ATOM      2  C   UNL     1      -0.333  11.674  19.858  0.00  0.00    +0.000 A 
ATOM      3  C   UNL     1      -0.319  10.757  18.812  0.00  0.00    +0.000 A 
ATOM      4  C   UNL     1      -1.656  10.702  18.282  0.00  0.00    +0.000 A 
ATOM      5  C   UNL     1      -2.291   9.928  17.274  0.00  0.00    +0.000 A 
ATOM      6  C   UNL     1      -3.654  10.109  17.001  0.00  0.00    +0.000 A 
ATOM      7  C   UNL     1      -4.393  11.052  17.703  0.00  0.00    +0.000 A 
ATOM      8  C   UNL     1      -3.796  11.832  18.694  0.00  0.00    +0.000 A 
ATOM      9  C   UNL     1      -2.432  11.630  18.977  0.00  0.00    +0.000 A 
ATOM     10  N   UNL     1      -1.604  12.223  19.911  0.00  0.00    +0.000 N 
ENDROOT
BRANCH   3  11
ATOM     11  C   UNL     1       0.761   9.901  18.381  0.00  0.00    +0.000 C 
ATOM     12  C   UNL     1       1.444   8.938  19.039  0.00  0.00    +0.000 C 
BRANCH  12  13
ATOM     13  C   UNL     1       2.475   8.142  18.283  0.00  0.00    +0.000 C 
ATOM     14  O   UNL     1       2.900   8.502  17.189  0.00  0.00    +0.000 OA
ATOM     15  N   UNL     1       2.888   6.984  18.911  0.00  0.00    +0.000 N 
ATOM     16  H   UNL     1       2.463   6.690  19.780  0.00  0.00    +0.000 HD
BRANCH  15  17
ATOM     17  C   UNL     1       3.870   6.067  18.368  0.00  0.00    +0.000 C 
BRANCH  17  18
ATOM     18  C   UNL     1       3.270   4.691  18.210  0.00  0.00    +0.000 A 
ATOM     19  C   UNL     1       1.889   4.499  18.364  0.00  0.00    +0.000 A 
ATOM     20  C   UNL     1       1.337   3.220  18.275  0.00  0.00    +0.000 A 
ATOM     21  C   UNL     1       2.155   2.118  18.035  0.00  0.00    +0.000 A 
ATOM     22  C   UNL     1       3.529   2.295  17.876  0.00  0.00    +0.000 A 
ATOM     23  C   UNL     1       4.084   3.574  17.963  0.00  0.00    +0.000 A 
ENDBRANCH  17  18
ENDBRANCH  15  17
ENDBRANCH  12  13
BRANCH  12  24
ATOM     24  C   UNL     1       1.253   8.616  20.409  0.00  0.00    +0.000 C 
ATOM     25  N   UNL     1       1.220   8.413  21.553  0.00  0.00    +0.000 NA
ENDBRANCH  12  24
ENDBRANCH   3  11
BRANCH  10  26
ATOM     26  C   UNL     1      -2.039  13.258  20.846  0.00  0.00    +0.000 C 
BRANCH  26  27
ATOM     27  C   UNL     1      -2.639  12.659  22.115  0.00  0.00    +0.000 C 
BRANCH  27  28
ATOM     28  C   UNL     1      -4.159  12.891  22.173  0.00  0.00    +0.000 C 
BRANCH  28  29
ATOM     29  N   UNL     1      -4.562  13.761  23.291  0.00  0.00    +0.000 NA
ATOM     30  C   UNL     1      -3.648  13.664  24.429  0.00  0.00    +0.000 C 
ATOM     31  C   UNL     1      -4.645  15.155  22.843  0.00  0.00    +0.000 C 
ENDBRANCH  28  29
ENDBRANCH  27  28
ENDBRANCH  26  27
ENDBRANCH  10  26
TORSDOF 9
ENDMDL
MODEL 7
REMARK VINA RESULT:      -7.6      2.613      3.699
REMARK  Name = 
REMARK  12 active torsions:
REMARK  status: ('A' for Active; 'I' for Inactive)
REMARK    1  A    between atoms: C_1  and  C_2
REMARK    2  A    between atoms: C_3  and  C_4
REMARK    3  A    between atoms: C_5  and  C_6
REMARK    4  A    between atoms: C_5  and  C_8
REMARK    5  A    between atoms: N_10  and  C_11
REMARK    6  A    between atoms: C_11  and  C_12
REMARK    7  A    between atoms: N_24  and  C_25
REMARK    8  A    between atoms: C_25  and  C_26
REMARK    9  A    between atoms: C_26  and  C_27
REMARK   10  A    between atoms: C_27  and  N_28
REMARK   11  A    between atoms: N_28  and  C_29
REMARK   12  A    between atoms: N_28  and  C_30
REMARK                            x       y       z     vdW  Elec       q    Type
REMARK                         _______ _______ _______ _____ _____    ______ ____
ROOT
ATOM      1  C   UNL     1       3.861   7.639  17.866  0.00  0.00    +0.000 C 
ATOM      2  C   UNL     1       3.182   6.447  18.459  0.00  0.00    +0.000 A 
ATOM      3  C   UNL     1       2.412   6.274  19.604  0.00  0.00    +0.000 A 
ATOM      4  C   UNL     1       1.930   4.918  19.589  0.00  0.00    +0.000 A 
ATOM      5  C   UNL     1       1.063   4.166  20.424  0.00  0.00    +0.000 A 
ATOM      6  C   UNL     1       0.773   2.830  20.116  0.00  0.00    +0.000 A 
ATOM      7  C   UNL     1       1.337   2.225  19.001  0.00  0.00    +0.000 A 
ATOM      8  C   UNL     1       2.199   2.937  18.165  0.00  0.00    +0.000 A 
ATOM      9  C   UNL     1       2.469   4.284  18.469  0.00  0.00    +0.000 A 
ATOM     10  N   UNL     1       3.242   5.223  17.811  0.00  0.00    +0.000 N 
ENDROOT
BRANCH   3  11
ATOM     11  C   UNL     1       2.027   7.262  20.585  0.00  0.00    +0.000 C 
ATOM     12  C   UNL     1       1.393   8.447  20.447  0.00  0.00    +0.000 C 
BRANCH  12  13
ATOM     13  C   UNL     1       1.045   9.226  21.689  0.00  0.00    +0.000 C 
ATOM     14  O   UNL     1       1.850   9.389  22.601  0.00  0.00    +0.000 OA
ATOM     15  N   UNL     1      -0.241   9.727  21.718  0.00  0.00    +0.000 N 
ATOM     16  H   UNL     1      -0.894   9.513  20.976  0.00  0.00    +0.000 HD
BRANCH  15  17
ATOM     17  C   UNL     1      -0.789  10.506  22.810  0.00  0.00    +0.000 C 
BRANCH  17  18
ATOM     18  C   UNL     1      -1.246  11.855  22.312  0.00  0.00    +0.000 A 
ATOM     19  C   UNL     1      -1.453  12.910  23.213  0.00  0.00    +0.000 A 
ATOM     20  C   UNL     1      -1.930  14.143  22.764  0.00  0.00    +0.000 A 
ATOM     21  C   UNL     1      -2.211  14.337  21.414  0.00  0.00    +0.000 A 
ATOM     22  C   UNL     1      -2.006  13.298  20.506  0.00  0.00    +0.000 A 
ATOM     23  C   UNL     1      -1.527  12.064  20.952  0.00  0.00    +0.000 A 
ENDBRANCH  17  18
ENDBRANCH  15  17
ENDBRANCH  12  13
BRANCH  12  24
ATOM     24  C   UNL     1       1.020   9.014  19.200  0.00  0.00    +0.000 C 
ATOM     25  N   UNL     1       0.837   9.543  18.182  0.00  0.00    +0.000 NA
ENDBRANCH  12  24
ENDBRANCH   3  11
BRANCH  10  26
ATOM     26  C   UNL     1       3.982   4.953  16.581  0.00  0.00    +0.000 C 
BRANCH  26  27
ATOM     27  C   UNL     1       5.396   4.454  16.869  0.00  0.00    +0.000 C 
BRANCH  27  28
ATOM     28  C   UNL     1       6.445   5.297  16.123  0.00  0.00    +0.000 C 
BRANCH  28  29
ATOM     29  N   UNL     1       7.566   5.708  16.984  0.00  0.00    +0.000 NA
ATOM     30  C   UNL     1       7.441   7.094  17.436  0.00  0.00    +0.000 C 
ATOM     31  C   UNL     1       7.665   4.818  18.145  0.00  0.00    +0.000 C 
ENDBRANCH  28  29
ENDBRANCH  27  28
ENDBRANCH  26  27
ENDBRANCH  10  26
TORSDOF 9
ENDMDL
MODEL 8
REMARK VINA RESULT:      -7.6      2.607      3.441
REMARK  Name = 
REMARK  12 active torsions:
REMARK  status: ('A' for Active; 'I' for Inactive)
REMARK    1  A    between atoms: C_1  and  C_2
REMARK    2  A    between atoms: C_3  and  C_4
REMARK    3  A    between atoms: C_5  and  C_6
REMARK    4  A    between atoms: C_5  and  C_8
REMARK    5  A    between atoms: N_10  and  C_11
REMARK    6  A    between atoms: C_11  and  C_12
REMARK    7  A    between atoms: N_24  and  C_25
REMARK    8  A    between atoms: C_25  and  C_26
REMARK    9  A    between atoms: C_26  and  C_27
REMARK   10  A    between atoms: C_27  and  N_28
REMARK   11  A    between atoms: N_28  and  C_29
REMARK   12  A    between atoms: N_28  and  C_30
REMARK                            x       y       z     vdW  Elec       q    Type
REMARK                         _______ _______ _______ _____ _____    ______ ____
ROOT
ATOM      1  C   UNL     1       3.916   7.726  17.817  0.00  0.00    +0.000 C 
ATOM      2  C   UNL     1       3.262   6.554  18.474  0.00  0.00    +0.000 A 
ATOM      3  C   UNL     1       2.444   6.436  19.592  0.00  0.00    +0.000 A 
ATOM      4  C   UNL     1       2.025   5.061  19.666  0.00  0.00    +0.000 A 
ATOM      5  C   UNL     1       1.152   4.337  20.520  0.00  0.00    +0.000 A 
ATOM      6  C   UNL     1       0.938   2.967  20.310  0.00  0.00    +0.000 A 
ATOM      7  C   UNL     1       1.586   2.304  19.277  0.00  0.00    +0.000 A 
ATOM      8  C   UNL     1       2.456   2.987  18.426  0.00  0.00    +0.000 A 
ATOM      9  C   UNL     1       2.649   4.366  18.630  0.00  0.00    +0.000 A 
ATOM     10  N   UNL     1       3.411   5.286  17.934  0.00  0.00    +0.000 N 
ENDROOT
BRANCH   3  11
ATOM     11  C   UNL     1       1.965   7.480  20.469  0.00  0.00    +0.000 C 
ATOM     12  C   UNL     1       1.348   8.651  20.197  0.00  0.00    +0.000 C 
BRANCH  12  13
ATOM     13  C   UNL     1       0.881   9.502  21.348  0.00  0.00    +0.000 C 
ATOM     14  O   UNL     1       0.950   9.117  22.512  0.00  0.00    +0.000 OA
ATOM     15  N   UNL     1       0.366  10.732  20.988  0.00  0.00    +0.000 N 
ATOM     16  H   UNL     1       0.265  10.982  20.014  0.00  0.00    +0.000 HD
BRANCH  15  17
ATOM     17  C   UNL     1      -0.140  11.712  21.928  0.00  0.00    +0.000 C 
BRANCH  17  18
ATOM     18  C   UNL     1      -1.575  12.051  21.607  0.00  0.00    +0.000 A 
ATOM     19  C   UNL     1      -1.991  12.185  20.275  0.00  0.00    +0.000 A 
ATOM     20  C   UNL     1      -3.303  12.554  19.975  0.00  0.00    +0.000 A 
ATOM     21  C   UNL     1      -4.214  12.801  21.000  0.00  0.00    +0.000 A 
ATOM     22  C   UNL     1      -3.815  12.668  22.329  0.00  0.00    +0.000 A 
ATOM     23  C   UNL     1      -2.503  12.296  22.632  0.00  0.00    +0.000 A 
ENDBRANCH  17  18
ENDBRANCH  15  17
ENDBRANCH  12  13
BRANCH  12  24
ATOM     24  C   UNL     1       1.100   9.139  18.887  0.00  0.00    +0.000 C 
ATOM     25  N   UNL     1       0.770   9.569  17.859  0.00  0.00    +0.000 NA
ENDBRANCH  12  24
ENDBRANCH   3  11
BRANCH  10  26
ATOM     26  C   UNL     1       4.224   4.954  16.766  0.00  0.00    +0.000 C 
BRANCH  26  27
ATOM     27  C   UNL     1       5.580   4.377  17.166  0.00  0.00    +0.000 C 
BRANCH  27  28
ATOM     28  C   UNL     1       6.713   5.383  16.895  0.00  0.00    +0.000 C 
BRANCH  28  29
ATOM     29  N   UNL     1       6.959   6.287  18.031  0.00  0.00    +0.000 NA
ATOM     30  C   UNL     1       7.766   5.658  19.077  0.00  0.00    +0.000 C 
ATOM     31  C   UNL     1       7.617   7.513  17.571  0.00  0.00    +0.000 C 
ENDBRANCH  28  29
ENDBRANCH  27  28
ENDBRANCH  26  27
ENDBRANCH  10  26
TORSDOF 9
ENDMDL
MODEL 9
REMARK VINA RESULT:      -7.6      0.768      1.173
REMARK  Name = 
REMARK  12 active torsions:
REMARK  status: ('A' for Active; 'I' for Inactive)
REMARK    1  A    between atoms: C_1  and  C_2
REMARK    2  A    between atoms: C_3  and  C_4
REMARK    3  A    between atoms: C_5  and  C_6
REMARK    4  A    between atoms: C_5  and  C_8
REMARK    5  A    between atoms: N_10  and  C_11
REMARK    6  A    between atoms: C_11  and  C_12
REMARK    7  A    between atoms: N_24  and  C_25
REMARK    8  A    between atoms: C_25  and  C_26
REMARK    9  A    between atoms: C_26  and  C_27
REMARK   10  A    between atoms: C_27  and  N_28
REMARK   11  A    between atoms: N_28  and  C_29
REMARK   12  A    between atoms: N_28  and  C_30
REMARK                            x       y       z     vdW  Elec       q    Type
REMARK                         _______ _______ _______ _____ _____    ______ ____
ROOT
ATOM      1  C   UNL     1       5.275   7.270  16.651  0.00  0.00    +0.000 C 
ATOM      2  C   UNL     1       4.312   6.345  17.322  0.00  0.00    +0.000 A 
ATOM      3  C   UNL     1       3.060   6.544  17.895  0.00  0.00    +0.000 A 
ATOM      4  C   UNL     1       2.562   5.249  18.280  0.00  0.00    +0.000 A 
ATOM      5  C   UNL     1       1.344   4.784  18.841  0.00  0.00    +0.000 A 
ATOM      6  C   UNL     1       1.159   3.416  19.088  0.00  0.00    +0.000 A 
ATOM      7  C   UNL     1       2.166   2.506  18.798  0.00  0.00    +0.000 A 
ATOM      8  C   UNL     1       3.377   2.934  18.252  0.00  0.00    +0.000 A 
ATOM      9  C   UNL     1       3.548   4.306  17.988  0.00  0.00    +0.000 A 
ATOM     10  N   UNL     1       4.608   4.995  17.429  0.00  0.00    +0.000 N 
ENDROOT
BRANCH   3  11
ATOM     11  C   UNL     1       2.301   7.768  17.993  0.00  0.00    +0.000 C 
ATOM     12  C   UNL     1       1.750   8.385  19.062  0.00  0.00    +0.000 C 
BRANCH  12  13
ATOM     13  C   UNL     1       1.083   9.720  18.857  0.00  0.00    +0.000 C 
ATOM     14  O   UNL     1       1.672  10.670  18.348  0.00  0.00    +0.000 OA
ATOM     15  N   UNL     1      -0.225   9.788  19.293  0.00  0.00    +0.000 N 
ATOM     16  H   UNL     1      -0.651   9.003  19.767  0.00  0.00    +0.000 HD
BRANCH  15  17
ATOM     17  C   UNL     1      -1.058  10.970  19.195  0.00  0.00    +0.000 C 
BRANCH  17  18
ATOM     18  C   UNL     1      -2.016  10.841  18.036  0.00  0.00    +0.000 A 
ATOM     19  C   UNL     1      -3.205  11.582  18.014  0.00  0.00    +0.000 A 
ATOM     20  C   UNL     1      -4.121  11.424  16.971  0.00  0.00    +0.000 A 
ATOM     21  C   UNL     1      -3.863  10.521  15.943  0.00  0.00    +0.000 A 
ATOM     22  C   UNL     1      -2.682   9.780  15.950  0.00  0.00    +0.000 A 
ATOM     23  C   UNL     1      -1.763   9.937  16.990  0.00  0.00    +0.000 A 
ENDBRANCH  17  18
ENDBRANCH  15  17
ENDBRANCH  12  13
BRANCH  12  24
ATOM     24  C   UNL     1       1.758   7.860  20.381  0.00  0.00    +0.000 C 
ATOM     25  N   UNL     1       1.628   7.443  21.458  0.00  0.00    +0.000 NA
ENDBRANCH  12  24
ENDBRANCH   3  11
BRANCH  10  26
ATOM     26  C   UNL     1       5.847   4.363  16.982  0.00  0.00    +0.000 C 
BRANCH  26  27
ATOM     27  C   UNL     1       5.626   3.498  15.743  0.00  0.00    +0.000 C 
BRANCH  27  28
ATOM     28  C   UNL     1       5.628   4.351  14.463  0.00  0.00    +0.000 C 
BRANCH  28  29
ATOM     29  N   UNL     1       6.571   3.856  13.447  0.00  0.00    +0.000 NA
ATOM     30  C   UNL     1       5.890   3.365  12.249  0.00  0.00    +0.000 C 
ATOM     31  C   UNL     1       7.519   4.911  13.078  0.00  0.00    +0.000 C 
ENDBRANCH  28  29
ENDBRANCH  27  28
ENDBRANCH  26  27
ENDBRANCH  10  26
TORSDOF 9
ENDMDL
