MODEL 1
REMARK VINA RESULT:      -8.5      0.000      0.000
REMARK  Name = 
REMARK  10 active torsions:
REMARK  status: ('A' for Active; 'I' for Inactive)
REMARK    1  A    between atoms: C_1  and  O_2
REMARK    2  A    between atoms: O_2  and  C_3
REMARK    3  A    between atoms: C_5  and  C_6
REMARK    4  A    between atoms: C_6  and  N_7
REMARK    5  A    between atoms: C_8  and  C_10
REMARK    6  A    between atoms: C_13  and  N_14
REMARK    7  A    between atoms: C_20  and  O_21
REMARK    8  A    between atoms: O_21  and  C_22
REMARK    9  A    between atoms: C_22  and  C_24
REMARK   10  A    between atoms: C_28  and  N_29
REMARK                            x       y       z     vdW  Elec       q    Type
REMARK                         _______ _______ _______ _____ _____    ______ ____
ROOT
ATOM      1  C   UNL     1       1.926   4.862  19.869  0.00  0.00    +0.000 A 
ATOM      2  C   UNL     1       1.716   6.013  20.637  0.00  0.00    +0.000 A 
ATOM      3  C   UNL     1       1.914   7.295  20.102  0.00  0.00    +0.000 A 
ATOM      4  C   UNL     1       2.396   7.415  18.792  0.00  0.00    +0.000 A 
ATOM      5  C   UNL     1       2.603   6.272  18.009  0.00  0.00    +0.000 A 
ATOM      6  C   UNL     1       2.358   5.004  18.546  0.00  0.00    +0.000 A 
ENDROOT
BRANCH   1   8
ATOM      7  C   UNL     1       2.017   3.363  21.682  0.00  0.00    +0.000 C 
ATOM      8  O   UNL     1       1.632   3.605  20.330  0.00  0.00    +0.000 OA
ENDBRANCH   1   8
BRANCH   3   9
ATOM      9  C   UNL     1       1.570   8.499  20.943  0.00  0.00    +0.000 C 
BRANCH   9  10
ATOM     10  N   UNL     1       0.485   9.254  20.377  0.00  0.00    +0.000 N 
ATOM     11  C   UNL     1       0.161  10.514  20.831  0.00  0.00    +0.000 C 
ATOM     12  O   UNL     1       0.795  11.062  21.728  0.00  0.00    +0.000 OA
ATOM     13  H   UNL     1      -0.058   8.850  19.625  0.00  0.00    +0.000 HD
BRANCH  11  14
ATOM     14  C   UNL     1      -0.983  11.140  20.174  0.00  0.00    +0.000 A 
ATOM     15  C   UNL     1      -1.633  12.305  20.540  0.00  0.00    +0.000 A 
ATOM     16  C   UNL     1      -2.734  12.615  19.679  0.00  0.00    +0.000 A 
ATOM     17  C   UNL     1      -2.874  11.667  18.689  0.00  0.00    +0.000 A 
ATOM     18  S   UNL     1      -1.709  10.441  18.782  0.00  0.00    +0.000 S 
BRANCH  17  19
ATOM     19  N   UNL     1      -3.870  11.639  17.652  0.00  0.00    +0.000 N 
ATOM     20  O   UNL     1      -3.459  11.417  16.503  0.00  0.00    +0.000 OA
ATOM     21  O   UNL     1      -5.051  11.836  17.965  0.00  0.00    +0.000 OA
ENDBRANCH  17  19
ENDBRANCH  11  14
ENDBRANCH   9  10
ENDBRANCH   3   9
BRANCH   6  22
ATOM     22  O   UNL     1       2.395   3.919  17.642  0.00  0.00    +0.000 OA
BRANCH  22  23
ATOM     23  C   UNL     1       3.434   3.006  17.711  0.00  0.00    +0.000 C 
ATOM     24  O   UNL     1       3.359   1.820  17.993  0.00  0.00    +0.000 OA
BRANCH  23  25
ATOM     25  C   UNL     1       4.725   3.688  17.384  0.00  0.00    +0.000 A 
ATOM     26  C   UNL     1       5.522   4.132  18.455  0.00  0.00    +0.000 A 
ATOM     27  C   UNL     1       6.754   4.752  18.223  0.00  0.00    +0.000 A 
ATOM     28  C   UNL     1       7.208   4.938  16.919  0.00  0.00    +0.000 A 
ATOM     29  C   UNL     1       6.416   4.505  15.848  0.00  0.00    +0.000 A 
ATOM     30  C   UNL     1       5.177   3.880  16.069  0.00  0.00    +0.000 A 
BRANCH  29  31
ATOM     31  N   UNL     1       6.896   4.704  14.469  0.00  0.00    +0.000 N 
ATOM     32  O   UNL     1       6.406   3.991  13.582  0.00  0.00    +0.000 OA
ATOM     33  O   UNL     1       7.760   5.568  14.281  0.00  0.00    +0.000 OA
ENDBRANCH  29  31
ENDBRANCH  23  25
ENDBRANCH  22  23
ENDBRANCH   6  22
TORSDOF 9
ENDMDL
MODEL 2
REMARK VINA RESULT:      -8.5      1.732      2.137
REMARK  Name = 
REMARK  10 active torsions:
REMARK  status: ('A' for Active; 'I' for Inactive)
REMARK    1  A    between atoms: C_1  and  O_2
REMARK    2  A    between atoms: O_2  and  C_3
REMARK    3  A    between atoms: C_5  and  C_6
REMARK    4  A    between atoms: C_6  and  N_7
REMARK    5  A    between atoms: C_8  and  C_10
REMARK    6  A    between atoms: C_13  and  N_14
REMARK    7  A    between atoms: C_20  and  O_21
REMARK    8  A    between atoms: O_21  and  C_22
REMARK    9  A    between atoms: C_22  and  C_24
REMARK   10  A    between atoms: C_28  and  N_29
REMARK                            x       y       z     vdW  Elec       q    Type
REMARK                         _______ _______ _______ _____ _____    ______ ____
ROOT
ATOM      1  C   UNL     1       2.114   5.100  19.932  0.00  0.00    +0.000 A 
ATOM      2  C   UNL     1       1.824   6.255  20.667  0.00  0.00    +0.000 A 
ATOM      3  C   UNL     1       1.880   7.528  20.080  0.00  0.00    +0.000 A 
ATOM      4  C   UNL     1       2.300   7.643  18.749  0.00  0.00    +0.000 A 
ATOM      5  C   UNL     1       2.585   6.495  17.998  0.00  0.00    +0.000 A 
ATOM      6  C   UNL     1       2.482   5.231  18.589  0.00  0.00    +0.000 A 
ENDROOT
BRANCH   1   8
ATOM      7  C   UNL     1       0.688   3.245  20.191  0.00  0.00    +0.000 C 
ATOM      8  O   UNL     1       1.958   3.840  20.448  0.00  0.00    +0.000 OA
ENDBRANCH   1   8
BRANCH   3   9
ATOM      9  C   UNL     1       1.454   8.726  20.892  0.00  0.00    +0.000 C 
BRANCH   9  10
ATOM     10  N   UNL     1       0.252   9.322  20.376  0.00  0.00    +0.000 N 
ATOM     11  C   UNL     1       0.277  10.474  19.620  0.00  0.00    +0.000 C 
ATOM     12  O   UNL     1       1.329  11.038  19.334  0.00  0.00    +0.000 OA
ATOM     13  H   UNL     1      -0.639   8.884  20.572  0.00  0.00    +0.000 HD
BRANCH  11  14
ATOM     14  C   UNL     1      -1.028  10.970  19.193  0.00  0.00    +0.000 A 
ATOM     15  C   UNL     1      -1.858  11.849  19.866  0.00  0.00    +0.000 A 
ATOM     16  C   UNL     1      -3.079  12.102  19.161  0.00  0.00    +0.000 A 
ATOM     17  C   UNL     1      -3.124  11.401  17.975  0.00  0.00    +0.000 A 
ATOM     18  S   UNL     1      -1.734  10.471  17.708  0.00  0.00    +0.000 S 
BRANCH  17  19
ATOM     19  N   UNL     1      -4.192  11.397  17.012  0.00  0.00    +0.000 N 
ATOM     20  O   UNL     1      -5.328  11.629  17.453  0.00  0.00    +0.000 OA
ATOM     21  O   UNL     1      -3.916  11.165  15.829  0.00  0.00    +0.000 OA
ENDBRANCH  17  19
ENDBRANCH  11  14
ENDBRANCH   9  10
ENDBRANCH   3   9
BRANCH   6  22
ATOM     22  O   UNL     1       2.588   4.120  17.722  0.00  0.00    +0.000 OA
BRANCH  22  23
ATOM     23  C   UNL     1       3.732   3.339  17.748  0.00  0.00    +0.000 C 
ATOM     24  O   UNL     1       3.812   2.155  18.035  0.00  0.00    +0.000 OA
BRANCH  23  25
ATOM     25  C   UNL     1       4.916   4.169  17.365  0.00  0.00    +0.000 A 
ATOM     26  C   UNL     1       5.089   4.475  16.002  0.00  0.00    +0.000 A 
ATOM     27  C   UNL     1       6.158   5.270  15.576  0.00  0.00    +0.000 A 
ATOM     28  C   UNL     1       7.070   5.771  16.503  0.00  0.00    +0.000 A 
ATOM     29  C   UNL     1       6.908   5.464  17.860  0.00  0.00    +0.000 A 
ATOM     30  C   UNL     1       5.837   4.666  18.300  0.00  0.00    +0.000 A 
BRANCH  29  31
ATOM     31  N   UNL     1       7.874   5.991  18.840  0.00  0.00    +0.000 N 
ATOM     32  O   UNL     1       8.278   7.151  18.680  0.00  0.00    +0.000 OA
ATOM     33  O   UNL     1       8.224   5.244  19.760  0.00  0.00    +0.000 OA
ENDBRANCH  29  31
ENDBRANCH  23  25
ENDBRANCH  22  23
ENDBRANCH   6  22
TORSDOF 9
ENDMDL
MODEL 3
REMARK VINA RESULT:      -8.3      2.803      3.185
REMARK  Name = 
REMARK  10 active torsions:
REMARK  status: ('A' for Active; 'I' for Inactive)
REMARK    1  A    between atoms: C_1  and  O_2
REMARK    2  A    between atoms: O_2  and  C_3
REMARK    3  A    between atoms: C_5  and  C_6
REMARK    4  A    between atoms: C_6  and  N_7
REMARK    5  A    between atoms: C_8  and  C_10
REMARK    6  A    between atoms: C_13  and  N_14
REMARK    7  A    between atoms: C_20  and  O_21
REMARK    8  A    between atoms: O_21  and  C_22
REMARK    9  A    between atoms: C_22  and  C_24
REMARK   10  A    between atoms: C_28  and  N_29
REMARK                            x       y       z     vdW  Elec       q    Type
REMARK                         _______ _______ _______ _____ _____    ______ ____
ROOT
ATOM      1  C   UNL     1       1.860   4.787  19.950  0.00  0.00    +0.000 A 
ATOM      2  C   UNL     1       1.555   5.859  20.797  0.00  0.00    +0.000 A 
ATOM      3  C   UNL     1       1.732   7.189  20.386  0.00  0.00    +0.000 A 
ATOM      4  C   UNL     1       2.287   7.440  19.125  0.00  0.00    +0.000 A 
ATOM      5  C   UNL     1       2.589   6.378  18.262  0.00  0.00    +0.000 A 
ATOM      6  C   UNL     1       2.365   5.060  18.674  0.00  0.00    +0.000 A 
ENDROOT
BRANCH   1   8
ATOM      7  C   UNL     1       2.440   2.944  21.294  0.00  0.00    +0.000 C 
ATOM      8  O   UNL     1       1.592   3.486  20.284  0.00  0.00    +0.000 OA
ENDBRANCH   1   8
BRANCH   3   9
ATOM      9  C   UNL     1       1.286   8.302  21.301  0.00  0.00    +0.000 C 
BRANCH   9  10
ATOM     10  N   UNL     1       1.177   9.556  20.606  0.00  0.00    +0.000 N 
ATOM     11  C   UNL     1       0.619  10.669  21.196  0.00  0.00    +0.000 C 
ATOM     12  O   UNL     1       0.203  10.650  22.351  0.00  0.00    +0.000 OA
ATOM     13  H   UNL     1       1.520   9.625  19.657  0.00  0.00    +0.000 HD
BRANCH  11  14
ATOM     14  C   UNL     1       0.555  11.858  20.351  0.00  0.00    +0.000 A 
ATOM     15  C   UNL     1      -0.435  12.198  19.446  0.00  0.00    +0.000 A 
ATOM     16  C   UNL     1      -0.163  13.432  18.770  0.00  0.00    +0.000 A 
ATOM     17  C   UNL     1       1.028  13.980  19.195  0.00  0.00    +0.000 A 
ATOM     18  S   UNL     1       1.796  13.046  20.381  0.00  0.00    +0.000 S 
BRANCH  17  19
ATOM     19  N   UNL     1       1.630  15.203  18.737  0.00  0.00    +0.000 N 
ATOM     20  O   UNL     1       2.638  15.083  18.025  0.00  0.00    +0.000 OA
ATOM     21  O   UNL     1       1.116  16.275  19.077  0.00  0.00    +0.000 OA
ENDBRANCH  17  19
ENDBRANCH  11  14
ENDBRANCH   9  10
ENDBRANCH   3   9
BRANCH   6  22
ATOM     22  O   UNL     1       2.503   4.059  17.686  0.00  0.00    +0.000 OA
BRANCH  22  23
ATOM     23  C   UNL     1       3.637   3.263  17.673  0.00  0.00    +0.000 C 
ATOM     24  O   UNL     1       3.705   2.071  17.929  0.00  0.00    +0.000 OA
BRANCH  23  25
ATOM     25  C   UNL     1       4.825   4.086  17.287  0.00  0.00    +0.000 A 
ATOM     26  C   UNL     1       4.997   4.390  15.925  0.00  0.00    +0.000 A 
ATOM     27  C   UNL     1       6.070   5.179  15.497  0.00  0.00    +0.000 A 
ATOM     28  C   UNL     1       6.986   5.675  16.423  0.00  0.00    +0.000 A 
ATOM     29  C   UNL     1       6.824   5.369  17.780  0.00  0.00    +0.000 A 
ATOM     30  C   UNL     1       5.750   4.578  18.221  0.00  0.00    +0.000 A 
BRANCH  29  31
ATOM     31  N   UNL     1       7.795   5.891  18.758  0.00  0.00    +0.000 N 
ATOM     32  O   UNL     1       8.152   5.136  19.672  0.00  0.00    +0.000 OA
ATOM     33  O   UNL     1       8.191   7.053  18.609  0.00  0.00    +0.000 OA
ENDBRANCH  29  31
ENDBRANCH  23  25
ENDBRANCH  22  23
ENDBRANCH   6  22
TORSDOF 9
ENDMDL
MODEL 4
REMARK VINA RESULT:      -8.3      2.301      2.502
REMARK  Name = 
REMARK  10 active torsions:
REMARK  status: ('A' for Active; 'I' for Inactive)
REMARK    1  A    between atoms: C_1  and  O_2
REMARK    2  A    between atoms: O_2  and  C_3
REMARK    3  A    between atoms: C_5  and  C_6
REMARK    4  A    between atoms: C_6  and  N_7
REMARK    5  A    between atoms: C_8  and  C_10
REMARK    6  A    between atoms: C_13  and  N_14
REMARK    7  A    between atoms: C_20  and  O_21
REMARK    8  A    between atoms: O_21  and  C_22
REMARK    9  A    between atoms: C_22  and  C_24
REMARK   10  A    between atoms: C_28  and  N_29
REMARK                            x       y       z     vdW  Elec       q    Type
REMARK                         _______ _______ _______ _____ _____    ______ ____
ROOT
ATOM      1  C   UNL     1       1.823   4.790  19.968  0.00  0.00    +0.000 A 
ATOM      2  C   UNL     1       1.478   5.896  20.753  0.00  0.00    +0.000 A 
ATOM      3  C   UNL     1       1.672   7.208  20.295  0.00  0.00    +0.000 A 
ATOM      4  C   UNL     1       2.284   7.407  19.052  0.00  0.00    +0.000 A 
ATOM      5  C   UNL     1       2.629   6.311  18.250  0.00  0.00    +0.000 A 
ATOM      6  C   UNL     1       2.387   5.010  18.707  0.00  0.00    +0.000 A 
ENDROOT
BRANCH   1   8
ATOM      7  C   UNL     1       2.191   3.077  21.540  0.00  0.00    +0.000 C 
ATOM      8  O   UNL     1       1.542   3.503  20.344  0.00  0.00    +0.000 OA
ENDBRANCH   1   8
BRANCH   3   9
ATOM      9  C   UNL     1       1.182   8.357  21.141  0.00  0.00    +0.000 C 
BRANCH   9  10
ATOM     10  N   UNL     1       1.219   9.603  20.424  0.00  0.00    +0.000 N 
ATOM     11  C   UNL     1       0.883  10.797  21.023  0.00  0.00    +0.000 C 
ATOM     12  O   UNL     1       0.553  10.859  22.204  0.00  0.00    +0.000 OA
ATOM     13  H   UNL     1       1.500   9.605  19.452  0.00  0.00    +0.000 HD
BRANCH  11  14
ATOM     14  C   UNL     1       0.943  11.970  20.156  0.00  0.00    +0.000 A 
ATOM     15  C   UNL     1       1.569  12.079  18.927  0.00  0.00    +0.000 A 
ATOM     16  C   UNL     1       1.446  13.389  18.360  0.00  0.00    +0.000 A 
ATOM     17  C   UNL     1       0.725  14.223  19.188  0.00  0.00    +0.000 A 
ATOM     18  S   UNL     1       0.201  13.454  20.603  0.00  0.00    +0.000 S 
BRANCH  17  19
ATOM     19  N   UNL     1       0.407  15.607  18.958  0.00  0.00    +0.000 N 
ATOM     20  O   UNL     1       1.342  16.327  18.576  0.00  0.00    +0.000 OA
ATOM     21  O   UNL     1      -0.754  15.984  19.155  0.00  0.00    +0.000 OA
ENDBRANCH  17  19
ENDBRANCH  11  14
ENDBRANCH   9  10
ENDBRANCH   3   9
BRANCH   6  22
ATOM     22  O   UNL     1       2.573   3.969  17.770  0.00  0.00    +0.000 OA
BRANCH  22  23
ATOM     23  C   UNL     1       3.657   3.117  17.899  0.00  0.00    +0.000 C 
ATOM     24  O   UNL     1       3.646   1.959  18.286  0.00  0.00    +0.000 OA
BRANCH  23  25
ATOM     25  C   UNL     1       4.907   3.828  17.487  0.00  0.00    +0.000 A 
ATOM     26  C   UNL     1       5.709   4.386  18.500  0.00  0.00    +0.000 A 
ATOM     27  C   UNL     1       6.906   5.040  18.189  0.00  0.00    +0.000 A 
ATOM     28  C   UNL     1       7.319   5.147  16.862  0.00  0.00    +0.000 A 
ATOM     29  C   UNL     1       6.521   4.601  15.848  0.00  0.00    +0.000 A 
ATOM     30  C   UNL     1       5.317   3.942  16.150  0.00  0.00    +0.000 A 
BRANCH  29  31
ATOM     31  N   UNL     1       6.957   4.718  14.445  0.00  0.00    +0.000 N 
ATOM     32  O   UNL     1       6.401   3.993  13.609  0.00  0.00    +0.000 OA
ATOM     33  O   UNL     1       7.854   5.530  14.189  0.00  0.00    +0.000 OA
ENDBRANCH  29  31
ENDBRANCH  23  25
ENDBRANCH  22  23
ENDBRANCH   6  22
TORSDOF 9
ENDMDL
MODEL 5
REMARK VINA RESULT:      -8.2      1.621      1.933
REMARK  Name = 
REMARK  10 active torsions:
REMARK  status: ('A' for Active; 'I' for Inactive)
REMARK    1  A    between atoms: C_1  and  O_2
REMARK    2  A    between atoms: O_2  and  C_3
REMARK    3  A    between atoms: C_5  and  C_6
REMARK    4  A    between atoms: C_6  and  N_7
REMARK    5  A    between atoms: C_8  and  C_10
REMARK    6  A    between atoms: C_13  and  N_14
REMARK    7  A    between atoms: C_20  and  O_21
REMARK    8  A    between atoms: O_21  and  C_22
REMARK    9  A    between atoms: C_22  and  C_24
REMARK   10  A    between atoms: C_28  and  N_29
REMARK                            x       y       z     vdW  Elec       q    Type
REMARK                         _______ _______ _______ _____ _____    ______ ____
ROOT
ATOM      1  C   UNL     1       2.371   4.800  19.823  0.00  0.00    +0.000 A 
ATOM      2  C   UNL     1       2.102   5.940  20.589  0.00  0.00    +0.000 A 
ATOM      3  C   UNL     1       2.035   7.214  20.006  0.00  0.00    +0.000 A 
ATOM      4  C   UNL     1       2.308   7.349  18.640  0.00  0.00    +0.000 A 
ATOM      5  C   UNL     1       2.572   6.216  17.857  0.00  0.00    +0.000 A 
ATOM      6  C   UNL     1       2.592   4.949  18.450  0.00  0.00    +0.000 A 
ENDROOT
BRANCH   1   8
ATOM      7  C   UNL     1       1.080   3.168  20.923  0.00  0.00    +0.000 C 
ATOM      8  O   UNL     1       2.332   3.534  20.346  0.00  0.00    +0.000 OA
ENDBRANCH   1   8
BRANCH   3   9
ATOM      9  C   UNL     1       1.636   8.390  20.864  0.00  0.00    +0.000 C 
BRANCH   9  10
ATOM     10  N   UNL     1       0.619   9.189  20.236  0.00  0.00    +0.000 N 
ATOM     11  C   UNL     1      -0.021  10.210  20.905  0.00  0.00    +0.000 C 
ATOM     12  O   UNL     1       0.260  10.499  22.065  0.00  0.00    +0.000 OA
ATOM     13  H   UNL     1       0.364   8.998  19.275  0.00  0.00    +0.000 HD
BRANCH  11  14
ATOM     14  C   UNL     1      -1.049  10.910  20.141  0.00  0.00    +0.000 A 
ATOM     15  C   UNL     1      -1.702  12.082  20.481  0.00  0.00    +0.000 A 
ATOM     16  C   UNL     1      -2.672  12.475  19.503  0.00  0.00    +0.000 A 
ATOM     17  C   UNL     1      -2.712  11.581  18.455  0.00  0.00    +0.000 A 
ATOM     18  S   UNL     1      -1.610  10.308  18.633  0.00  0.00    +0.000 S 
BRANCH  17  19
ATOM     19  N   UNL     1      -3.566  11.641  17.299  0.00  0.00    +0.000 N 
ATOM     20  O   UNL     1      -3.026  11.412  16.207  0.00  0.00    +0.000 OA
ATOM     21  O   UNL     1      -4.761  11.915  17.464  0.00  0.00    +0.000 OA
ENDBRANCH  17  19
ENDBRANCH  11  14
ENDBRANCH   9  10
ENDBRANCH   3   9
BRANCH   6  22
ATOM     22  O   UNL     1       2.663   3.844  17.571  0.00  0.00    +0.000 OA
BRANCH  22  23
ATOM     23  C   UNL     1       3.778   3.023  17.595  0.00  0.00    +0.000 C 
ATOM     24  O   UNL     1       3.807   1.822  17.816  0.00  0.00    +0.000 OA
BRANCH  23  25
ATOM     25  C   UNL     1       5.003   3.830  17.303  0.00  0.00    +0.000 A 
ATOM     26  C   UNL     1       5.383   3.983  15.957  0.00  0.00    +0.000 A 
ATOM     27  C   UNL     1       6.501   4.748  15.610  0.00  0.00    +0.000 A 
ATOM     28  C   UNL     1       7.257   5.371  16.601  0.00  0.00    +0.000 A 
ATOM     29  C   UNL     1       6.889   5.216  17.944  0.00  0.00    +0.000 A 
ATOM     30  C   UNL     1       5.768   4.450  18.304  0.00  0.00    +0.000 A 
BRANCH  29  31
ATOM     31  N   UNL     1       7.691   5.872  18.992  0.00  0.00    +0.000 N 
ATOM     32  O   UNL     1       7.711   5.346  20.113  0.00  0.00    +0.000 OA
ATOM     33  O   UNL     1       8.291   6.910  18.689  0.00  0.00    +0.000 OA
ENDBRANCH  29  31
ENDBRANCH  23  25
ENDBRANCH  22  23
ENDBRANCH   6  22
TORSDOF 9
ENDMDL
MODEL 6
REMARK VINA RESULT:      -8.2      2.138      2.493
REMARK  Name = 
REMARK  10 active torsions:
REMARK  status: ('A' for Active; 'I' for Inactive)
REMARK    1  A    between atoms: C_1  and  O_2
REMARK    2  A    between atoms: O_2  and  C_3
REMARK    3  A    between atoms: C_5  and  C_6
REMARK    4  A    between atoms: C_6  and  N_7
REMARK    5  A    between atoms: C_8  and  C_10
REMARK    6  A    between atoms: C_13  and  N_14
REMARK    7  A    between atoms: C_20  and  O_21
REMARK    8  A    between atoms: O_21  and  C_22
REMARK    9  A    between atoms: C_22  and  C_24
REMARK   10  A    between atoms: C_28  and  N_29
REMARK                            x       y       z     vdW  Elec       q    Type
REMARK                         _______ _______ _______ _____ _____    ______ ____
ROOT
ATOM      1  C   UNL     1       1.853   4.977  19.922  0.00  0.00    +0.000 A 
ATOM      2  C   UNL     1       1.619   5.997  20.851  0.00  0.00    +0.000 A 
ATOM      3  C   UNL     1       1.763   7.350  20.504  0.00  0.00    +0.000 A 
ATOM      4  C   UNL     1       2.214   7.675  19.219  0.00  0.00    +0.000 A 
ATOM      5  C   UNL     1       2.445   6.665  18.275  0.00  0.00    +0.000 A 
ATOM      6  C   UNL     1       2.254   5.325  18.627  0.00  0.00    +0.000 A 
ENDROOT
BRANCH   1   8
ATOM      7  C   UNL     1       2.480   3.088  21.178  0.00  0.00    +0.000 C 
ATOM      8  O   UNL     1       1.612   3.658  20.201  0.00  0.00    +0.000 OA
ENDBRANCH   1   8
BRANCH   3   9
ATOM      9  C   UNL     1       1.393   8.406  21.516  0.00  0.00    +0.000 C 
BRANCH   9  10
ATOM     10  N   UNL     1       0.453   9.353  20.981  0.00  0.00    +0.000 N 
ATOM     11  C   UNL     1      -0.098  10.349  21.758  0.00  0.00    +0.000 C 
ATOM     12  O   UNL     1       0.202  10.489  22.940  0.00  0.00    +0.000 OA
ATOM     13  H   UNL     1       0.186   9.288  20.007  0.00  0.00    +0.000 HD
BRANCH  11  14
ATOM     14  C   UNL     1      -1.058  11.213  21.077  0.00  0.00    +0.000 A 
ATOM     15  C   UNL     1      -1.284  11.316  19.716  0.00  0.00    +0.000 A 
ATOM     16  C   UNL     1      -2.290  12.284  19.396  0.00  0.00    +0.000 A 
ATOM     17  C   UNL     1      -2.788  12.878  20.535  0.00  0.00    +0.000 A 
ATOM     18  S   UNL     1      -2.077  12.284  21.953  0.00  0.00    +0.000 S 
BRANCH  17  19
ATOM     19  N   UNL     1      -3.798  13.900  20.608  0.00  0.00    +0.000 N 
ATOM     20  O   UNL     1      -4.895  13.622  20.100  0.00  0.00    +0.000 OA
ATOM     21  O   UNL     1      -3.513  14.970  21.158  0.00  0.00    +0.000 OA
ENDBRANCH  17  19
ENDBRANCH  11  14
ENDBRANCH   9  10
ENDBRANCH   3   9
BRANCH   6  22
ATOM     22  O   UNL     1       2.310   4.383  17.575  0.00  0.00    +0.000 OA
BRANCH  22  23
ATOM     23  C   UNL     1       3.356   3.476  17.524  0.00  0.00    +0.000 C 
ATOM     24  O   UNL     1       3.293   2.266  17.675  0.00  0.00    +0.000 OA
BRANCH  23  25
ATOM     25  C   UNL     1       4.636   4.200  17.250  0.00  0.00    +0.000 A 
ATOM     26  C   UNL     1       4.997   4.409  15.907  0.00  0.00    +0.000 A 
ATOM     27  C   UNL     1       6.166   5.103  15.578  0.00  0.00    +0.000 A 
ATOM     28  C   UNL     1       6.991   5.598  16.585  0.00  0.00    +0.000 A 
ATOM     29  C   UNL     1       6.642   5.387  17.925  0.00  0.00    +0.000 A 
ATOM     30  C   UNL     1       5.470   4.691  18.267  0.00  0.00    +0.000 A 
BRANCH  29  31
ATOM     31  N   UNL     1       7.517   5.909  18.990  0.00  0.00    +0.000 N 
ATOM     32  O   UNL     1       7.473   5.350  20.094  0.00  0.00    +0.000 OA
ATOM     33  O   UNL     1       8.239   6.875  18.717  0.00  0.00    +0.000 OA
ENDBRANCH  29  31
ENDBRANCH  23  25
ENDBRANCH  22  23
ENDBRANCH   6  22
TORSDOF 9
ENDMDL
MODEL 7
REMARK VINA RESULT:      -8.1      0.868      1.016
REMARK  Name = 
REMARK  10 active torsions:
REMARK  status: ('A' for Active; 'I' for Inactive)
REMARK    1  A    between atoms: C_1  and  O_2
REMARK    2  A    between atoms: O_2  and  C_3
REMARK    3  A    between atoms: C_5  and  C_6
REMARK    4  A    between atoms: C_6  and  N_7
REMARK    5  A    between atoms: C_8  and  C_10
REMARK    6  A    between atoms: C_13  and  N_14
REMARK    7  A    between atoms: C_20  and  O_21
REMARK    8  A    between atoms: O_21  and  C_22
REMARK    9  A    between atoms: C_22  and  C_24
REMARK   10  A    between atoms: C_28  and  N_29
REMARK                            x       y       z     vdW  Elec       q    Type
REMARK                         _______ _______ _______ _____ _____    ______ ____
ROOT
ATOM      1  C   UNL     1       1.669   4.972  20.101  0.00  0.00    +0.000 A 
ATOM      2  C   UNL     1       1.480   6.178  20.785  0.00  0.00    +0.000 A 
ATOM      3  C   UNL     1       1.744   7.414  20.176  0.00  0.00    +0.000 A 
ATOM      4  C   UNL     1       2.269   7.431  18.878  0.00  0.00    +0.000 A 
ATOM      5  C   UNL     1       2.455   6.232  18.176  0.00  0.00    +0.000 A 
ATOM      6  C   UNL     1       2.145   5.011  18.786  0.00  0.00    +0.000 A 
ENDROOT
BRANCH   1   8
ATOM      7  C   UNL     1       2.084   3.357  21.762  0.00  0.00    +0.000 C 
ATOM      8  O   UNL     1       1.313   3.760  20.633  0.00  0.00    +0.000 OA
ENDBRANCH   1   8
BRANCH   3   9
ATOM      9  C   UNL     1       1.421   8.683  20.926  0.00  0.00    +0.000 C 
BRANCH   9  10
ATOM     10  N   UNL     1       0.230   9.312  20.423  0.00  0.00    +0.000 N 
ATOM     11  C   UNL     1       0.283  10.405  19.585  0.00  0.00    +0.000 C 
ATOM     12  O   UNL     1       1.351  10.883  19.210  0.00  0.00    +0.000 OA
ATOM     13  H   UNL     1      -0.674   8.945  20.691  0.00  0.00    +0.000 HD
BRANCH  11  14
ATOM     14  C   UNL     1      -1.011  10.948  19.183  0.00  0.00    +0.000 A 
ATOM     15  C   UNL     1      -1.795  11.857  19.872  0.00  0.00    +0.000 A 
ATOM     16  C   UNL     1      -3.019  12.155  19.190  0.00  0.00    +0.000 A 
ATOM     17  C   UNL     1      -3.113  11.456  18.006  0.00  0.00    +0.000 A 
ATOM     18  S   UNL     1      -1.763  10.475  17.712  0.00  0.00    +0.000 S 
BRANCH  17  19
ATOM     19  N   UNL     1      -4.198  11.491  17.064  0.00  0.00    +0.000 N 
ATOM     20  O   UNL     1      -5.198  12.141  17.404  0.00  0.00    +0.000 OA
ATOM     21  O   UNL     1      -4.071  10.880  15.996  0.00  0.00    +0.000 OA
ENDBRANCH  17  19
ENDBRANCH  11  14
ENDBRANCH   9  10
ENDBRANCH   3   9
BRANCH   6  22
ATOM     22  O   UNL     1       2.168   3.869  17.956  0.00  0.00    +0.000 OA
BRANCH  22  23
ATOM     23  C   UNL     1       3.232   2.985  18.037  0.00  0.00    +0.000 C 
ATOM     24  O   UNL     1       3.179   1.780  18.226  0.00  0.00    +0.000 OA
BRANCH  23  25
ATOM     25  C   UNL     1       4.517   3.728  17.855  0.00  0.00    +0.000 A 
ATOM     26  C   UNL     1       5.274   4.020  19.004  0.00  0.00    +0.000 A 
ATOM     27  C   UNL     1       6.500   4.686  18.906  0.00  0.00    +0.000 A 
ATOM     28  C   UNL     1       6.987   5.072  17.658  0.00  0.00    +0.000 A 
ATOM     29  C   UNL     1       6.235   4.792  16.511  0.00  0.00    +0.000 A 
ATOM     30  C   UNL     1       5.002   4.122  16.598  0.00  0.00    +0.000 A 
BRANCH  29  31
ATOM     31  N   UNL     1       6.749   5.202  15.192  0.00  0.00    +0.000 N 
ATOM     32  O   UNL     1       6.011   5.895  14.478  0.00  0.00    +0.000 OA
ATOM     33  O   UNL     1       7.885   4.828  14.878  0.00  0.00    +0.000 OA
ENDBRANCH  29  31
ENDBRANCH  23  25
ENDBRANCH  22  23
ENDBRANCH   6  22
TORSDOF 9
ENDMDL
MODEL 8
REMARK VINA RESULT:      -8.1      2.650      2.946
REMARK  Name = 
REMARK  10 active torsions:
REMARK  status: ('A' for Active; 'I' for Inactive)
REMARK    1  A    between atoms: C_1  and  O_2
REMARK    2  A    between atoms: O_2  and  C_3
REMARK    3  A    between atoms: C_5  and  C_6
REMARK    4  A    between atoms: C_6  and  N_7
REMARK    5  A    between atoms: C_8  and  C_10
REMARK    6  A    between atoms: C_13  and  N_14
REMARK    7  A    between atoms: C_20  and  O_21
REMARK    8  A    between atoms: O_21  and  C_22
REMARK    9  A    between atoms: C_22  and  C_24
REMARK   10  A    between atoms: C_28  and  N_29
REMARK                            x       y       z     vdW  Elec       q    Type
REMARK                         _______ _______ _______ _____ _____    ______ ____
ROOT
ATOM      1  C   UNL     1       2.120   4.873  19.765  0.00  0.00    +0.000 A 
ATOM      2  C   UNL     1       1.799   5.917  20.641  0.00  0.00    +0.000 A 
ATOM      3  C   UNL     1       1.806   7.255  20.219  0.00  0.00    +0.000 A 
ATOM      4  C   UNL     1       2.206   7.549  18.910  0.00  0.00    +0.000 A 
ATOM      5  C   UNL     1       2.522   6.515  18.018  0.00  0.00    +0.000 A 
ATOM      6  C   UNL     1       2.468   5.185  18.446  0.00  0.00    +0.000 A 
ENDROOT
BRANCH   1   8
ATOM      7  C   UNL     1       0.710   2.997  19.951  0.00  0.00    +0.000 C 
ATOM      8  O   UNL     1       2.012   3.554  20.120  0.00  0.00    +0.000 OA
ENDBRANCH   1   8
BRANCH   3   9
ATOM      9  C   UNL     1       1.348   8.326  21.178  0.00  0.00    +0.000 C 
BRANCH   9  10
ATOM     10  N   UNL     1       1.076   9.566  20.504  0.00  0.00    +0.000 N 
ATOM     11  C   UNL     1       0.615  10.675  21.179  0.00  0.00    +0.000 C 
ATOM     12  O   UNL     1       0.433  10.665  22.393  0.00  0.00    +0.000 OA
ATOM     13  H   UNL     1       1.226   9.629  19.505  0.00  0.00    +0.000 HD
BRANCH  11  14
ATOM     14  C   UNL     1       0.359  11.850  20.351  0.00  0.00    +0.000 A 
ATOM     15  C   UNL     1       0.575  11.987  18.991  0.00  0.00    +0.000 A 
ATOM     16  C   UNL     1       0.230  13.290  18.507  0.00  0.00    +0.000 A 
ATOM     17  C   UNL     1      -0.238  14.091  19.526  0.00  0.00    +0.000 A 
ATOM     18  S   UNL     1      -0.272  13.300  21.023  0.00  0.00    +0.000 S 
BRANCH  17  19
ATOM     19  N   UNL     1      -0.668  15.460  19.423  0.00  0.00    +0.000 N 
ATOM     20  O   UNL     1      -0.363  16.052  18.377  0.00  0.00    +0.000 OA
ATOM     21  O   UNL     1      -1.300  15.950  20.366  0.00  0.00    +0.000 OA
ENDBRANCH  17  19
ENDBRANCH  11  14
ENDBRANCH   9  10
ENDBRANCH   3   9
BRANCH   6  22
ATOM     22  O   UNL     1       2.602   4.195  17.446  0.00  0.00    +0.000 OA
BRANCH  22  23
ATOM     23  C   UNL     1       3.657   3.300  17.508  0.00  0.00    +0.000 C 
ATOM     24  O   UNL     1       3.597   2.100  17.725  0.00  0.00    +0.000 OA
BRANCH  23  25
ATOM     25  C   UNL     1       4.944   4.022  17.263  0.00  0.00    +0.000 A 
ATOM     26  C   UNL     1       5.401   4.117  15.936  0.00  0.00    +0.000 A 
ATOM     27  C   UNL     1       6.582   4.803  15.632  0.00  0.00    +0.000 A 
ATOM     28  C   UNL     1       7.323   5.403  16.648  0.00  0.00    +0.000 A 
ATOM     29  C   UNL     1       6.878   5.306  17.972  0.00  0.00    +0.000 A 
ATOM     30  C   UNL     1       5.693   4.620  18.289  0.00  0.00    +0.000 A 
BRANCH  29  31
ATOM     31  N   UNL     1       7.663   5.938  19.046  0.00  0.00    +0.000 N 
ATOM     32  O   UNL     1       8.278   6.978  18.772  0.00  0.00    +0.000 OA
ATOM     33  O   UNL     1       7.664   5.391  20.155  0.00  0.00    +0.000 OA
ENDBRANCH  29  31
ENDBRANCH  23  25
ENDBRANCH  22  23
ENDBRANCH   6  22
TORSDOF 9
ENDMDL
MODEL 9
REMARK VINA RESULT:      -8.1      1.915      2.300
REMARK  Name = 
REMARK  10 active torsions:
REMARK  status: ('A' for Active; 'I' for Inactive)
REMARK    1  A    between atoms: C_1  and  O_2
REMARK    2  A    between atoms: O_2  and  C_3
REMARK    3  A    between atoms: C_5  and  C_6
REMARK    4  A    between atoms: C_6  and  N_7
REMARK    5  A    between atoms: C_8  and  C_10
REMARK    6  A    between atoms: C_13  and  N_14
REMARK    7  A    between atoms: C_20  and  O_21
REMARK    8  A    between atoms: O_21  and  C_22
REMARK    9  A    between atoms: C_22  and  C_24
REMARK   10  A    between atoms: C_28  and  N_29
REMARK                            x       y       z     vdW  Elec       q    Type
REMARK                         _______ _______ _______ _____ _____    ______ ____
ROOT
ATOM      1  C   UNL     1       1.918   4.975  19.865  0.00  0.00    +0.000 A 
ATOM      2  C   UNL     1       1.660   6.042  20.734  0.00  0.00    +0.000 A 
ATOM      3  C   UNL     1       1.801   7.375  20.319  0.00  0.00    +0.000 A 
ATOM      4  C   UNL     1       2.274   7.635  19.027  0.00  0.00    +0.000 A 
ATOM      5  C   UNL     1       2.529   6.578  18.142  0.00  0.00    +0.000 A 
ATOM      6  C   UNL     1       2.340   5.257  18.561  0.00  0.00    +0.000 A 
ENDROOT
BRANCH   1   8
ATOM      7  C   UNL     1       1.996   3.345  21.561  0.00  0.00    +0.000 C 
ATOM      8  O   UNL     1       1.681   3.671  20.209  0.00  0.00    +0.000 OA
ENDBRANCH   1   8
BRANCH   3   9
ATOM      9  C   UNL     1       1.406   8.480  21.266  0.00  0.00    +0.000 C 
BRANCH   9  10
ATOM     10  N   UNL     1       0.238   9.184  20.809  0.00  0.00    +0.000 N 
ATOM     11  C   UNL     1       0.325  10.407  20.181  0.00  0.00    +0.000 C 
ATOM     12  O   UNL     1       1.405  10.949  19.964  0.00  0.00    +0.000 OA
ATOM     13  H   UNL     1      -0.674   8.770  20.952  0.00  0.00    +0.000 HD
BRANCH  11  14
ATOM     14  C   UNL     1      -0.951  11.007  19.802  0.00  0.00    +0.000 A 
ATOM     15  C   UNL     1      -1.586  10.935  18.575  0.00  0.00    +0.000 A 
ATOM     16  C   UNL     1      -2.820  11.662  18.550  0.00  0.00    +0.000 A 
ATOM     17  C   UNL     1      -3.071  12.258  19.767  0.00  0.00    +0.000 A 
ATOM     18  S   UNL     1      -1.865  11.945  20.914  0.00  0.00    +0.000 S 
BRANCH  17  19
ATOM     19  N   UNL     1      -4.204  13.073  20.114  0.00  0.00    +0.000 N 
ATOM     20  O   UNL     1      -3.950  14.202  20.559  0.00  0.00    +0.000 OA
ATOM     21  O   UNL     1      -5.337  12.606  19.951  0.00  0.00    +0.000 OA
ENDBRANCH  17  19
ENDBRANCH  11  14
ENDBRANCH   9  10
ENDBRANCH   3   9
BRANCH   6  22
ATOM     22  O   UNL     1       2.423   4.261  17.562  0.00  0.00    +0.000 OA
BRANCH  22  23
ATOM     23  C   UNL     1       3.497   3.387  17.554  0.00  0.00    +0.000 C 
ATOM     24  O   UNL     1       3.482   2.194  17.815  0.00  0.00    +0.000 OA
BRANCH  23  25
ATOM     25  C   UNL     1       4.741   4.123  17.168  0.00  0.00    +0.000 A 
ATOM     26  C   UNL     1       4.985   4.326  15.798  0.00  0.00    +0.000 A 
ATOM     27  C   UNL     1       6.114   5.031  15.367  0.00  0.00    +0.000 A 
ATOM     28  C   UNL     1       7.015   5.543  16.299  0.00  0.00    +0.000 A 
ATOM     29  C   UNL     1       6.783   5.338  17.665  0.00  0.00    +0.000 A 
ATOM     30  C   UNL     1       5.652   4.631  18.108  0.00  0.00    +0.000 A 
BRANCH  29  31
ATOM     31  N   UNL     1       7.738   5.877  18.648  0.00  0.00    +0.000 N 
ATOM     32  O   UNL     1       8.087   7.058  18.521  0.00  0.00    +0.000 OA
ATOM     33  O   UNL     1       8.134   5.116  19.539  0.00  0.00    +0.000 OA
ENDBRANCH  29  31
ENDBRANCH  23  25
ENDBRANCH  22  23
ENDBRANCH   6  22
TORSDOF 9
ENDMDL
