MODEL 1
REMARK VINA RESULT:      -7.4      0.000      0.000
REMARK  Name = 
REMARK  10 active torsions:
REMARK  status: ('A' for Active; 'I' for Inactive)
REMARK    1  A    between atoms: C_1  and  O_2
REMARK    2  A    between atoms: O_2  and  C_3
REMARK    3  A    between atoms: C_7  and  O_8
REMARK    4  A    between atoms: O_8  and  C_9
REMARK    5  A    between atoms: C_10  and  C_11
REMARK    6  A    between atoms: C_17  and  C_18
REMARK    7  A    between atoms: C_22  and  O_23
REMARK    8  A    between atoms: O_23  and  C_24
REMARK    9  A    between atoms: C_24  and  C_25
REMARK   10  A    between atoms: C_24  and  C_26
REMARK                            x       y       z     vdW  Elec       q    Type
REMARK                         _______ _______ _______ _____ _____    ______ ____
ROOT
ATOM      1  C   UNL     1       0.267  12.643  21.380  0.00  0.00    +0.000 A 
ATOM      2  N   UNL     1      -0.553  13.040  22.351  0.00  0.00    +0.000 NA
ATOM      3  N   UNL     1      -0.964  11.954  23.091  0.00  0.00    +0.000 NA
ATOM      4  C   UNL     1      -0.401  10.886  22.566  0.00  0.00    +0.000 A 
ATOM      5  C   UNL     1      -0.477   9.512  22.907  0.00  0.00    +0.000 A 
ATOM      6  C   UNL     1       0.180   8.601  22.159  0.00  0.00    +0.000 A 
ATOM      7  C   UNL     1       0.958   8.998  20.987  0.00  0.00    +0.000 A 
ATOM      8  C   UNL     1       1.017  10.308  20.671  0.00  0.00    +0.000 A 
ATOM      9  N   UNL     1       0.368  11.260  21.465  0.00  0.00    +0.000 N 
ENDROOT
BRANCH   1  15
ATOM     10  C   UNL     1       2.261  13.982  20.604  0.00  0.00    +0.000 A 
ATOM     11  C   UNL     1       2.932  14.734  19.625  0.00  0.00    +0.000 A 
ATOM     12  C   UNL     1       2.267  15.176  18.498  0.00  0.00    +0.000 A 
ATOM     13  C   UNL     1       0.948  14.830  18.299  0.00  0.00    +0.000 A 
ATOM     14  C   UNL     1       0.273  13.987  19.202  0.00  0.00    +0.000 A 
ATOM     15  C   UNL     1       0.922  13.550  20.396  0.00  0.00    +0.000 A 
BRANCH  10  17
ATOM     16  C   UNL     1       4.157  14.321  21.987  0.00  0.00    +0.000 C 
ATOM     17  O   UNL     1       2.909  13.651  21.774  0.00  0.00    +0.000 OA
ENDBRANCH  10  17
BRANCH  14  18
ATOM     18  O   UNL     1      -1.014  13.578  18.954  0.00  0.00    +0.000 OA
ATOM     19  C   UNL     1      -1.202  12.411  18.154  0.00  0.00    +0.000 C 
ENDBRANCH  14  18
ENDBRANCH   1  15
BRANCH   7  20
ATOM     20  C   UNL     1       1.615   8.041  20.094  0.00  0.00    +0.000 A 
ATOM     21  C   UNL     1       2.010   8.458  18.819  0.00  0.00    +0.000 A 
ATOM     22  C   UNL     1       2.588   7.552  17.935  0.00  0.00    +0.000 A 
ATOM     23  C   UNL     1       2.737   6.218  18.312  0.00  0.00    +0.000 A 
ATOM     24  C   UNL     1       2.315   5.784  19.570  0.00  0.00    +0.000 A 
ATOM     25  C   UNL     1       1.804   6.707  20.484  0.00  0.00    +0.000 A 
BRANCH  24  26
ATOM     26  O   UNL     1       2.421   4.436  19.782  0.00  0.00    +0.000 OA
BRANCH  26  27
ATOM     27  C   UNL     1       1.270   3.745  20.291  0.00  0.00    +0.000 C 
ATOM     28  C   UNL     1       0.747   2.683  19.319  0.00  0.00    +0.000 C 
ATOM     29  C   UNL     1       1.713   3.048  21.579  0.00  0.00    +0.000 C 
ENDBRANCH  26  27
ENDBRANCH  24  26
ENDBRANCH   7  20
TORSDOF 6
ENDMDL
MODEL 2
REMARK VINA RESULT:      -7.3      4.013      8.490
REMARK  Name = 
REMARK  10 active torsions:
REMARK  status: ('A' for Active; 'I' for Inactive)
REMARK    1  A    between atoms: C_1  and  O_2
REMARK    2  A    between atoms: O_2  and  C_3
REMARK    3  A    between atoms: C_7  and  O_8
REMARK    4  A    between atoms: O_8  and  C_9
REMARK    5  A    between atoms: C_10  and  C_11
REMARK    6  A    between atoms: C_17  and  C_18
REMARK    7  A    between atoms: C_22  and  O_23
REMARK    8  A    between atoms: O_23  and  C_24
REMARK    9  A    between atoms: C_24  and  C_25
REMARK   10  A    between atoms: C_24  and  C_26
REMARK                            x       y       z     vdW  Elec       q    Type
REMARK                         _______ _______ _______ _____ _____    ______ ____
ROOT
ATOM      1  C   UNL     1       4.463   3.902  18.850  0.00  0.00    +0.000 A 
ATOM      2  N   UNL     1       4.528   2.771  19.549  0.00  0.00    +0.000 NA
ATOM      3  N   UNL     1       3.617   2.804  20.581  0.00  0.00    +0.000 NA
ATOM      4  C   UNL     1       2.998   3.965  20.520  0.00  0.00    +0.000 A 
ATOM      5  C   UNL     1       1.984   4.540  21.327  0.00  0.00    +0.000 A 
ATOM      6  C   UNL     1       1.550   5.790  21.063  0.00  0.00    +0.000 A 
ATOM      7  C   UNL     1       2.116   6.577  19.969  0.00  0.00    +0.000 A 
ATOM      8  C   UNL     1       3.083   6.019  19.212  0.00  0.00    +0.000 A 
ATOM      9  N   UNL     1       3.511   4.710  19.459  0.00  0.00    +0.000 N 
ENDROOT
BRANCH   1  15
ATOM     10  C   UNL     1       6.662   4.551  17.793  0.00  0.00    +0.000 A 
ATOM     11  C   UNL     1       7.482   4.718  16.665  0.00  0.00    +0.000 A 
ATOM     12  C   UNL     1       6.947   4.677  15.392  0.00  0.00    +0.000 A 
ATOM     13  C   UNL     1       5.605   4.412  15.220  0.00  0.00    +0.000 A 
ATOM     14  C   UNL     1       4.772   4.130  16.319  0.00  0.00    +0.000 A 
ATOM     15  C   UNL     1       5.290   4.208  17.648  0.00  0.00    +0.000 A 
BRANCH  10  17
ATOM     16  C   UNL     1       7.942   5.918  19.248  0.00  0.00    +0.000 C 
ATOM     17  O   UNL     1       7.194   4.712  19.054  0.00  0.00    +0.000 OA
ENDBRANCH  10  17
BRANCH  14  18
ATOM     18  O   UNL     1       3.457   3.783  16.135  0.00  0.00    +0.000 OA
ATOM     19  C   UNL     1       3.013   2.537  16.669  0.00  0.00    +0.000 C 
ENDBRANCH  14  18
ENDBRANCH   1  15
BRANCH   7  20
ATOM     20  C   UNL     1       1.741   7.967  19.698  0.00  0.00    +0.000 A 
ATOM     21  C   UNL     1       1.901   8.478  18.406  0.00  0.00    +0.000 A 
ATOM     22  C   UNL     1       1.602   9.809  18.138  0.00  0.00    +0.000 A 
ATOM     23  C   UNL     1       1.177  10.644  19.172  0.00  0.00    +0.000 A 
ATOM     24  C   UNL     1       1.046  10.152  20.472  0.00  0.00    +0.000 A 
ATOM     25  C   UNL     1       1.275   8.800  20.726  0.00  0.00    +0.000 A 
BRANCH  24  26
ATOM     26  O   UNL     1       0.721  11.090  21.414  0.00  0.00    +0.000 OA
BRANCH  26  27
ATOM     27  C   UNL     1      -0.619  11.085  21.932  0.00  0.00    +0.000 C 
ATOM     28  C   UNL     1      -0.776  10.160  23.141  0.00  0.00    +0.000 C 
ATOM     29  C   UNL     1      -0.922  12.518  22.373  0.00  0.00    +0.000 C 
ENDBRANCH  26  27
ENDBRANCH  24  26
ENDBRANCH   7  20
TORSDOF 6
ENDMDL
MODEL 3
REMARK VINA RESULT:      -7.3      0.584      2.472
REMARK  Name = 
REMARK  10 active torsions:
REMARK  status: ('A' for Active; 'I' for Inactive)
REMARK    1  A    between atoms: C_1  and  O_2
REMARK    2  A    between atoms: O_2  and  C_3
REMARK    3  A    between atoms: C_7  and  O_8
REMARK    4  A    between atoms: O_8  and  C_9
REMARK    5  A    between atoms: C_10  and  C_11
REMARK    6  A    between atoms: C_17  and  C_18
REMARK    7  A    between atoms: C_22  and  O_23
REMARK    8  A    between atoms: O_23  and  C_24
REMARK    9  A    between atoms: C_24  and  C_25
REMARK   10  A    between atoms: C_24  and  C_26
REMARK                            x       y       z     vdW  Elec       q    Type
REMARK                         _______ _______ _______ _____ _____    ______ ____
ROOT
ATOM      1  C   UNL     1       0.292  12.490  21.425  0.00  0.00    +0.000 A 
ATOM      2  N   UNL     1      -0.514  12.801  22.438  0.00  0.00    +0.000 NA
ATOM      3  N   UNL     1      -0.859  11.662  23.130  0.00  0.00    +0.000 NA
ATOM      4  C   UNL     1      -0.270  10.647  22.533  0.00  0.00    +0.000 A 
ATOM      5  C   UNL     1      -0.280   9.255  22.802  0.00  0.00    +0.000 A 
ATOM      6  C   UNL     1       0.390   8.413  21.989  0.00  0.00    +0.000 A 
ATOM      7  C   UNL     1       1.117   8.902  20.819  0.00  0.00    +0.000 A 
ATOM      8  C   UNL     1       1.114  10.229  20.572  0.00  0.00    +0.000 A 
ATOM      9  N   UNL     1       0.452  11.110  21.433  0.00  0.00    +0.000 N 
ENDROOT
BRANCH   1  15
ATOM     10  C   UNL     1       0.104  13.983  19.397  0.00  0.00    +0.000 A 
ATOM     11  C   UNL     1       0.604  15.002  18.571  0.00  0.00    +0.000 A 
ATOM     12  C   UNL     1       1.906  15.443  18.704  0.00  0.00    +0.000 A 
ATOM     13  C   UNL     1       2.708  14.922  19.696  0.00  0.00    +0.000 A 
ATOM     14  C   UNL     1       2.210  13.979  20.615  0.00  0.00    +0.000 A 
ATOM     15  C   UNL     1       0.882  13.474  20.473  0.00  0.00    +0.000 A 
BRANCH  10  17
ATOM     16  C   UNL     1      -1.216  12.384  18.246  0.00  0.00    +0.000 C 
ATOM     17  O   UNL     1      -1.158  13.476  19.171  0.00  0.00    +0.000 OA
ENDBRANCH  10  17
BRANCH  14  18
ATOM     18  O   UNL     1       2.989  13.528  21.652  0.00  0.00    +0.000 OA
ATOM     19  C   UNL     1       4.210  14.215  21.919  0.00  0.00    +0.000 C 
ENDBRANCH  14  18
ENDBRANCH   1  15
BRANCH   7  20
ATOM     20  C   UNL     1       1.785   8.021  19.858  0.00  0.00    +0.000 A 
ATOM     21  C   UNL     1       2.155   8.529  18.610  0.00  0.00    +0.000 A 
ATOM     22  C   UNL     1       2.742   7.697  17.662  0.00  0.00    +0.000 A 
ATOM     23  C   UNL     1       2.928   6.345  17.950  0.00  0.00    +0.000 A 
ATOM     24  C   UNL     1       2.531   5.821  19.182  0.00  0.00    +0.000 A 
ATOM     25  C   UNL     1       2.010   6.669  20.159  0.00  0.00    +0.000 A 
BRANCH  24  26
ATOM     26  O   UNL     1       2.672   4.465  19.305  0.00  0.00    +0.000 OA
BRANCH  26  27
ATOM     27  C   UNL     1       1.706   3.628  18.650  0.00  0.00    +0.000 C 
ATOM     28  C   UNL     1       2.360   2.517  17.823  0.00  0.00    +0.000 C 
ATOM     29  C   UNL     1       0.867   2.984  19.753  0.00  0.00    +0.000 C 
ENDBRANCH  26  27
ENDBRANCH  24  26
ENDBRANCH   7  20
TORSDOF 6
ENDMDL
MODEL 4
REMARK VINA RESULT:      -7.3      1.152      1.343
REMARK  Name = 
REMARK  10 active torsions:
REMARK  status: ('A' for Active; 'I' for Inactive)
REMARK    1  A    between atoms: C_1  and  O_2
REMARK    2  A    between atoms: O_2  and  C_3
REMARK    3  A    between atoms: C_7  and  O_8
REMARK    4  A    between atoms: O_8  and  C_9
REMARK    5  A    between atoms: C_10  and  C_11
REMARK    6  A    between atoms: C_17  and  C_18
REMARK    7  A    between atoms: C_22  and  O_23
REMARK    8  A    between atoms: O_23  and  C_24
REMARK    9  A    between atoms: C_24  and  C_25
REMARK   10  A    between atoms: C_24  and  C_26
REMARK                            x       y       z     vdW  Elec       q    Type
REMARK                         _______ _______ _______ _____ _____    ______ ____
ROOT
ATOM      1  C   UNL     1      -0.315  12.842  21.692  0.00  0.00    +0.000 A 
ATOM      2  N   UNL     1      -1.091  13.048  22.755  0.00  0.00    +0.000 NA
ATOM      3  N   UNL     1      -1.276  11.866  23.436  0.00  0.00    +0.000 NA
ATOM      4  C   UNL     1      -0.619  10.930  22.783  0.00  0.00    +0.000 A 
ATOM      5  C   UNL     1      -0.470   9.540  23.018  0.00  0.00    +0.000 A 
ATOM      6  C   UNL     1       0.238   8.789  22.148  0.00  0.00    +0.000 A 
ATOM      7  C   UNL     1       0.843   9.374  20.953  0.00  0.00    +0.000 A 
ATOM      8  C   UNL     1       0.688  10.697  20.740  0.00  0.00    +0.000 A 
ATOM      9  N   UNL     1      -0.013  11.487  21.658  0.00  0.00    +0.000 N 
ENDROOT
BRANCH   1  15
ATOM     10  C   UNL     1       1.224  14.735  21.042  0.00  0.00    +0.000 A 
ATOM     11  C   UNL     1       1.716  15.650  20.097  0.00  0.00    +0.000 A 
ATOM     12  C   UNL     1       1.057  15.850  18.900  0.00  0.00    +0.000 A 
ATOM     13  C   UNL     1      -0.062  15.104  18.600  0.00  0.00    +0.000 A 
ATOM     14  C   UNL     1      -0.522  14.099  19.472  0.00  0.00    +0.000 A 
ATOM     15  C   UNL     1       0.114  13.901  20.735  0.00  0.00    +0.000 A 
BRANCH  10  17
ATOM     16  C   UNL     1       3.115  15.257  22.374  0.00  0.00    +0.000 C 
ATOM     17  O   UNL     1       1.828  14.636  22.277  0.00  0.00    +0.000 OA
ENDBRANCH  10  17
BRANCH  14  18
ATOM     18  O   UNL     1      -1.586  13.303  19.129  0.00  0.00    +0.000 OA
ATOM     19  C   UNL     1      -1.372  12.288  18.148  0.00  0.00    +0.000 C 
ENDBRANCH  14  18
ENDBRANCH   1  15
BRANCH   7  20
ATOM     20  C   UNL     1       1.543   8.586  19.936  0.00  0.00    +0.000 A 
ATOM     21  C   UNL     1       1.743   9.136  18.667  0.00  0.00    +0.000 A 
ATOM     22  C   UNL     1       2.359   8.387  17.669  0.00  0.00    +0.000 A 
ATOM     23  C   UNL     1       2.743   7.072  17.930  0.00  0.00    +0.000 A 
ATOM     24  C   UNL     1       2.517   6.502  19.185  0.00  0.00    +0.000 A 
ATOM     25  C   UNL     1       1.967   7.277  20.207  0.00  0.00    +0.000 A 
BRANCH  24  26
ATOM     26  O   UNL     1       2.844   5.177  19.286  0.00  0.00    +0.000 OA
BRANCH  26  27
ATOM     27  C   UNL     1       2.749   4.371  18.101  0.00  0.00    +0.000 C 
ATOM     28  C   UNL     1       3.935   3.415  17.947  0.00  0.00    +0.000 C 
ATOM     29  C   UNL     1       1.471   3.542  18.239  0.00  0.00    +0.000 C 
ENDBRANCH  26  27
ENDBRANCH  24  26
ENDBRANCH   7  20
TORSDOF 6
ENDMDL
MODEL 5
REMARK VINA RESULT:      -7.2      4.125      8.433
REMARK  Name = 
REMARK  10 active torsions:
REMARK  status: ('A' for Active; 'I' for Inactive)
REMARK    1  A    between atoms: C_1  and  O_2
REMARK    2  A    between atoms: O_2  and  C_3
REMARK    3  A    between atoms: C_7  and  O_8
REMARK    4  A    between atoms: O_8  and  C_9
REMARK    5  A    between atoms: C_10  and  C_11
REMARK    6  A    between atoms: C_17  and  C_18
REMARK    7  A    between atoms: C_22  and  O_23
REMARK    8  A    between atoms: O_23  and  C_24
REMARK    9  A    between atoms: C_24  and  C_25
REMARK   10  A    between atoms: C_24  and  C_26
REMARK                            x       y       z     vdW  Elec       q    Type
REMARK                         _______ _______ _______ _____ _____    ______ ____
ROOT
ATOM      1  C   UNL     1       4.999   4.645  19.023  0.00  0.00    +0.000 A 
ATOM      2  N   UNL     1       5.138   3.326  19.139  0.00  0.00    +0.000 NA
ATOM      3  N   UNL     1       4.007   2.784  19.708  0.00  0.00    +0.000 NA
ATOM      4  C   UNL     1       3.175   3.776  19.949  0.00  0.00    +0.000 A 
ATOM      5  C   UNL     1       1.882   3.807  20.529  0.00  0.00    +0.000 A 
ATOM      6  C   UNL     1       1.256   4.990  20.703  0.00  0.00    +0.000 A 
ATOM      7  C   UNL     1       1.892   6.250  20.320  0.00  0.00    +0.000 A 
ATOM      8  C   UNL     1       3.124   6.205  19.774  0.00  0.00    +0.000 A 
ATOM      9  N   UNL     1       3.762   4.979  19.558  0.00  0.00    +0.000 N 
ENDROOT
BRANCH   1  15
ATOM     10  C   UNL     1       5.813   6.114  17.138  0.00  0.00    +0.000 A 
ATOM     11  C   UNL     1       6.701   7.072  16.621  0.00  0.00    +0.000 A 
ATOM     12  C   UNL     1       7.858   7.400  17.301  0.00  0.00    +0.000 A 
ATOM     13  C   UNL     1       8.119   6.828  18.527  0.00  0.00    +0.000 A 
ATOM     14  C   UNL     1       7.200   5.948  19.130  0.00  0.00    +0.000 A 
ATOM     15  C   UNL     1       6.017   5.558  18.430  0.00  0.00    +0.000 A 
BRANCH  10  17
ATOM     16  C   UNL     1       5.008   4.730  15.389  0.00  0.00    +0.000 C 
ATOM     17  O   UNL     1       4.727   5.716  16.389  0.00  0.00    +0.000 OA
ENDBRANCH  10  17
BRANCH  14  18
ATOM     18  O   UNL     1       7.426   5.448  20.388  0.00  0.00    +0.000 OA
ATOM     19  C   UNL     1       8.741   4.993  20.701  0.00  0.00    +0.000 C 
ENDBRANCH  14  18
ENDBRANCH   1  15
BRANCH   7  20
ATOM     20  C   UNL     1       1.291   7.563  20.569  0.00  0.00    +0.000 A 
ATOM     21  C   UNL     1       0.627   7.791  21.777  0.00  0.00    +0.000 A 
ATOM     22  C   UNL     1       0.004   9.013  22.014  0.00  0.00    +0.000 A 
ATOM     23  C   UNL     1       0.013   9.995  21.024  0.00  0.00    +0.000 A 
ATOM     24  C   UNL     1       0.645   9.764  19.800  0.00  0.00    +0.000 A 
ATOM     25  C   UNL     1       1.332   8.569  19.592  0.00  0.00    +0.000 A 
BRANCH  24  26
ATOM     26  O   UNL     1       0.497  10.763  18.876  0.00  0.00    +0.000 OA
BRANCH  26  27
ATOM     27  C   UNL     1      -0.815  11.316  18.690  0.00  0.00    +0.000 C 
ATOM     28  C   UNL     1      -0.776  12.732  18.108  0.00  0.00    +0.000 C 
ATOM     29  C   UNL     1      -1.537  10.403  17.699  0.00  0.00    +0.000 C 
ENDBRANCH  26  27
ENDBRANCH  24  26
ENDBRANCH   7  20
TORSDOF 6
ENDMDL
MODEL 6
REMARK VINA RESULT:      -7.1      4.036      8.768
REMARK  Name = 
REMARK  10 active torsions:
REMARK  status: ('A' for Active; 'I' for Inactive)
REMARK    1  A    between atoms: C_1  and  O_2
REMARK    2  A    between atoms: O_2  and  C_3
REMARK    3  A    between atoms: C_7  and  O_8
REMARK    4  A    between atoms: O_8  and  C_9
REMARK    5  A    between atoms: C_10  and  C_11
REMARK    6  A    between atoms: C_17  and  C_18
REMARK    7  A    between atoms: C_22  and  O_23
REMARK    8  A    between atoms: O_23  and  C_24
REMARK    9  A    between atoms: C_24  and  C_25
REMARK   10  A    between atoms: C_24  and  C_26
REMARK                            x       y       z     vdW  Elec       q    Type
REMARK                         _______ _______ _______ _____ _____    ______ ____
ROOT
ATOM      1  C   UNL     1       4.554   3.858  18.942  0.00  0.00    +0.000 A 
ATOM      2  N   UNL     1       4.646   2.758  19.688  0.00  0.00    +0.000 NA
ATOM      3  N   UNL     1       3.738   2.815  20.721  0.00  0.00    +0.000 NA
ATOM      4  C   UNL     1       3.093   3.958  20.614  0.00  0.00    +0.000 A 
ATOM      5  C   UNL     1       2.069   4.544  21.401  0.00  0.00    +0.000 A 
ATOM      6  C   UNL     1       1.606   5.772  21.086  0.00  0.00    +0.000 A 
ATOM      7  C   UNL     1       2.151   6.525  19.957  0.00  0.00    +0.000 A 
ATOM      8  C   UNL     1       3.128   5.957  19.221  0.00  0.00    +0.000 A 
ATOM      9  N   UNL     1       3.586   4.669  19.520  0.00  0.00    +0.000 N 
ENDROOT
BRANCH   1  15
ATOM     10  C   UNL     1       4.787   4.018  16.433  0.00  0.00    +0.000 A 
ATOM     11  C   UNL     1       5.506   4.393  15.287  0.00  0.00    +0.000 A 
ATOM     12  C   UNL     1       6.835   4.758  15.377  0.00  0.00    +0.000 A 
ATOM     13  C   UNL     1       7.449   4.814  16.610  0.00  0.00    +0.000 A 
ATOM     14  C   UNL     1       6.732   4.553  17.793  0.00  0.00    +0.000 A 
ATOM     15  C   UNL     1       5.370   4.131  17.726  0.00  0.00    +0.000 A 
BRANCH  10  17
ATOM     16  C   UNL     1       3.276   2.239  16.851  0.00  0.00    +0.000 C 
ATOM     17  O   UNL     1       3.498   3.545  16.307  0.00  0.00    +0.000 OA
ENDBRANCH  10  17
BRANCH  14  18
ATOM     18  O   UNL     1       7.328   4.692  19.021  0.00  0.00    +0.000 OA
ATOM     19  C   UNL     1       8.004   5.917  19.302  0.00  0.00    +0.000 C 
ENDBRANCH  14  18
ENDBRANCH   1  15
BRANCH   7  20
ATOM     20  C   UNL     1       1.745   7.894  19.630  0.00  0.00    +0.000 A 
ATOM     21  C   UNL     1       2.057   8.415  18.371  0.00  0.00    +0.000 A 
ATOM     22  C   UNL     1       1.728   9.730  18.057  0.00  0.00    +0.000 A 
ATOM     23  C   UNL     1       1.119  10.537  19.017  0.00  0.00    +0.000 A 
ATOM     24  C   UNL     1       0.833  10.036  20.289  0.00  0.00    +0.000 A 
ATOM     25  C   UNL     1       1.096   8.698  20.579  0.00  0.00    +0.000 A 
BRANCH  24  26
ATOM     26  O   UNL     1       0.330  10.953  21.171  0.00  0.00    +0.000 OA
BRANCH  26  27
ATOM     27  C   UNL     1      -0.664  10.508  22.108  0.00  0.00    +0.000 C 
ATOM     28  C   UNL     1      -0.064   9.686  23.251  0.00  0.00    +0.000 C 
ATOM     29  C   UNL     1      -1.303  11.766  22.697  0.00  0.00    +0.000 C 
ENDBRANCH  26  27
ENDBRANCH  24  26
ENDBRANCH   7  20
TORSDOF 6
ENDMDL
MODEL 7
REMARK VINA RESULT:      -6.9      1.566      3.445
REMARK  Name = 
REMARK  10 active torsions:
REMARK  status: ('A' for Active; 'I' for Inactive)
REMARK    1  A    between atoms: C_1  and  O_2
REMARK    2  A    between atoms: O_2  and  C_3
REMARK    3  A    between atoms: C_7  and  O_8
REMARK    4  A    between atoms: O_8  and  C_9
REMARK    5  A    between atoms: C_10  and  C_11
REMARK    6  A    between atoms: C_17  and  C_18
REMARK    7  A    between atoms: C_22  and  O_23
REMARK    8  A    between atoms: O_23  and  C_24
REMARK    9  A    between atoms: C_24  and  C_25
REMARK   10  A    between atoms: C_24  and  C_26
REMARK                            x       y       z     vdW  Elec       q    Type
REMARK                         _______ _______ _______ _____ _____    ______ ____
ROOT
ATOM      1  C   UNL     1       0.859  12.128  21.104  0.00  0.00    +0.000 A 
ATOM      2  N   UNL     1       0.023  12.655  21.996  0.00  0.00    +0.000 NA
ATOM      3  N   UNL     1      -0.553  11.655  22.747  0.00  0.00    +0.000 NA
ATOM      4  C   UNL     1      -0.075  10.510  22.308  0.00  0.00    +0.000 A 
ATOM      5  C   UNL     1      -0.322   9.169  22.698  0.00  0.00    +0.000 A 
ATOM      6  C   UNL     1       0.282   8.160  22.037  0.00  0.00    +0.000 A 
ATOM      7  C   UNL     1       1.177   8.416  20.910  0.00  0.00    +0.000 A 
ATOM      8  C   UNL     1       1.399   9.696  20.547  0.00  0.00    +0.000 A 
ATOM      9  N   UNL     1       0.804  10.748  21.252  0.00  0.00    +0.000 N 
ENDROOT
BRANCH   1  15
ATOM     10  C   UNL     1       1.310  12.955  18.762  0.00  0.00    +0.000 A 
ATOM     11  C   UNL     1       1.994  13.790  17.863  0.00  0.00    +0.000 A 
ATOM     12  C   UNL     1       3.114  14.491  18.266  0.00  0.00    +0.000 A 
ATOM     13  C   UNL     1       3.534  14.420  19.577  0.00  0.00    +0.000 A 
ATOM     14  C   UNL     1       2.811  13.682  20.533  0.00  0.00    +0.000 A 
ATOM     15  C   UNL     1       1.675  12.913  20.136  0.00  0.00    +0.000 A 
BRANCH  10  17
ATOM     16  C   UNL     1      -0.963  12.873  18.093  0.00  0.00    +0.000 C 
ATOM     17  O   UNL     1       0.268  12.174  18.311  0.00  0.00    +0.000 OA
ENDBRANCH  10  17
BRANCH  14  18
ATOM     18  O   UNL     1       3.186  13.685  21.854  0.00  0.00    +0.000 OA
ATOM     19  C   UNL     1       4.414  14.324  22.199  0.00  0.00    +0.000 C 
ENDBRANCH  14  18
ENDBRANCH   1  15
BRANCH   7  20
ATOM     20  C   UNL     1       1.786   7.353  20.106  0.00  0.00    +0.000 A 
ATOM     21  C   UNL     1       1.724   6.033  20.562  0.00  0.00    +0.000 A 
ATOM     22  C   UNL     1       2.341   5.015  19.842  0.00  0.00    +0.000 A 
ATOM     23  C   UNL     1       3.053   5.322  18.683  0.00  0.00    +0.000 A 
ATOM     24  C   UNL     1       3.150   6.642  18.238  0.00  0.00    +0.000 A 
ATOM     25  C   UNL     1       2.470   7.652  18.918  0.00  0.00    +0.000 A 
BRANCH  24  26
ATOM     26  O   UNL     1       3.959   6.827  17.150  0.00  0.00    +0.000 OA
BRANCH  26  27
ATOM     27  C   UNL     1       5.117   5.986  17.024  0.00  0.00    +0.000 C 
ATOM     28  C   UNL     1       5.308   5.464  15.597  0.00  0.00    +0.000 C 
ATOM     29  C   UNL     1       6.324   6.850  17.392  0.00  0.00    +0.000 C 
ENDBRANCH  26  27
ENDBRANCH  24  26
ENDBRANCH   7  20
TORSDOF 6
ENDMDL
MODEL 8
REMARK VINA RESULT:      -6.8      4.047      8.919
REMARK  Name = 
REMARK  10 active torsions:
REMARK  status: ('A' for Active; 'I' for Inactive)
REMARK    1  A    between atoms: C_1  and  O_2
REMARK    2  A    between atoms: O_2  and  C_3
REMARK    3  A    between atoms: C_7  and  O_8
REMARK    4  A    between atoms: O_8  and  C_9
REMARK    5  A    between atoms: C_10  and  C_11
REMARK    6  A    between atoms: C_17  and  C_18
REMARK    7  A    between atoms: C_22  and  O_23
REMARK    8  A    between atoms: O_23  and  C_24
REMARK    9  A    between atoms: C_24  and  C_25
REMARK   10  A    between atoms: C_24  and  C_26
REMARK                            x       y       z     vdW  Elec       q    Type
REMARK                         _______ _______ _______ _____ _____    ______ ____
ROOT
ATOM      1  C   UNL     1       4.613   3.938  18.796  0.00  0.00    +0.000 A 
ATOM      2  N   UNL     1       4.747   2.862  19.569  0.00  0.00    +0.000 NA
ATOM      3  N   UNL     1       3.873   2.935  20.631  0.00  0.00    +0.000 NA
ATOM      4  C   UNL     1       3.208   4.065  20.513  0.00  0.00    +0.000 A 
ATOM      5  C   UNL     1       2.202   4.659  21.318  0.00  0.00    +0.000 A 
ATOM      6  C   UNL     1       1.711   5.871  20.985  0.00  0.00    +0.000 A 
ATOM      7  C   UNL     1       2.206   6.599  19.817  0.00  0.00    +0.000 A 
ATOM      8  C   UNL     1       3.166   6.024  19.065  0.00  0.00    +0.000 A 
ATOM      9  N   UNL     1       3.652   4.751  19.384  0.00  0.00    +0.000 N 
ENDROOT
BRANCH   1  15
ATOM     10  C   UNL     1       4.722   4.182  16.285  0.00  0.00    +0.000 A 
ATOM     11  C   UNL     1       5.410   4.539  15.114  0.00  0.00    +0.000 A 
ATOM     12  C   UNL     1       6.769   4.779  15.140  0.00  0.00    +0.000 A 
ATOM     13  C   UNL     1       7.453   4.726  16.336  0.00  0.00    +0.000 A 
ATOM     14  C   UNL     1       6.780   4.481  17.548  0.00  0.00    +0.000 A 
ATOM     15  C   UNL     1       5.383   4.187  17.545  0.00  0.00    +0.000 A 
BRANCH  10  17
ATOM     16  C   UNL     1       3.077   2.533  16.729  0.00  0.00    +0.000 C 
ATOM     17  O   UNL     1       3.391   3.833  16.217  0.00  0.00    +0.000 OA
ENDBRANCH  10  17
BRANCH  14  18
ATOM     18  O   UNL     1       7.452   4.514  18.744  0.00  0.00    +0.000 OA
ATOM     19  C   UNL     1       7.648   5.783  19.367  0.00  0.00    +0.000 C 
ENDBRANCH  14  18
ENDBRANCH   1  15
BRANCH   7  20
ATOM     20  C   UNL     1       1.768   7.952  19.466  0.00  0.00    +0.000 A 
ATOM     21  C   UNL     1       2.085   8.465  18.205  0.00  0.00    +0.000 A 
ATOM     22  C   UNL     1       1.726   9.766  17.869  0.00  0.00    +0.000 A 
ATOM     23  C   UNL     1       1.081  10.569  18.809  0.00  0.00    +0.000 A 
ATOM     24  C   UNL     1       0.789  10.077  20.082  0.00  0.00    +0.000 A 
ATOM     25  C   UNL     1       1.083   8.750  20.394  0.00  0.00    +0.000 A 
BRANCH  24  26
ATOM     26  O   UNL     1       0.248  10.992  20.945  0.00  0.00    +0.000 OA
BRANCH  26  27
ATOM     27  C   UNL     1      -0.057  12.298  20.433  0.00  0.00    +0.000 C 
ATOM     28  C   UNL     1      -1.447  12.782  20.856  0.00  0.00    +0.000 C 
ATOM     29  C   UNL     1       0.988  13.251  21.017  0.00  0.00    +0.000 C 
ENDBRANCH  26  27
ENDBRANCH  24  26
ENDBRANCH   7  20
TORSDOF 6
ENDMDL
MODEL 9
REMARK VINA RESULT:      -6.8      4.390      7.679
REMARK  Name = 
REMARK  10 active torsions:
REMARK  status: ('A' for Active; 'I' for Inactive)
REMARK    1  A    between atoms: C_1  and  O_2
REMARK    2  A    between atoms: O_2  and  C_3
REMARK    3  A    between atoms: C_7  and  O_8
REMARK    4  A    between atoms: O_8  and  C_9
REMARK    5  A    between atoms: C_10  and  C_11
REMARK    6  A    between atoms: C_17  and  C_18
REMARK    7  A    between atoms: C_22  and  O_23
REMARK    8  A    between atoms: O_23  and  C_24
REMARK    9  A    between atoms: C_24  and  C_25
REMARK   10  A    between atoms: C_24  and  C_26
REMARK                            x       y       z     vdW  Elec       q    Type
REMARK                         _______ _______ _______ _____ _____    ______ ____
ROOT
ATOM      1  C   UNL     1      -0.527  13.346  22.089  0.00  0.00    +0.000 A 
ATOM      2  N   UNL     1       0.372  14.221  22.535  0.00  0.00    +0.000 NA
ATOM      3  N   UNL     1      -0.225  15.103  23.407  0.00  0.00    +0.000 NA
ATOM      4  C   UNL     1      -1.498  14.774  23.489  0.00  0.00    +0.000 A 
ATOM      5  C   UNL     1      -2.576  15.336  24.218  0.00  0.00    +0.000 A 
ATOM      6  C   UNL     1      -3.815  14.818  24.083  0.00  0.00    +0.000 A 
ATOM      7  C   UNL     1      -4.077  13.696  23.183  0.00  0.00    +0.000 A 
ATOM      8  C   UNL     1      -3.042  13.175  22.492  0.00  0.00    +0.000 A 
ATOM      9  N   UNL     1      -1.749  13.684  22.656  0.00  0.00    +0.000 N 
ENDROOT
BRANCH   1  15
ATOM     10  C   UNL     1      -0.197  12.472  19.743  0.00  0.00    +0.000 A 
ATOM     11  C   UNL     1       0.201  11.462  18.853  0.00  0.00    +0.000 A 
ATOM     12  C   UNL     1       0.444  10.180  19.304  0.00  0.00    +0.000 A 
ATOM     13  C   UNL     1       0.353   9.897  20.650  0.00  0.00    +0.000 A 
ATOM     14  C   UNL     1       0.065  10.907  21.587  0.00  0.00    +0.000 A 
ATOM     15  C   UNL     1      -0.233  12.231  21.144  0.00  0.00    +0.000 A 
BRANCH  10  17
ATOM     16  C   UNL     1       0.548  14.528  18.827  0.00  0.00    +0.000 C 
ATOM     17  O   UNL     1      -0.548  13.713  19.257  0.00  0.00    +0.000 OA
ENDBRANCH  10  17
BRANCH  14  18
ATOM     18  O   UNL     1       0.060  10.636  22.933  0.00  0.00    +0.000 OA
ATOM     19  C   UNL     1       0.068   9.269  23.341  0.00  0.00    +0.000 C 
ENDBRANCH  14  18
ENDBRANCH   1  15
BRANCH   7  20
ATOM     20  C   UNL     1      -5.416  13.157  22.936  0.00  0.00    +0.000 A 
ATOM     21  C   UNL     1      -6.271  12.932  24.019  0.00  0.00    +0.000 A 
ATOM     22  C   UNL     1      -7.528  12.371  23.813  0.00  0.00    +0.000 A 
ATOM     23  C   UNL     1      -7.916  12.001  22.526  0.00  0.00    +0.000 A 
ATOM     24  C   UNL     1      -7.057  12.191  21.442  0.00  0.00    +0.000 A 
ATOM     25  C   UNL     1      -5.827  12.820  21.638  0.00  0.00    +0.000 A 
BRANCH  24  26
ATOM     26  O   UNL     1      -7.511  11.694  20.251  0.00  0.00    +0.000 OA
BRANCH  26  27
ATOM     27  C   UNL     1      -6.617  10.876  19.480  0.00  0.00    +0.000 C 
ATOM     28  C   UNL     1      -7.031   9.402  19.474  0.00  0.00    +0.000 C 
ATOM     29  C   UNL     1      -6.671  11.402  18.045  0.00  0.00    +0.000 C 
ENDBRANCH  26  27
ENDBRANCH  24  26
ENDBRANCH   7  20
TORSDOF 6
ENDMDL
