MODEL 1
REMARK VINA RESULT:      -8.8      0.000      0.000
REMARK  Name = 
REMARK  4 active torsions:
REMARK  status: ('A' for Active; 'I' for Inactive)
REMARK    1  A    between atoms: C_2  and  C_16
REMARK    2  A    between atoms: N_3  and  C_4
REMARK    3  A    between atoms: C_12  and  O_13
REMARK    4  A    between atoms: C_14  and  O_15
REMARK                            x       y       z     vdW  Elec       q    Type
REMARK                         _______ _______ _______ _____ _____    ______ ____
ROOT
ATOM      1  O   UNL     1       1.466   9.527  20.272  0.00  0.00    +0.000 OA
ATOM      2  C   UNL     1       1.002   9.215  19.182  0.00  0.00    +0.000 C 
ATOM      3  N   UNL     1       1.426   8.173  18.388  0.00  0.00    +0.000 N 
ATOM      4  H   UNL     1       0.853   7.982  17.582  0.00  0.00    +0.000 HD
ENDROOT
BRANCH   2   5
ATOM      5  C   UNL     1      -0.084   9.971  18.574  0.00  0.00    +0.000 A 
ATOM      6  C   UNL     1      -0.853  11.014  19.067  0.00  0.00    +0.000 A 
ATOM      7  C   UNL     1      -2.020  11.079  18.269  0.00  0.00    +0.000 A 
ATOM      8  C   UNL     1      -3.315  11.588  18.458  0.00  0.00    +0.000 A 
ATOM      9  C   UNL     1      -4.223  11.473  17.405  0.00  0.00    +0.000 A 
ATOM     10 CL   UNL     1      -5.894  11.773  17.699  0.00  0.00    +0.000 Cl
ATOM     11  C   UNL     1      -3.815  11.048  16.141  0.00  0.00    +0.000 A 
ATOM     12  C   UNL     1      -2.534  10.520  15.944  0.00  0.00    +0.000 A 
ATOM     13  C   UNL     1      -1.720  10.430  17.077  0.00  0.00    +0.000 A 
ATOM     14  N   UNL     1      -0.616   9.652  17.340  0.00  0.00    +0.000 N 
ATOM     15  H   UNL     1      -0.348   8.835  16.807  0.00  0.00    +0.000 HD
ENDBRANCH   2   5
BRANCH   3  16
ATOM     16  C   UNL     1       2.521   7.309  18.542  0.00  0.00    +0.000 A 
ATOM     17  C   UNL     1       2.656   6.381  19.566  0.00  0.00    +0.000 A 
ATOM     18  C   UNL     1       3.785   5.559  19.620  0.00  0.00    +0.000 A 
ATOM     19  C   UNL     1       4.809   5.659  18.659  0.00  0.00    +0.000 A 
ATOM     20  C   UNL     1       4.695   6.619  17.644  0.00  0.00    +0.000 A 
ATOM     21  C   UNL     1       3.554   7.435  17.601  0.00  0.00    +0.000 A 
ATOM     22  C   UNL     1       5.734   6.784  16.561  0.00  0.00    +0.000 C 
ATOM     23  C   UNL     1       7.065   6.132  16.904  0.00  0.00    +0.000 C 
ATOM     24  C   UNL     1       6.833   4.719  17.431  0.00  0.00    +0.000 C 
ATOM     25  C   UNL     1       6.018   4.759  18.746  0.00  0.00    +0.000 C 
BRANCH  24  26
ATOM     26  O   UNL     1       8.104   4.103  17.659  0.00  0.00    +0.000 OA
ATOM     27  H   UNL     1       7.903   3.262  18.120  0.00  0.00    +0.000 HD
ENDBRANCH  24  26
BRANCH  25  28
ATOM     28  O   UNL     1       6.895   5.217  19.786  0.00  0.00    +0.000 OA
ATOM     29  H   UNL     1       7.528   4.501  19.975  0.00  0.00    +0.000 HD
ENDBRANCH  25  28
ENDBRANCH   3  16
TORSDOF 4
ENDMDL
MODEL 2
REMARK VINA RESULT:      -8.3      2.735      3.181
REMARK  Name = 
REMARK  4 active torsions:
REMARK  status: ('A' for Active; 'I' for Inactive)
REMARK    1  A    between atoms: C_2  and  C_16
REMARK    2  A    between atoms: N_3  and  C_4
REMARK    3  A    between atoms: C_12  and  O_13
REMARK    4  A    between atoms: C_14  and  O_15
REMARK                            x       y       z     vdW  Elec       q    Type
REMARK                         _______ _______ _______ _____ _____    ______ ____
ROOT
ATOM      1  O   UNL     1       0.711   9.396  17.906  0.00  0.00    +0.000 OA
ATOM      2  C   UNL     1       0.879   9.377  19.119  0.00  0.00    +0.000 C 
ATOM      3  N   UNL     1       1.657   8.479  19.818  0.00  0.00    +0.000 N 
ATOM      4  H   UNL     1       1.782   8.685  20.795  0.00  0.00    +0.000 HD
ENDROOT
BRANCH   2   5
ATOM      5  C   UNL     1       0.217  10.335  19.993  0.00  0.00    +0.000 A 
ATOM      6  C   UNL     1       0.287  10.513  21.366  0.00  0.00    +0.000 A 
ATOM      7  C   UNL     1      -0.854  11.260  21.744  0.00  0.00    +0.000 A 
ATOM      8  C   UNL     1      -1.573  11.422  22.940  0.00  0.00    +0.000 A 
ATOM      9  C   UNL     1      -2.676  12.276  22.930  0.00  0.00    +0.000 A 
ATOM     10 CL   UNL     1      -3.773  12.250  24.258  0.00  0.00    +0.000 Cl
ATOM     11  C   UNL     1      -2.947  13.093  21.833  0.00  0.00    +0.000 A 
ATOM     12  C   UNL     1      -2.253  12.927  20.629  0.00  0.00    +0.000 A 
ATOM     13  C   UNL     1      -1.307  11.899  20.596  0.00  0.00    +0.000 A 
ATOM     14  N   UNL     1      -0.745  11.217  19.541  0.00  0.00    +0.000 N 
ATOM     15  H   UNL     1      -1.112  11.213  18.598  0.00  0.00    +0.000 HD
ENDBRANCH   2   5
BRANCH   3  16
ATOM     16  C   UNL     1       2.333   7.334  19.371  0.00  0.00    +0.000 A 
ATOM     17  C   UNL     1       2.244   6.083  19.964  0.00  0.00    +0.000 A 
ATOM     18  C   UNL     1       2.953   5.003  19.430  0.00  0.00    +0.000 A 
ATOM     19  C   UNL     1       3.777   5.158  18.299  0.00  0.00    +0.000 A 
ATOM     20  C   UNL     1       3.900   6.427  17.718  0.00  0.00    +0.000 A 
ATOM     21  C   UNL     1       3.180   7.500  18.264  0.00  0.00    +0.000 A 
ATOM     22  C   UNL     1       4.746   6.682  16.494  0.00  0.00    +0.000 C 
ATOM     23  C   UNL     1       5.749   5.571  16.217  0.00  0.00    +0.000 C 
ATOM     24  C   UNL     1       5.061   4.212  16.313  0.00  0.00    +0.000 C 
ATOM     25  C   UNL     1       4.533   3.973  17.747  0.00  0.00    +0.000 C 
BRANCH  24  26
ATOM     26  O   UNL     1       6.005   3.198  15.960  0.00  0.00    +0.000 OA
ATOM     27  H   UNL     1       6.160   3.313  15.000  0.00  0.00    +0.000 HD
ENDBRANCH  24  26
BRANCH  25  28
ATOM     28  O   UNL     1       5.664   3.682  18.582  0.00  0.00    +0.000 OA
ATOM     29  H   UNL     1       5.441   3.961  19.488  0.00  0.00    +0.000 HD
ENDBRANCH  25  28
ENDBRANCH   3  16
TORSDOF 4
ENDMDL
MODEL 3
REMARK VINA RESULT:      -8.3      3.825      4.775
REMARK  Name = 
REMARK  4 active torsions:
REMARK  status: ('A' for Active; 'I' for Inactive)
REMARK    1  A    between atoms: C_2  and  C_16
REMARK    2  A    between atoms: N_3  and  C_4
REMARK    3  A    between atoms: C_12  and  O_13
REMARK    4  A    between atoms: C_14  and  O_15
REMARK                            x       y       z     vdW  Elec       q    Type
REMARK                         _______ _______ _______ _____ _____    ______ ____
ROOT
ATOM      1  O   UNL     1       0.699   9.873  18.813  0.00  0.00    +0.000 OA
ATOM      2  C   UNL     1       0.820   9.613  20.004  0.00  0.00    +0.000 C 
ATOM      3  N   UNL     1       1.390   8.475  20.533  0.00  0.00    +0.000 N 
ATOM      4  H   UNL     1       1.519   8.481  21.532  0.00  0.00    +0.000 HD
ENDROOT
BRANCH   2   5
ATOM      5  C   UNL     1       0.323  10.515  21.033  0.00  0.00    +0.000 A 
ATOM      6  C   UNL     1      -0.412  10.267  22.182  0.00  0.00    +0.000 A 
ATOM      7  C   UNL     1      -0.992  11.498  22.574  0.00  0.00    +0.000 A 
ATOM      8  C   UNL     1      -2.107  11.858  23.348  0.00  0.00    +0.000 A 
ATOM      9  C   UNL     1      -2.367  13.217  23.527  0.00  0.00    +0.000 A 
ATOM     10 CL   UNL     1      -3.888  13.704  24.175  0.00  0.00    +0.000 Cl
ATOM     11  C   UNL     1      -1.453  14.188  23.121  0.00  0.00    +0.000 A 
ATOM     12  C   UNL     1      -0.349  13.844  22.332  0.00  0.00    +0.000 A 
ATOM     13  C   UNL     1      -0.241  12.499  21.970  0.00  0.00    +0.000 A 
ATOM     14  N   UNL     1       0.441  11.889  20.942  0.00  0.00    +0.000 N 
ATOM     15  H   UNL     1       0.808  12.369  20.130  0.00  0.00    +0.000 HD
ENDBRANCH   2   5
BRANCH   3  16
ATOM     16  C   UNL     1       1.851   7.315  19.891  0.00  0.00    +0.000 A 
ATOM     17  C   UNL     1       2.565   7.303  18.701  0.00  0.00    +0.000 A 
ATOM     18  C   UNL     1       2.988   6.089  18.153  0.00  0.00    +0.000 A 
ATOM     19  C   UNL     1       2.692   4.862  18.776  0.00  0.00    +0.000 A 
ATOM     20  C   UNL     1       1.939   4.867  19.959  0.00  0.00    +0.000 A 
ATOM     21  C   UNL     1       1.525   6.094  20.499  0.00  0.00    +0.000 A 
ATOM     22  C   UNL     1       1.591   3.602  20.705  0.00  0.00    +0.000 C 
ATOM     23  C   UNL     1       1.757   2.345  19.864  0.00  0.00    +0.000 C 
ATOM     24  C   UNL     1       3.101   2.375  19.142  0.00  0.00    +0.000 C 
ATOM     25  C   UNL     1       3.160   3.567  18.157  0.00  0.00    +0.000 C 
BRANCH  24  26
ATOM     26  O   UNL     1       3.265   1.144  18.433  0.00  0.00    +0.000 OA
ATOM     27  H   UNL     1       3.407   0.466  19.126  0.00  0.00    +0.000 HD
ENDBRANCH  24  26
BRANCH  25  28
ATOM     28  O   UNL     1       2.335   3.239  17.029  0.00  0.00    +0.000 OA
ATOM     29  H   UNL     1       2.837   3.457  16.223  0.00  0.00    +0.000 HD
ENDBRANCH  25  28
ENDBRANCH   3  16
TORSDOF 4
ENDMDL
MODEL 4
REMARK VINA RESULT:      -8.2      6.891      9.060
REMARK  Name = 
REMARK  4 active torsions:
REMARK  status: ('A' for Active; 'I' for Inactive)
REMARK    1  A    between atoms: C_2  and  C_16
REMARK    2  A    between atoms: N_3  and  C_4
REMARK    3  A    between atoms: C_12  and  O_13
REMARK    4  A    between atoms: C_14  and  O_15
REMARK                            x       y       z     vdW  Elec       q    Type
REMARK                         _______ _______ _______ _____ _____    ______ ____
ROOT
ATOM      1  O   UNL     1       8.054   7.069  16.477  0.00  0.00    +0.000 OA
ATOM      2  C   UNL     1       7.628   7.571  17.510  0.00  0.00    +0.000 C 
ATOM      3  N   UNL     1       6.617   7.068  18.300  0.00  0.00    +0.000 N 
ATOM      4  H   UNL     1       6.478   7.542  19.177  0.00  0.00    +0.000 HD
ENDROOT
BRANCH   2   5
ATOM      5  C   UNL     1       8.155   8.830  18.017  0.00  0.00    +0.000 A 
ATOM      6  C   UNL     1       8.195  10.093  17.448  0.00  0.00    +0.000 A 
ATOM      7  C   UNL     1       9.180  10.830  18.148  0.00  0.00    +0.000 A 
ATOM      8  C   UNL     1       9.970  11.952  17.847  0.00  0.00    +0.000 A 
ATOM      9  C   UNL     1      10.853  12.411  18.824  0.00  0.00    +0.000 A 
ATOM     10 CL   UNL     1      12.065  13.557  18.391  0.00  0.00    +0.000 Cl
ATOM     11  C   UNL     1      10.821  11.905  20.123  0.00  0.00    +0.000 A 
ATOM     12  C   UNL     1      10.055  10.775  20.431  0.00  0.00    +0.000 A 
ATOM     13  C   UNL     1       9.357  10.192  19.370  0.00  0.00    +0.000 A 
ATOM     14  N   UNL     1       8.848   8.924  19.208  0.00  0.00    +0.000 N 
ATOM     15  H   UNL     1       9.104   8.124  19.774  0.00  0.00    +0.000 HD
ENDBRANCH   2   5
BRANCH   3  16
ATOM     16  C   UNL     1       5.767   5.972  18.088  0.00  0.00    +0.000 A 
ATOM     17  C   UNL     1       5.777   5.174  16.953  0.00  0.00    +0.000 A 
ATOM     18  C   UNL     1       4.893   4.097  16.848  0.00  0.00    +0.000 A 
ATOM     19  C   UNL     1       3.971   3.805  17.871  0.00  0.00    +0.000 A 
ATOM     20  C   UNL     1       3.932   4.630  19.004  0.00  0.00    +0.000 A 
ATOM     21  C   UNL     1       4.828   5.705  19.096  0.00  0.00    +0.000 A 
ATOM     22  C   UNL     1       2.990   4.381  20.158  0.00  0.00    +0.000 C 
ATOM     23  C   UNL     1       1.842   3.449  19.803  0.00  0.00    +0.000 C 
ATOM     24  C   UNL     1       2.374   2.222  19.068  0.00  0.00    +0.000 C 
ATOM     25  C   UNL     1       3.027   2.635  17.727  0.00  0.00    +0.000 C 
BRANCH  24  26
ATOM     26  O   UNL     1       1.285   1.326  18.829  0.00  0.00    +0.000 OA
ATOM     27  H   UNL     1       0.597   1.579  19.479  0.00  0.00    +0.000 HD
ENDBRANCH  24  26
BRANCH  25  28
ATOM     28  O   UNL     1       1.970   2.970  16.815  0.00  0.00    +0.000 OA
ATOM     29  H   UNL     1       1.228   3.321  17.339  0.00  0.00    +0.000 HD
ENDBRANCH  25  28
ENDBRANCH   3  16
TORSDOF 4
ENDMDL
MODEL 5
REMARK VINA RESULT:      -8.2      3.179      4.092
REMARK  Name = 
REMARK  4 active torsions:
REMARK  status: ('A' for Active; 'I' for Inactive)
REMARK    1  A    between atoms: C_2  and  C_16
REMARK    2  A    between atoms: N_3  and  C_4
REMARK    3  A    between atoms: C_12  and  O_13
REMARK    4  A    between atoms: C_14  and  O_15
REMARK                            x       y       z     vdW  Elec       q    Type
REMARK                         _______ _______ _______ _____ _____    ______ ____
ROOT
ATOM      1  O   UNL     1       0.668   9.659  18.139  0.00  0.00    +0.000 OA
ATOM      2  C   UNL     1       0.720   9.578  19.360  0.00  0.00    +0.000 C 
ATOM      3  N   UNL     1       1.392   8.616  20.082  0.00  0.00    +0.000 N 
ATOM      4  H   UNL     1       1.432   8.772  21.076  0.00  0.00    +0.000 HD
ENDROOT
BRANCH   2   5
ATOM      5  C   UNL     1       0.017  10.525  20.214  0.00  0.00    +0.000 A 
ATOM      6  C   UNL     1       0.083  10.736  21.583  0.00  0.00    +0.000 A 
ATOM      7  C   UNL     1      -1.091  11.439  21.948  0.00  0.00    +0.000 A 
ATOM      8  C   UNL     1      -1.813  11.595  23.142  0.00  0.00    +0.000 A 
ATOM      9  C   UNL     1      -2.954  12.398  23.116  0.00  0.00    +0.000 A 
ATOM     10 CL   UNL     1      -4.045  12.353  24.449  0.00  0.00    +0.000 Cl
ATOM     11  C   UNL     1      -3.264  13.177  22.002  0.00  0.00    +0.000 A 
ATOM     12  C   UNL     1      -2.566  13.016  20.801  0.00  0.00    +0.000 A 
ATOM     13  C   UNL     1      -1.574  12.031  20.787  0.00  0.00    +0.000 A 
ATOM     14  N   UNL     1      -0.985  11.352  19.746  0.00  0.00    +0.000 N 
ATOM     15  H   UNL     1      -1.354  11.311  18.804  0.00  0.00    +0.000 HD
ENDBRANCH   2   5
BRANCH   3  16
ATOM     16  C   UNL     1       2.061   7.463  19.644  0.00  0.00    +0.000 A 
ATOM     17  C   UNL     1       2.804   7.378  18.476  0.00  0.00    +0.000 A 
ATOM     18  C   UNL     1       3.442   6.181  18.139  0.00  0.00    +0.000 A 
ATOM     19  C   UNL     1       3.336   5.040  18.957  0.00  0.00    +0.000 A 
ATOM     20  C   UNL     1       2.555   5.109  20.120  0.00  0.00    +0.000 A 
ATOM     21  C   UNL     1       1.925   6.320  20.447  0.00  0.00    +0.000 A 
ATOM     22  C   UNL     1       2.401   3.943  21.065  0.00  0.00    +0.000 C 
ATOM     23  C   UNL     1       2.802   2.613  20.446  0.00  0.00    +0.000 C 
ATOM     24  C   UNL     1       4.144   2.753  19.734  0.00  0.00    +0.000 C 
ATOM     25  C   UNL     1       4.034   3.760  18.564  0.00  0.00    +0.000 C 
BRANCH  24  26
ATOM     26  O   UNL     1       4.535   1.468  19.241  0.00  0.00    +0.000 OA
ATOM     27  H   UNL     1       5.508   1.439  19.345  0.00  0.00    +0.000 HD
ENDBRANCH  24  26
BRANCH  25  28
ATOM     28  O   UNL     1       3.313   3.116  17.503  0.00  0.00    +0.000 OA
ATOM     29  H   UNL     1       3.536   3.574  16.674  0.00  0.00    +0.000 HD
ENDBRANCH  25  28
ENDBRANCH   3  16
TORSDOF 4
ENDMDL
MODEL 6
REMARK VINA RESULT:      -8.0      1.097      1.138
REMARK  Name = 
REMARK  4 active torsions:
REMARK  status: ('A' for Active; 'I' for Inactive)
REMARK    1  A    between atoms: C_2  and  C_16
REMARK    2  A    between atoms: N_3  and  C_4
REMARK    3  A    between atoms: C_12  and  O_13
REMARK    4  A    between atoms: C_14  and  O_15
REMARK                            x       y       z     vdW  Elec       q    Type
REMARK                         _______ _______ _______ _____ _____    ______ ____
ROOT
ATOM      1  O   UNL     1       2.551  10.147  18.202  0.00  0.00    +0.000 OA
ATOM      2  C   UNL     1       1.513   9.514  18.057  0.00  0.00    +0.000 C 
ATOM      3  N   UNL     1       1.403   8.142  17.977  0.00  0.00    +0.000 N 
ATOM      4  H   UNL     1       0.463   7.783  17.983  0.00  0.00    +0.000 HD
ENDROOT
BRANCH   2   5
ATOM      5  C   UNL     1       0.227  10.182  17.921  0.00  0.00    +0.000 A 
ATOM      6  C   UNL     1      -0.261  11.342  18.504  0.00  0.00    +0.000 A 
ATOM      7  C   UNL     1      -1.671  11.301  18.388  0.00  0.00    +0.000 A 
ATOM      8  C   UNL     1      -2.734  11.903  19.080  0.00  0.00    +0.000 A 
ATOM      9  C   UNL     1      -4.033  11.621  18.657  0.00  0.00    +0.000 A 
ATOM     10 CL   UNL     1      -5.360  12.059  19.666  0.00  0.00    +0.000 Cl
ATOM     11  C   UNL     1      -4.273  10.925  17.473  0.00  0.00    +0.000 A 
ATOM     12  C   UNL     1      -3.225  10.303  16.785  0.00  0.00    +0.000 A 
ATOM     13  C   UNL     1      -1.957  10.407  17.363  0.00  0.00    +0.000 A 
ATOM     14  N   UNL     1      -0.823   9.644  17.202  0.00  0.00    +0.000 N 
ATOM     15  H   UNL     1      -0.803   8.722  16.785  0.00  0.00    +0.000 HD
ENDBRANCH   2   5
BRANCH   3  16
ATOM     16  C   UNL     1       2.404   7.159  17.920  0.00  0.00    +0.000 A 
ATOM     17  C   UNL     1       2.199   5.810  18.172  0.00  0.00    +0.000 A 
ATOM     18  C   UNL     1       3.265   4.912  18.076  0.00  0.00    +0.000 A 
ATOM     19  C   UNL     1       4.561   5.348  17.740  0.00  0.00    +0.000 A 
ATOM     20  C   UNL     1       4.781   6.715  17.521  0.00  0.00    +0.000 A 
ATOM     21  C   UNL     1       3.700   7.604  17.617  0.00  0.00    +0.000 A 
ATOM     22  C   UNL     1       6.132   7.270  17.138  0.00  0.00    +0.000 C 
ATOM     23  C   UNL     1       7.276   6.308  17.420  0.00  0.00    +0.000 C 
ATOM     24  C   UNL     1       6.927   4.916  16.901  0.00  0.00    +0.000 C 
ATOM     25  C   UNL     1       5.693   4.354  17.647  0.00  0.00    +0.000 C 
BRANCH  24  26
ATOM     26  O   UNL     1       8.055   4.059  17.101  0.00  0.00    +0.000 OA
ATOM     27  H   UNL     1       8.516   4.037  16.237  0.00  0.00    +0.000 HD
ENDBRANCH  24  26
BRANCH  25  28
ATOM     28  O   UNL     1       6.119   3.973  18.964  0.00  0.00    +0.000 OA
ATOM     29  H   UNL     1       7.079   3.812  18.929  0.00  0.00    +0.000 HD
ENDBRANCH  25  28
ENDBRANCH   3  16
TORSDOF 4
ENDMDL
MODEL 7
REMARK VINA RESULT:      -7.9      7.875     10.669
REMARK  Name = 
REMARK  4 active torsions:
REMARK  status: ('A' for Active; 'I' for Inactive)
REMARK    1  A    between atoms: C_2  and  C_16
REMARK    2  A    between atoms: N_3  and  C_4
REMARK    3  A    between atoms: C_12  and  O_13
REMARK    4  A    between atoms: C_14  and  O_15
REMARK                            x       y       z     vdW  Elec       q    Type
REMARK                         _______ _______ _______ _____ _____    ______ ____
ROOT
ATOM      1  O   UNL     1       9.274  10.258  20.074  0.00  0.00    +0.000 OA
ATOM      2  C   UNL     1       9.161  10.026  18.876  0.00  0.00    +0.000 C 
ATOM      3  N   UNL     1       9.564  10.850  17.848  0.00  0.00    +0.000 N 
ATOM      4  H   UNL     1       9.507  10.449  16.926  0.00  0.00    +0.000 HD
ENDROOT
BRANCH   2   5
ATOM      5  C   UNL     1       8.532   8.804  18.396  0.00  0.00    +0.000 A 
ATOM      6  C   UNL     1       7.695   8.577  17.314  0.00  0.00    +0.000 A 
ATOM      7  C   UNL     1       7.035   7.348  17.554  0.00  0.00    +0.000 A 
ATOM      8  C   UNL     1       5.836   6.771  17.105  0.00  0.00    +0.000 A 
ATOM      9  C   UNL     1       5.511   5.495  17.569  0.00  0.00    +0.000 A 
ATOM     10 CL   UNL     1       3.917   4.891  17.319  0.00  0.00    +0.000 Cl
ATOM     11  C   UNL     1       6.426   4.735  18.295  0.00  0.00    +0.000 A 
ATOM     12  C   UNL     1       7.614   5.305  18.766  0.00  0.00    +0.000 A 
ATOM     13  C   UNL     1       7.806   6.660  18.483  0.00  0.00    +0.000 A 
ATOM     14  N   UNL     1       8.609   7.606  19.079  0.00  0.00    +0.000 N 
ATOM     15  H   UNL     1       9.038   7.505  19.990  0.00  0.00    +0.000 HD
ENDBRANCH   2   5
BRANCH   3  16
ATOM     16  C   UNL     1      10.073  12.157  17.886  0.00  0.00    +0.000 A 
ATOM     17  C   UNL     1      11.422  12.476  17.946  0.00  0.00    +0.000 A 
ATOM     18  C   UNL     1      11.823  13.815  17.968  0.00  0.00    +0.000 A 
ATOM     19  C   UNL     1      10.881  14.861  17.945  0.00  0.00    +0.000 A 
ATOM     20  C   UNL     1       9.516  14.544  17.921  0.00  0.00    +0.000 A 
ATOM     21  C   UNL     1       9.129  13.195  17.896  0.00  0.00    +0.000 A 
ATOM     22  C   UNL     1       8.437  15.598  17.876  0.00  0.00    +0.000 C 
ATOM     23  C   UNL     1       8.934  16.980  18.275  0.00  0.00    +0.000 C 
ATOM     24  C   UNL     1      10.240  17.294  17.551  0.00  0.00    +0.000 C 
ATOM     25  C   UNL     1      11.346  16.297  17.973  0.00  0.00    +0.000 C 
BRANCH  24  26
ATOM     26  O   UNL     1      10.632  18.630  17.878  0.00  0.00    +0.000 OA
ATOM     27  H   UNL     1       9.812  19.162  17.810  0.00  0.00    +0.000 HD
ENDBRANCH  24  26
BRANCH  25  28
ATOM     28  O   UNL     1      11.765  16.650  19.300  0.00  0.00    +0.000 OA
ATOM     29  H   UNL     1      11.047  17.165  19.709  0.00  0.00    +0.000 HD
ENDBRANCH  25  28
ENDBRANCH   3  16
TORSDOF 4
ENDMDL
MODEL 8
REMARK VINA RESULT:      -7.9      2.015      2.964
REMARK  Name = 
REMARK  4 active torsions:
REMARK  status: ('A' for Active; 'I' for Inactive)
REMARK    1  A    between atoms: C_2  and  C_16
REMARK    2  A    between atoms: N_3  and  C_4
REMARK    3  A    between atoms: C_12  and  O_13
REMARK    4  A    between atoms: C_14  and  O_15
REMARK                            x       y       z     vdW  Elec       q    Type
REMARK                         _______ _______ _______ _____ _____    ______ ____
ROOT
ATOM      1  O   UNL     1       2.591  10.032  17.464  0.00  0.00    +0.000 OA
ATOM      2  C   UNL     1       1.645   9.673  18.154  0.00  0.00    +0.000 C 
ATOM      3  N   UNL     1       1.525   8.462  18.801  0.00  0.00    +0.000 N 
ATOM      4  H   UNL     1       0.739   8.381  19.425  0.00  0.00    +0.000 HD
ENDROOT
BRANCH   2   5
ATOM      5  C   UNL     1       0.480  10.524  18.349  0.00  0.00    +0.000 A 
ATOM      6  C   UNL     1       0.284  11.623  19.171  0.00  0.00    +0.000 A 
ATOM      7  C   UNL     1      -1.114  11.795  19.303  0.00  0.00    +0.000 A 
ATOM      8  C   UNL     1      -1.945  12.410  20.254  0.00  0.00    +0.000 A 
ATOM      9  C   UNL     1      -3.323  12.384  20.033  0.00  0.00    +0.000 A 
ATOM     10 CL   UNL     1      -4.389  12.820  21.315  0.00  0.00    +0.000 Cl
ATOM     11  C   UNL     1      -3.852  11.939  18.822  0.00  0.00    +0.000 A 
ATOM     12  C   UNL     1      -3.039  11.307  17.876  0.00  0.00    +0.000 A 
ATOM     13  C   UNL     1      -1.697  11.136  18.227  0.00  0.00    +0.000 A 
ATOM     14  N   UNL     1      -0.741  10.265  17.758  0.00  0.00    +0.000 N 
ATOM     15  H   UNL     1      -0.937   9.434  17.214  0.00  0.00    +0.000 HD
ENDBRANCH   2   5
BRANCH   3  16
ATOM     16  C   UNL     1       2.349   7.327  18.750  0.00  0.00    +0.000 A 
ATOM     17  C   UNL     1       3.401   7.155  17.862  0.00  0.00    +0.000 A 
ATOM     18  C   UNL     1       4.168   5.987  17.905  0.00  0.00    +0.000 A 
ATOM     19  C   UNL     1       3.888   4.962  18.827  0.00  0.00    +0.000 A 
ATOM     20  C   UNL     1       2.802   5.114  19.702  0.00  0.00    +0.000 A 
ATOM     21  C   UNL     1       2.044   6.293  19.649  0.00  0.00    +0.000 A 
ATOM     22  C   UNL     1       2.440   4.075  20.735  0.00  0.00    +0.000 C 
ATOM     23  C   UNL     1       3.068   2.716  20.465  0.00  0.00    +0.000 C 
ATOM     24  C   UNL     1       4.550   2.883  20.142  0.00  0.00    +0.000 C 
ATOM     25  C   UNL     1       4.732   3.710  18.847  0.00  0.00    +0.000 C 
BRANCH  24  26
ATOM     26  O   UNL     1       5.131   1.585  19.981  0.00  0.00    +0.000 OA
ATOM     27  H   UNL     1       4.373   0.964  19.977  0.00  0.00    +0.000 HD
ENDBRANCH  24  26
BRANCH  25  28
ATOM     28  O   UNL     1       4.382   2.866  17.740  0.00  0.00    +0.000 OA
ATOM     29  H   UNL     1       4.868   3.186  16.959  0.00  0.00    +0.000 HD
ENDBRANCH  25  28
ENDBRANCH   3  16
TORSDOF 4
ENDMDL
MODEL 9
REMARK VINA RESULT:      -7.8      3.243      4.085
REMARK  Name = 
REMARK  4 active torsions:
REMARK  status: ('A' for Active; 'I' for Inactive)
REMARK    1  A    between atoms: C_2  and  C_16
REMARK    2  A    between atoms: N_3  and  C_4
REMARK    3  A    between atoms: C_12  and  O_13
REMARK    4  A    between atoms: C_14  and  O_15
REMARK                            x       y       z     vdW  Elec       q    Type
REMARK                         _______ _______ _______ _____ _____    ______ ____
ROOT
ATOM      1  O   UNL     1       1.740   9.340  22.635  0.00  0.00    +0.000 OA
ATOM      2  C   UNL     1       0.872   9.531  21.793  0.00  0.00    +0.000 C 
ATOM      3  N   UNL     1       0.692   8.808  20.634  0.00  0.00    +0.000 N 
ATOM      4  H   UNL     1      -0.145   9.022  20.116  0.00  0.00    +0.000 HD
ENDROOT
BRANCH   2   5
ATOM      5  C   UNL     1      -0.089  10.617  21.925  0.00  0.00    +0.000 A 
ATOM      6  C   UNL     1      -0.752  11.114  23.037  0.00  0.00    +0.000 A 
ATOM      7  C   UNL     1      -1.867  11.845  22.560  0.00  0.00    +0.000 A 
ATOM      8  C   UNL     1      -3.100  12.229  23.110  0.00  0.00    +0.000 A 
ATOM      9  C   UNL     1      -3.968  12.977  22.313  0.00  0.00    +0.000 A 
ATOM     10 CL   UNL     1      -5.604  13.182  22.813  0.00  0.00    +0.000 Cl
ATOM     11  C   UNL     1      -3.555  13.495  21.086  0.00  0.00    +0.000 A 
ATOM     12  C   UNL     1      -2.338  13.103  20.517  0.00  0.00    +0.000 A 
ATOM     13  C   UNL     1      -1.592  12.166  21.236  0.00  0.00    +0.000 A 
ATOM     14  N   UNL     1      -0.600  11.299  20.838  0.00  0.00    +0.000 N 
ATOM     15  H   UNL     1      -0.405  11.050  19.876  0.00  0.00    +0.000 HD
ENDBRANCH   2   5
BRANCH   3  16
ATOM     16  C   UNL     1       1.480   7.791  20.074  0.00  0.00    +0.000 A 
ATOM     17  C   UNL     1       2.243   7.927  18.922  0.00  0.00    +0.000 A 
ATOM     18  C   UNL     1       3.003   6.851  18.456  0.00  0.00    +0.000 A 
ATOM     19  C   UNL     1       3.003   5.612  19.124  0.00  0.00    +0.000 A 
ATOM     20  C   UNL     1       2.206   5.457  20.267  0.00  0.00    +0.000 A 
ATOM     21  C   UNL     1       1.451   6.548  20.725  0.00  0.00    +0.000 A 
ATOM     22  C   UNL     1       2.159   4.172  21.057  0.00  0.00    +0.000 C 
ATOM     23  C   UNL     1       2.701   2.976  20.289  0.00  0.00    +0.000 C 
ATOM     24  C   UNL     1       4.030   3.337  19.632  0.00  0.00    +0.000 C 
ATOM     25  C   UNL     1       3.833   4.467  18.594  0.00  0.00    +0.000 C 
BRANCH  24  26
ATOM     26  O   UNL     1       4.556   2.170  18.995  0.00  0.00    +0.000 OA
ATOM     27  H   UNL     1       3.782   1.731  18.584  0.00  0.00    +0.000 HD
ENDBRANCH  24  26
BRANCH  25  28
ATOM     28  O   UNL     1       3.194   3.892  17.444  0.00  0.00    +0.000 OA
ATOM     29  H   UNL     1       2.237   3.857  17.624  0.00  0.00    +0.000 HD
ENDBRANCH  25  28
ENDBRANCH   3  16
TORSDOF 4
ENDMDL
