MODEL 1
REMARK VINA RESULT:      -5.5      0.000      0.000
REMARK  Name = 
REMARK  29 active torsions:
REMARK  status: ('A' for Active; 'I' for Inactive)
REMARK    1  A    between atoms: C_1  and  C_2
REMARK    2  A    between atoms: C_2  and  C_3
REMARK    3  A    between atoms: C_3  and  C_4
REMARK    4  A    between atoms: C_4  and  C_5
REMARK    5  A    between atoms: C_5  and  C_6
REMARK    6  A    between atoms: C_6  and  C_7
REMARK    7  A    between atoms: C_7  and  C_8
REMARK    8  A    between atoms: C_8  and  C_9
REMARK    9  A    between atoms: C_9  and  C_10
REMARK   10  A    between atoms: C_10  and  C_11
REMARK   11  A    between atoms: C_11  and  C_12
REMARK   12  A    between atoms: C_12  and  C_13
REMARK   13  A    between atoms: C_13  and  C_14
REMARK   14  A    between atoms: C_14  and  C_15
REMARK   15  A    between atoms: C_15  and  C_16
REMARK   16  A    between atoms: C_16  and  C_17
REMARK   17  A    between atoms: C_17  and  C_18
REMARK   18  A    between atoms: C_18  and  O_20
REMARK   19  A    between atoms: O_20  and  C_21
REMARK   20  A    between atoms: C_21  and  C_22
REMARK   21  A    between atoms: C_22  and  O_23
REMARK   22  A    between atoms: O_23  and  P_24
REMARK   23  A    between atoms: P_24  and  O_26
REMARK   24  A    between atoms: P_24  and  O_27
REMARK   25  A    between atoms: O_27  and  C_28
REMARK   26  A    between atoms: C_28  and  C_29
REMARK   27  A    between atoms: C_29  and  N_30
REMARK   28  A    between atoms: C_29  and  C_31
REMARK   29  A    between atoms: C_31  and  O_33
REMARK                            x       y       z     vdW  Elec       q    Type
REMARK                         _______ _______ _______ _____ _____    ______ ____
ROOT
ATOM      1  C   UNK     1       7.408   5.041  17.563  0.00  0.00    +0.000 C 
ATOM      2  O   UNK     1       8.019   4.210  16.895  0.00  0.00    +0.000 OA
ENDROOT
BRANCH   1   3
ATOM      3  O   UNK     1       6.697   4.763  18.695  0.00  0.00    +0.000 OA
BRANCH   3   4
ATOM      4  C   UNK     1       5.282   4.754  18.469  0.00  0.00    +0.000 C 
BRANCH   4   5
ATOM      5  C   UNK     1       4.896   3.373  17.931  0.00  0.00    +0.000 C 
BRANCH   5   6
ATOM      6  O   UNK     1       3.667   3.398  17.210  0.00  0.00    +0.000 OA
BRANCH   6   7
ATOM      7  P   UNK     1       2.253   3.297  18.201  0.00  0.00    +0.000 P 
ATOM      8  O   UNK     1       1.409   4.006  17.145  0.00  0.00    +0.000 OA
BRANCH   7   9
ATOM      9  O   UNK     1       2.274   1.694  17.826  0.00  0.00    +0.000 OA
ATOM     10  H   UNK     1       1.882   1.530  16.940  0.00  0.00    +0.000 HD
ENDBRANCH   7   9
BRANCH   7  11
ATOM     11  O   UNK     1       0.839   3.197  19.193  0.00  0.00    +0.000 OA
BRANCH  11  12
ATOM     12  C   UNK     1       0.829   4.204  20.219  0.00  0.00    +0.000 C 
BRANCH  12  13
ATOM     13  C   UNK     1       2.177   4.868  20.402  0.00  0.00    +0.000 C 
BRANCH  13  14
ATOM     14  N   UNK     1       2.585   4.532  21.790  0.00  0.00    +0.000 NA
ATOM     15  H   UNK     1       1.847   4.826  22.435  0.00  0.00    +0.000 HD
ATOM     16  H   UNK     1       3.420   5.049  22.080  0.00  0.00    +0.000 HD
ENDBRANCH  13  14
BRANCH  13  17
ATOM     17  C   UNK     1       2.096   6.378  20.146  0.00  0.00    +0.000 C 
ATOM     18  O   UNK     1       2.300   6.895  19.043  0.00  0.00    +0.000 OA
BRANCH  17  19
ATOM     19  O   UNK     1       1.717   7.139  21.189  0.00  0.00    +0.000 OA
ATOM     20  H   UNK     1       1.206   6.682  21.905  0.00  0.00    +0.000 HD
ENDBRANCH  17  19
ENDBRANCH  13  17
ENDBRANCH  12  13
ENDBRANCH  11  12
ENDBRANCH   7  11
ENDBRANCH   6   7
ENDBRANCH   5   6
ENDBRANCH   4   5
ENDBRANCH   3   4
ENDBRANCH   1   3
BRANCH   1  21
ATOM     21  C   UNK     1       7.270   6.495  17.210  0.00  0.00    +0.000 C 
BRANCH  21  22
ATOM     22  C   UNK     1       7.989   7.345  18.258  0.00  0.00    +0.000 C 
BRANCH  22  23
ATOM     23  C   UNK     1       8.017   8.825  17.902  0.00  0.00    +0.000 C 
BRANCH  23  24
ATOM     24  C   UNK     1       9.201   9.500  18.592  0.00  0.00    +0.000 C 
BRANCH  24  25
ATOM     25  C   UNK     1       8.790  10.841  19.180  0.00  0.00    +0.000 C 
BRANCH  25  26
ATOM     26  C   UNK     1       9.345  10.999  20.588  0.00  0.00    +0.000 C 
BRANCH  26  27
ATOM     27  C   UNK     1      10.622  11.823  20.557  0.00  0.00    +0.000 C 
BRANCH  27  28
ATOM     28  C   UNK     1      10.381  13.190  21.172  0.00  0.00    +0.000 C 
BRANCH  28  29
ATOM     29  C   UNK     1       9.207  13.129  22.134  0.00  0.00    +0.000 C 
BRANCH  29  30
ATOM     30  C   UNK     1       8.902  14.516  22.672  0.00  0.00    +0.000 C 
BRANCH  30  31
ATOM     31  C   UNK     1       8.311  15.382  21.573  0.00  0.00    +0.000 C 
BRANCH  31  32
ATOM     32  C   UNK     1       7.049  14.739  21.025  0.00  0.00    +0.000 C 
BRANCH  32  33
ATOM     33  C   UNK     1       6.999  14.892  19.514  0.00  0.00    +0.000 C 
BRANCH  33  34
ATOM     34  C   UNK     1       8.371  15.272  18.976  0.00  0.00    +0.000 C 
BRANCH  34  35
ATOM     35  C   UNK     1       8.858  14.222  17.987  0.00  0.00    +0.000 C 
BRANCH  35  37
ATOM     36  C   UNK     1      10.906  13.132  17.057  0.00  0.00    +0.000 C 
ATOM     37  C   UNK     1      10.351  14.375  17.727  0.00  0.00    +0.000 C 
ENDBRANCH  35  37
ENDBRANCH  34  35
ENDBRANCH  33  34
ENDBRANCH  32  33
ENDBRANCH  31  32
ENDBRANCH  30  31
ENDBRANCH  29  30
ENDBRANCH  28  29
ENDBRANCH  27  28
ENDBRANCH  26  27
ENDBRANCH  25  26
ENDBRANCH  24  25
ENDBRANCH  23  24
ENDBRANCH  22  23
ENDBRANCH  21  22
ENDBRANCH   1  21
TORSDOF 28
ENDMDL
MODEL 2
REMARK VINA RESULT:      -5.4      5.371      8.028
REMARK  Name = 
REMARK  29 active torsions:
REMARK  status: ('A' for Active; 'I' for Inactive)
REMARK    1  A    between atoms: C_1  and  C_2
REMARK    2  A    between atoms: C_2  and  C_3
REMARK    3  A    between atoms: C_3  and  C_4
REMARK    4  A    between atoms: C_4  and  C_5
REMARK    5  A    between atoms: C_5  and  C_6
REMARK    6  A    between atoms: C_6  and  C_7
REMARK    7  A    between atoms: C_7  and  C_8
REMARK    8  A    between atoms: C_8  and  C_9
REMARK    9  A    between atoms: C_9  and  C_10
REMARK   10  A    between atoms: C_10  and  C_11
REMARK   11  A    between atoms: C_11  and  C_12
REMARK   12  A    between atoms: C_12  and  C_13
REMARK   13  A    between atoms: C_13  and  C_14
REMARK   14  A    between atoms: C_14  and  C_15
REMARK   15  A    between atoms: C_15  and  C_16
REMARK   16  A    between atoms: C_16  and  C_17
REMARK   17  A    between atoms: C_17  and  C_18
REMARK   18  A    between atoms: C_18  and  O_20
REMARK   19  A    between atoms: O_20  and  C_21
REMARK   20  A    between atoms: C_21  and  C_22
REMARK   21  A    between atoms: C_22  and  O_23
REMARK   22  A    between atoms: O_23  and  P_24
REMARK   23  A    between atoms: P_24  and  O_26
REMARK   24  A    between atoms: P_24  and  O_27
REMARK   25  A    between atoms: O_27  and  C_28
REMARK   26  A    between atoms: C_28  and  C_29
REMARK   27  A    between atoms: C_29  and  N_30
REMARK   28  A    between atoms: C_29  and  C_31
REMARK   29  A    between atoms: C_31  and  O_33
REMARK                            x       y       z     vdW  Elec       q    Type
REMARK                         _______ _______ _______ _____ _____    ______ ____
ROOT
ATOM      1  C   UNK     1       1.969   3.586  20.997  0.00  0.00    +0.000 C 
ATOM      2  O   UNK     1       1.999   3.178  22.155  0.00  0.00    +0.000 OA
ENDROOT
BRANCH   1   3
ATOM      3  O   UNK     1       2.667   3.039  19.958  0.00  0.00    +0.000 OA
BRANCH   3   4
ATOM      4  C   UNK     1       1.945   3.093  18.721  0.00  0.00    +0.000 C 
BRANCH   4   5
ATOM      5  C   UNK     1       2.596   2.105  17.748  0.00  0.00    +0.000 C 
BRANCH   5   6
ATOM      6  O   UNK     1       4.001   2.312  17.627  0.00  0.00    +0.000 OA
BRANCH   6   7
ATOM      7  P   UNK     1       4.449   3.902  17.112  0.00  0.00    +0.000 P 
ATOM      8  O   UNK     1       4.948   4.261  18.509  0.00  0.00    +0.000 OA
BRANCH   7   9
ATOM      9  O   UNK     1       5.682   3.147  16.323  0.00  0.00    +0.000 OA
ATOM     10  H   UNK     1       5.548   3.169  15.350  0.00  0.00    +0.000 HD
ENDBRANCH   7   9
BRANCH   7  11
ATOM     11  O   UNK     1       4.895   5.492  16.596  0.00  0.00    +0.000 OA
BRANCH  11  12
ATOM     12  C   UNK     1       5.587   6.217  17.627  0.00  0.00    +0.000 C 
BRANCH  12  13
ATOM     13  C   UNK     1       7.086   6.249  17.418  0.00  0.00    +0.000 C 
BRANCH  13  14
ATOM     14  N   UNK     1       7.281   5.921  15.983  0.00  0.00    +0.000 NA
ATOM     15  H   UNK     1       7.710   4.995  15.908  0.00  0.00    +0.000 HD
ATOM     16  H   UNK     1       7.937   6.562  15.529  0.00  0.00    +0.000 HD
ENDBRANCH  13  14
BRANCH  13  17
ATOM     17  C   UNK     1       7.802   5.276  18.362  0.00  0.00    +0.000 C 
ATOM     18  O   UNK     1       8.074   5.539  19.538  0.00  0.00    +0.000 OA
BRANCH  17  19
ATOM     19  O   UNK     1       8.077   4.056  17.863  0.00  0.00    +0.000 OA
ATOM     20  H   UNK     1       7.418   3.342  18.057  0.00  0.00    +0.000 HD
ENDBRANCH  17  19
ENDBRANCH  13  17
ENDBRANCH  12  13
ENDBRANCH  11  12
ENDBRANCH   7  11
ENDBRANCH   6   7
ENDBRANCH   5   6
ENDBRANCH   4   5
ENDBRANCH   3   4
ENDBRANCH   1   3
BRANCH   1  21
ATOM     21  C   UNK     1       1.223   4.805  20.533  0.00  0.00    +0.000 C 
BRANCH  21  22
ATOM     22  C   UNK     1       2.145   6.023  20.599  0.00  0.00    +0.000 C 
BRANCH  22  23
ATOM     23  C   UNK     1       2.353   6.683  19.242  0.00  0.00    +0.000 C 
BRANCH  23  24
ATOM     24  C   UNK     1       1.785   8.100  19.266  0.00  0.00    +0.000 C 
BRANCH  24  25
ATOM     25  C   UNK     1       2.508   8.987  18.264  0.00  0.00    +0.000 C 
BRANCH  25  26
ATOM     26  C   UNK     1       1.634  10.169  17.870  0.00  0.00    +0.000 C 
BRANCH  26  27
ATOM     27  C   UNK     1       1.214  10.944  19.107  0.00  0.00    +0.000 C 
BRANCH  27  28
ATOM     28  C   UNK     1       0.745  12.337  18.722  0.00  0.00    +0.000 C 
BRANCH  28  29
ATOM     29  C   UNK     1      -0.715  12.298  18.305  0.00  0.00    +0.000 C 
BRANCH  29  30
ATOM     30  C   UNK     1      -1.518  11.479  19.300  0.00  0.00    +0.000 C 
BRANCH  30  31
ATOM     31  C   UNK     1      -2.581  12.347  19.950  0.00  0.00    +0.000 C 
BRANCH  31  32
ATOM     32  C   UNK     1      -1.929  13.385  20.847  0.00  0.00    +0.000 C 
BRANCH  32  33
ATOM     33  C   UNK     1      -2.430  13.232  22.273  0.00  0.00    +0.000 C 
BRANCH  33  34
ATOM     34  C   UNK     1      -2.313  11.783  22.721  0.00  0.00    +0.000 C 
BRANCH  34  35
ATOM     35  C   UNK     1      -0.849  11.392  22.864  0.00  0.00    +0.000 C 
BRANCH  35  37
ATOM     36  C   UNK     1      -0.268   9.096  22.061  0.00  0.00    +0.000 C 
ATOM     37  C   UNK     1      -0.716   9.925  23.252  0.00  0.00    +0.000 C 
ENDBRANCH  35  37
ENDBRANCH  34  35
ENDBRANCH  33  34
ENDBRANCH  32  33
ENDBRANCH  31  32
ENDBRANCH  30  31
ENDBRANCH  29  30
ENDBRANCH  28  29
ENDBRANCH  27  28
ENDBRANCH  26  27
ENDBRANCH  25  26
ENDBRANCH  24  25
ENDBRANCH  23  24
ENDBRANCH  22  23
ENDBRANCH  21  22
ENDBRANCH   1  21
TORSDOF 28
ENDMDL
MODEL 3
REMARK VINA RESULT:      -5.3      5.814      8.521
REMARK  Name = 
REMARK  29 active torsions:
REMARK  status: ('A' for Active; 'I' for Inactive)
REMARK    1  A    between atoms: C_1  and  C_2
REMARK    2  A    between atoms: C_2  and  C_3
REMARK    3  A    between atoms: C_3  and  C_4
REMARK    4  A    between atoms: C_4  and  C_5
REMARK    5  A    between atoms: C_5  and  C_6
REMARK    6  A    between atoms: C_6  and  C_7
REMARK    7  A    between atoms: C_7  and  C_8
REMARK    8  A    between atoms: C_8  and  C_9
REMARK    9  A    between atoms: C_9  and  C_10
REMARK   10  A    between atoms: C_10  and  C_11
REMARK   11  A    between atoms: C_11  and  C_12
REMARK   12  A    between atoms: C_12  and  C_13
REMARK   13  A    between atoms: C_13  and  C_14
REMARK   14  A    between atoms: C_14  and  C_15
REMARK   15  A    between atoms: C_15  and  C_16
REMARK   16  A    between atoms: C_16  and  C_17
REMARK   17  A    between atoms: C_17  and  C_18
REMARK   18  A    between atoms: C_18  and  O_20
REMARK   19  A    between atoms: O_20  and  C_21
REMARK   20  A    between atoms: C_21  and  C_22
REMARK   21  A    between atoms: C_22  and  O_23
REMARK   22  A    between atoms: O_23  and  P_24
REMARK   23  A    between atoms: P_24  and  O_26
REMARK   24  A    between atoms: P_24  and  O_27
REMARK   25  A    between atoms: O_27  and  C_28
REMARK   26  A    between atoms: C_28  and  C_29
REMARK   27  A    between atoms: C_29  and  N_30
REMARK   28  A    between atoms: C_29  and  C_31
REMARK   29  A    between atoms: C_31  and  O_33
REMARK                            x       y       z     vdW  Elec       q    Type
REMARK                         _______ _______ _______ _____ _____    ______ ____
ROOT
ATOM      1  C   UNK     1       4.644   2.707  19.733  0.00  0.00    +0.000 C 
ATOM      2  O   UNK     1       4.718   1.760  20.513  0.00  0.00    +0.000 OA
ENDROOT
BRANCH   1   3
ATOM      3  O   UNK     1       5.661   3.576  19.461  0.00  0.00    +0.000 OA
BRANCH   3   4
ATOM      4  C   UNK     1       5.211   4.931  19.343  0.00  0.00    +0.000 C 
BRANCH   4   5
ATOM      5  C   UNK     1       6.445   5.832  19.224  0.00  0.00    +0.000 C 
BRANCH   5   6
ATOM      6  O   UNK     1       6.442   6.596  18.020  0.00  0.00    +0.000 OA
BRANCH   6   7
ATOM      7  P   UNK     1       5.946   5.716  16.616  0.00  0.00    +0.000 P 
ATOM      8  O   UNK     1       5.683   7.008  15.847  0.00  0.00    +0.000 OA
BRANCH   7   9
ATOM      9  O   UNK     1       7.544   5.355  16.449  0.00  0.00    +0.000 OA
ATOM     10  H   UNK     1       8.020   6.063  15.962  0.00  0.00    +0.000 HD
ENDBRANCH   7   9
BRANCH   7  11
ATOM     11  O   UNK     1       5.449   4.835  15.212  0.00  0.00    +0.000 OA
BRANCH  11  12
ATOM     12  C   UNK     1       6.352   3.759  14.905  0.00  0.00    +0.000 C 
BRANCH  12  13
ATOM     13  C   UNK     1       6.935   3.862  13.512  0.00  0.00    +0.000 C 
BRANCH  13  14
ATOM     14  N   UNK     1       7.355   5.280  13.375  0.00  0.00    +0.000 NA
ATOM     15  H   UNK     1       8.094   5.475  14.056  0.00  0.00    +0.000 HD
ATOM     16  H   UNK     1       6.598   5.928  13.604  0.00  0.00    +0.000 HD
ENDBRANCH  13  14
BRANCH  13  17
ATOM     17  C   UNK     1       5.920   3.429  12.448  0.00  0.00    +0.000 C 
ATOM     18  O   UNK     1       6.236   2.912  11.372  0.00  0.00    +0.000 OA
BRANCH  17  19
ATOM     19  O   UNK     1       4.621   3.578  12.768  0.00  0.00    +0.000 OA
ATOM     20  H   UNK     1       4.356   3.288  13.678  0.00  0.00    +0.000 HD
ENDBRANCH  17  19
ENDBRANCH  13  17
ENDBRANCH  12  13
ENDBRANCH  11  12
ENDBRANCH   7  11
ENDBRANCH   6   7
ENDBRANCH   5   6
ENDBRANCH   4   5
ENDBRANCH   3   4
ENDBRANCH   1   3
BRANCH   1  21
ATOM     21  C   UNK     1       3.399   3.124  19.001  0.00  0.00    +0.000 C 
BRANCH  21  22
ATOM     22  C   UNK     1       2.283   2.115  19.276  0.00  0.00    +0.000 C 
BRANCH  22  23
ATOM     23  C   UNK     1       1.357   2.550  20.403  0.00  0.00    +0.000 C 
BRANCH  23  24
ATOM     24  C   UNK     1       0.956   4.011  20.207  0.00  0.00    +0.000 C 
BRANCH  24  25
ATOM     25  C   UNK     1       1.862   4.931  21.010  0.00  0.00    +0.000 C 
BRANCH  25  26
ATOM     26  C   UNK     1       1.662   6.379  20.587  0.00  0.00    +0.000 C 
BRANCH  26  27
ATOM     27  C   UNK     1       1.864   6.518  19.087  0.00  0.00    +0.000 C 
BRANCH  27  28
ATOM     28  C   UNK     1       2.975   7.512  18.796  0.00  0.00    +0.000 C 
BRANCH  28  29
ATOM     29  C   UNK     1       2.656   8.294  17.534  0.00  0.00    +0.000 C 
BRANCH  29  30
ATOM     30  C   UNK     1       1.403   9.127  17.740  0.00  0.00    +0.000 C 
BRANCH  30  31
ATOM     31  C   UNK     1       1.774  10.504  18.262  0.00  0.00    +0.000 C 
BRANCH  31  32
ATOM     32  C   UNK     1       0.755  10.965  19.289  0.00  0.00    +0.000 C 
BRANCH  32  33
ATOM     33  C   UNK     1      -0.571  10.256  19.064  0.00  0.00    +0.000 C 
BRANCH  33  34
ATOM     34  C   UNK     1      -1.718  11.255  19.111  0.00  0.00    +0.000 C 
BRANCH  34  35
ATOM     35  C   UNK     1      -2.546  11.165  17.837  0.00  0.00    +0.000 C 
BRANCH  35  37
ATOM     36  C   UNK     1      -2.930   9.894  15.718  0.00  0.00    +0.000 C 
ATOM     37  C   UNK     1      -2.061  10.020  16.957  0.00  0.00    +0.000 C 
ENDBRANCH  35  37
ENDBRANCH  34  35
ENDBRANCH  33  34
ENDBRANCH  32  33
ENDBRANCH  31  32
ENDBRANCH  30  31
ENDBRANCH  29  30
ENDBRANCH  28  29
ENDBRANCH  27  28
ENDBRANCH  26  27
ENDBRANCH  25  26
ENDBRANCH  24  25
ENDBRANCH  23  24
ENDBRANCH  22  23
ENDBRANCH  21  22
ENDBRANCH   1  21
TORSDOF 28
ENDMDL
MODEL 4
REMARK VINA RESULT:      -5.3      7.211     10.694
REMARK  Name = 
REMARK  29 active torsions:
REMARK  status: ('A' for Active; 'I' for Inactive)
REMARK    1  A    between atoms: C_1  and  C_2
REMARK    2  A    between atoms: C_2  and  C_3
REMARK    3  A    between atoms: C_3  and  C_4
REMARK    4  A    between atoms: C_4  and  C_5
REMARK    5  A    between atoms: C_5  and  C_6
REMARK    6  A    between atoms: C_6  and  C_7
REMARK    7  A    between atoms: C_7  and  C_8
REMARK    8  A    between atoms: C_8  and  C_9
REMARK    9  A    between atoms: C_9  and  C_10
REMARK   10  A    between atoms: C_10  and  C_11
REMARK   11  A    between atoms: C_11  and  C_12
REMARK   12  A    between atoms: C_12  and  C_13
REMARK   13  A    between atoms: C_13  and  C_14
REMARK   14  A    between atoms: C_14  and  C_15
REMARK   15  A    between atoms: C_15  and  C_16
REMARK   16  A    between atoms: C_16  and  C_17
REMARK   17  A    between atoms: C_17  and  C_18
REMARK   18  A    between atoms: C_18  and  O_20
REMARK   19  A    between atoms: O_20  and  C_21
REMARK   20  A    between atoms: C_21  and  C_22
REMARK   21  A    between atoms: C_22  and  O_23
REMARK   22  A    between atoms: O_23  and  P_24
REMARK   23  A    between atoms: P_24  and  O_26
REMARK   24  A    between atoms: P_24  and  O_27
REMARK   25  A    between atoms: O_27  and  C_28
REMARK   26  A    between atoms: C_28  and  C_29
REMARK   27  A    between atoms: C_29  and  N_30
REMARK   28  A    between atoms: C_29  and  C_31
REMARK   29  A    between atoms: C_31  and  O_33
REMARK                            x       y       z     vdW  Elec       q    Type
REMARK                         _______ _______ _______ _____ _____    ______ ____
ROOT
ATOM      1  C   UNK     1       1.631  10.024  18.237  0.00  0.00    +0.000 C 
ATOM      2  O   UNK     1       2.391  10.957  17.987  0.00  0.00    +0.000 OA
ENDROOT
BRANCH   1   3
ATOM      3  O   UNK     1       0.807   9.958  19.324  0.00  0.00    +0.000 OA
BRANCH   3   4
ATOM      4  C   UNK     1       0.813  11.167  20.095  0.00  0.00    +0.000 C 
BRANCH   4   5
ATOM      5  C   UNK     1      -0.307  12.070  19.572  0.00  0.00    +0.000 C 
BRANCH   5   6
ATOM      6  O   UNK     1      -1.582  11.709  20.096  0.00  0.00    +0.000 OA
BRANCH   6   7
ATOM      7  P   UNK     1      -2.415  12.993  20.903  0.00  0.00    +0.000 P 
ATOM      8  O   UNK     1      -1.502  12.876  22.121  0.00  0.00    +0.000 OA
BRANCH   7   9
ATOM      9  O   UNK     1      -1.666  13.975  19.814  0.00  0.00    +0.000 OA
ATOM     10  H   UNK     1      -1.994  13.812  18.903  0.00  0.00    +0.000 HD
ENDBRANCH   7   9
BRANCH   7  11
ATOM     11  O   UNK     1      -3.248  14.276  21.710  0.00  0.00    +0.000 OA
BRANCH  11  12
ATOM     12  C   UNK     1      -4.599  13.915  22.043  0.00  0.00    +0.000 C 
BRANCH  12  13
ATOM     13  C   UNK     1      -4.858  13.923  23.535  0.00  0.00    +0.000 C 
BRANCH  13  14
ATOM     14  N   UNK     1      -3.849  14.858  24.095  0.00  0.00    +0.000 NA
ATOM     15  H   UNK     1      -3.864  14.792  25.116  0.00  0.00    +0.000 HD
ATOM     16  H   UNK     1      -4.073  15.834  23.883  0.00  0.00    +0.000 HD
ENDBRANCH  13  14
BRANCH  13  17
ATOM     17  C   UNK     1      -4.764  12.511  24.126  0.00  0.00    +0.000 C 
ATOM     18  O   UNK     1      -5.725  11.912  24.620  0.00  0.00    +0.000 OA
BRANCH  17  19
ATOM     19  O   UNK     1      -3.569  11.901  24.024  0.00  0.00    +0.000 OA
ATOM     20  H   UNK     1      -3.066  11.775  24.869  0.00  0.00    +0.000 HD
ENDBRANCH  17  19
ENDBRANCH  13  17
ENDBRANCH  12  13
ENDBRANCH  11  12
ENDBRANCH   7  11
ENDBRANCH   6   7
ENDBRANCH   5   6
ENDBRANCH   4   5
ENDBRANCH   3   4
ENDBRANCH   1   3
BRANCH   1  21
ATOM     21  C   UNK     1       1.531   8.757  17.436  0.00  0.00    +0.000 C 
BRANCH  21  22
ATOM     22  C   UNK     1       2.672   7.816  17.825  0.00  0.00    +0.000 C 
BRANCH  22  23
ATOM     23  C   UNK     1       2.181   6.502  18.416  0.00  0.00    +0.000 C 
BRANCH  23  24
ATOM     24  C   UNK     1       2.661   6.374  19.860  0.00  0.00    +0.000 C 
BRANCH  24  25
ATOM     25  C   UNK     1       1.547   5.857  20.756  0.00  0.00    +0.000 C 
BRANCH  25  26
ATOM     26  C   UNK     1       1.013   4.531  20.234  0.00  0.00    +0.000 C 
BRANCH  26  27
ATOM     27  C   UNK     1       1.504   3.389  21.109  0.00  0.00    +0.000 C 
BRANCH  27  28
ATOM     28  C   UNK     1       2.003   2.243  20.246  0.00  0.00    +0.000 C 
BRANCH  28  29
ATOM     29  C   UNK     1       1.490   2.400  18.825  0.00  0.00    +0.000 C 
BRANCH  29  30
ATOM     30  C   UNK     1       2.629   2.217  17.837  0.00  0.00    +0.000 C 
BRANCH  30  31
ATOM     31  C   UNK     1       3.701   3.266  18.080  0.00  0.00    +0.000 C 
BRANCH  31  32
ATOM     32  C   UNK     1       3.985   4.027  16.797  0.00  0.00    +0.000 C 
BRANCH  32  33
ATOM     33  C   UNK     1       5.465   4.358  16.702  0.00  0.00    +0.000 C 
BRANCH  33  34
ATOM     34  C   UNK     1       5.732   5.238  15.490  0.00  0.00    +0.000 C 
BRANCH  34  35
ATOM     35  C   UNK     1       6.732   4.566  14.560  0.00  0.00    +0.000 C 
BRANCH  35  37
ATOM     36  C   UNK     1       6.672   3.831  12.171  0.00  0.00    +0.000 C 
ATOM     37  C   UNK     1       6.017   3.697  13.534  0.00  0.00    +0.000 C 
ENDBRANCH  35  37
ENDBRANCH  34  35
ENDBRANCH  33  34
ENDBRANCH  32  33
ENDBRANCH  31  32
ENDBRANCH  30  31
ENDBRANCH  29  30
ENDBRANCH  28  29
ENDBRANCH  27  28
ENDBRANCH  26  27
ENDBRANCH  25  26
ENDBRANCH  24  25
ENDBRANCH  23  24
ENDBRANCH  22  23
ENDBRANCH  21  22
ENDBRANCH   1  21
TORSDOF 28
ENDMDL
MODEL 5
REMARK VINA RESULT:      -5.2      4.988     10.314
REMARK  Name = 
REMARK  29 active torsions:
REMARK  status: ('A' for Active; 'I' for Inactive)
REMARK    1  A    between atoms: C_1  and  C_2
REMARK    2  A    between atoms: C_2  and  C_3
REMARK    3  A    between atoms: C_3  and  C_4
REMARK    4  A    between atoms: C_4  and  C_5
REMARK    5  A    between atoms: C_5  and  C_6
REMARK    6  A    between atoms: C_6  and  C_7
REMARK    7  A    between atoms: C_7  and  C_8
REMARK    8  A    between atoms: C_8  and  C_9
REMARK    9  A    between atoms: C_9  and  C_10
REMARK   10  A    between atoms: C_10  and  C_11
REMARK   11  A    between atoms: C_11  and  C_12
REMARK   12  A    between atoms: C_12  and  C_13
REMARK   13  A    between atoms: C_13  and  C_14
REMARK   14  A    between atoms: C_14  and  C_15
REMARK   15  A    between atoms: C_15  and  C_16
REMARK   16  A    between atoms: C_16  and  C_17
REMARK   17  A    between atoms: C_17  and  C_18
REMARK   18  A    between atoms: C_18  and  O_20
REMARK   19  A    between atoms: O_20  and  C_21
REMARK   20  A    between atoms: C_21  and  C_22
REMARK   21  A    between atoms: C_22  and  O_23
REMARK   22  A    between atoms: O_23  and  P_24
REMARK   23  A    between atoms: P_24  and  O_26
REMARK   24  A    between atoms: P_24  and  O_27
REMARK   25  A    between atoms: O_27  and  C_28
REMARK   26  A    between atoms: C_28  and  C_29
REMARK   27  A    between atoms: C_29  and  N_30
REMARK   28  A    between atoms: C_29  and  C_31
REMARK   29  A    between atoms: C_31  and  O_33
REMARK                            x       y       z     vdW  Elec       q    Type
REMARK                         _______ _______ _______ _____ _____    ______ ____
ROOT
ATOM      1  C   UNK     1       7.602   5.785  18.926  0.00  0.00    +0.000 C 
ATOM      2  O   UNK     1       6.960   5.581  19.953  0.00  0.00    +0.000 OA
ENDROOT
BRANCH   1   3
ATOM      3  O   UNK     1       8.286   6.934  18.647  0.00  0.00    +0.000 OA
BRANCH   3   4
ATOM      4  C   UNK     1       7.506   7.871  17.893  0.00  0.00    +0.000 C 
BRANCH   4   5
ATOM      5  C   UNK     1       8.270   9.197  17.847  0.00  0.00    +0.000 C 
BRANCH   5   6
ATOM      6  O   UNK     1       9.013   9.434  19.041  0.00  0.00    +0.000 OA
BRANCH   6   7
ATOM      7  P   UNK     1       9.784  10.981  19.108  0.00  0.00    +0.000 P 
ATOM      8  O   UNK     1       8.789  11.569  18.111  0.00  0.00    +0.000 OA
BRANCH   7   9
ATOM      9  O   UNK     1       9.111  11.096  20.607  0.00  0.00    +0.000 OA
ATOM     10  H   UNK     1       8.269  10.593  20.658  0.00  0.00    +0.000 HD
ENDBRANCH   7   9
BRANCH   7  11
ATOM     11  O   UNK     1      10.556  12.528  19.176  0.00  0.00    +0.000 OA
BRANCH  11  12
ATOM     12  C   UNK     1       9.857  13.512  18.395  0.00  0.00    +0.000 C 
BRANCH  12  13
ATOM     13  C   UNK     1      10.053  14.921  18.914  0.00  0.00    +0.000 C 
BRANCH  13  14
ATOM     14  N   UNK     1      11.353  14.889  19.630  0.00  0.00    +0.000 NA
ATOM     15  H   UNK     1      11.588  15.836  19.938  0.00  0.00    +0.000 HD
ATOM     16  H   UNK     1      12.122  14.605  19.017  0.00  0.00    +0.000 HD
ENDBRANCH  13  14
BRANCH  13  17
ATOM     17  C   UNK     1       8.884  15.356  19.804  0.00  0.00    +0.000 C 
ATOM     18  O   UNK     1       8.456  14.683  20.747  0.00  0.00    +0.000 OA
BRANCH  17  19
ATOM     19  O   UNK     1       8.364  16.572  19.552  0.00  0.00    +0.000 OA
ATOM     20  H   UNK     1       8.431  16.894  18.617  0.00  0.00    +0.000 HD
ENDBRANCH  17  19
ENDBRANCH  13  17
ENDBRANCH  12  13
ENDBRANCH  11  12
ENDBRANCH   7  11
ENDBRANCH   6   7
ENDBRANCH   5   6
ENDBRANCH   4   5
ENDBRANCH   3   4
ENDBRANCH   1   3
BRANCH   1  21
ATOM     21  C   UNK     1       7.684   4.840  17.760  0.00  0.00    +0.000 C 
BRANCH  21  22
ATOM     22  C   UNK     1       7.049   5.491  16.530  0.00  0.00    +0.000 C 
BRANCH  22  23
ATOM     23  C   UNK     1       6.968   4.548  15.337  0.00  0.00    +0.000 C 
BRANCH  23  24
ATOM     24  C   UNK     1       5.507   4.225  15.033  0.00  0.00    +0.000 C 
BRANCH  24  25
ATOM     25  C   UNK     1       4.599   4.745  16.137  0.00  0.00    +0.000 C 
BRANCH  25  26
ATOM     26  C   UNK     1       3.685   3.637  16.642  0.00  0.00    +0.000 C 
BRANCH  26  27
ATOM     27  C   UNK     1       4.357   2.884  17.779  0.00  0.00    +0.000 C 
BRANCH  27  28
ATOM     28  C   UNK     1       3.366   1.944  18.444  0.00  0.00    +0.000 C 
BRANCH  28  29
ATOM     29  C   UNK     1       1.957   2.251  17.967  0.00  0.00    +0.000 C 
BRANCH  29  30
ATOM     30  C   UNK     1       1.014   2.339  19.155  0.00  0.00    +0.000 C 
BRANCH  30  31
ATOM     31  C   UNK     1       1.810   2.432  20.445  0.00  0.00    +0.000 C 
BRANCH  31  32
ATOM     32  C   UNK     1       1.501   3.738  21.155  0.00  0.00    +0.000 C 
BRANCH  32  33
ATOM     33  C   UNK     1       1.243   4.838  20.139  0.00  0.00    +0.000 C 
BRANCH  33  34
ATOM     34  C   UNK     1       2.180   6.012  20.383  0.00  0.00    +0.000 C 
BRANCH  34  35
ATOM     35  C   UNK     1       3.268   6.047  19.319  0.00  0.00    +0.000 C 
BRANCH  35  37
ATOM     36  C   UNK     1       2.094   8.177  18.740  0.00  0.00    +0.000 C 
ATOM     37  C   UNK     1       2.895   7.008  18.197  0.00  0.00    +0.000 C 
ENDBRANCH  35  37
ENDBRANCH  34  35
ENDBRANCH  33  34
ENDBRANCH  32  33
ENDBRANCH  31  32
ENDBRANCH  30  31
ENDBRANCH  29  30
ENDBRANCH  28  29
ENDBRANCH  27  28
ENDBRANCH  26  27
ENDBRANCH  25  26
ENDBRANCH  24  25
ENDBRANCH  23  24
ENDBRANCH  22  23
ENDBRANCH  21  22
ENDBRANCH   1  21
TORSDOF 28
ENDMDL
MODEL 6
REMARK VINA RESULT:      -5.2      6.158      9.971
REMARK  Name = 
REMARK  29 active torsions:
REMARK  status: ('A' for Active; 'I' for Inactive)
REMARK    1  A    between atoms: C_1  and  C_2
REMARK    2  A    between atoms: C_2  and  C_3
REMARK    3  A    between atoms: C_3  and  C_4
REMARK    4  A    between atoms: C_4  and  C_5
REMARK    5  A    between atoms: C_5  and  C_6
REMARK    6  A    between atoms: C_6  and  C_7
REMARK    7  A    between atoms: C_7  and  C_8
REMARK    8  A    between atoms: C_8  and  C_9
REMARK    9  A    between atoms: C_9  and  C_10
REMARK   10  A    between atoms: C_10  and  C_11
REMARK   11  A    between atoms: C_11  and  C_12
REMARK   12  A    between atoms: C_12  and  C_13
REMARK   13  A    between atoms: C_13  and  C_14
REMARK   14  A    between atoms: C_14  and  C_15
REMARK   15  A    between atoms: C_15  and  C_16
REMARK   16  A    between atoms: C_16  and  C_17
REMARK   17  A    between atoms: C_17  and  C_18
REMARK   18  A    between atoms: C_18  and  O_20
REMARK   19  A    between atoms: O_20  and  C_21
REMARK   20  A    between atoms: C_21  and  C_22
REMARK   21  A    between atoms: C_22  and  O_23
REMARK   22  A    between atoms: O_23  and  P_24
REMARK   23  A    between atoms: P_24  and  O_26
REMARK   24  A    between atoms: P_24  and  O_27
REMARK   25  A    between atoms: O_27  and  C_28
REMARK   26  A    between atoms: C_28  and  C_29
REMARK   27  A    between atoms: C_29  and  N_30
REMARK   28  A    between atoms: C_29  and  C_31
REMARK   29  A    between atoms: C_31  and  O_33
REMARK                            x       y       z     vdW  Elec       q    Type
REMARK                         _______ _______ _______ _____ _____    ______ ____
ROOT
ATOM      1  C   UNK     1       3.032   6.345  19.497  0.00  0.00    +0.000 C 
ATOM      2  O   UNK     1       4.170   5.884  19.555  0.00  0.00    +0.000 OA
ENDROOT
BRANCH   1   3
ATOM      3  O   UNK     1       1.988   5.948  20.281  0.00  0.00    +0.000 OA
BRANCH   3   4
ATOM      4  C   UNK     1       2.059   4.560  20.632  0.00  0.00    +0.000 C 
BRANCH   4   5
ATOM      5  C   UNK     1       1.154   3.781  19.674  0.00  0.00    +0.000 C 
BRANCH   5   6
ATOM      6  O   UNK     1       1.741   2.550  19.258  0.00  0.00    +0.000 OA
BRANCH   6   7
ATOM      7  P   UNK     1       3.164   2.726  18.290  0.00  0.00    +0.000 P 
ATOM      8  O   UNK     1       3.532   1.257  18.487  0.00  0.00    +0.000 OA
BRANCH   7   9
ATOM      9  O   UNK     1       2.120   2.810  17.019  0.00  0.00    +0.000 OA
ATOM     10  H   UNK     1       1.681   3.688  16.977  0.00  0.00    +0.000 HD
ENDBRANCH   7   9
BRANCH   7  11
ATOM     11  O   UNK     1       4.587   2.903  17.323  0.00  0.00    +0.000 OA
BRANCH  11  12
ATOM     12  C   UNK     1       4.648   4.191  16.687  0.00  0.00    +0.000 C 
BRANCH  12  13
ATOM     13  C   UNK     1       6.056   4.743  16.613  0.00  0.00    +0.000 C 
BRANCH  13  14
ATOM     14  N   UNK     1       5.937   6.158  17.048  0.00  0.00    +0.000 NA
ATOM     15  H   UNK     1       4.992   6.492  16.841  0.00  0.00    +0.000 HD
ATOM     16  H   UNK     1       6.564   6.774  16.524  0.00  0.00    +0.000 HD
ENDBRANCH  13  14
BRANCH  13  17
ATOM     17  C   UNK     1       6.642   4.592  15.205  0.00  0.00    +0.000 C 
ATOM     18  O   UNK     1       6.321   3.690  14.424  0.00  0.00    +0.000 OA
BRANCH  17  19
ATOM     19  O   UNK     1       7.503   5.550  14.812  0.00  0.00    +0.000 OA
ATOM     20  H   UNK     1       8.464   5.309  14.822  0.00  0.00    +0.000 HD
ENDBRANCH  17  19
ENDBRANCH  13  17
ENDBRANCH  12  13
ENDBRANCH  11  12
ENDBRANCH   7  11
ENDBRANCH   6   7
ENDBRANCH   5   6
ENDBRANCH   4   5
ENDBRANCH   3   4
ENDBRANCH   1   3
BRANCH   1  21
ATOM     21  C   UNK     1       2.569   7.370  18.500  0.00  0.00    +0.000 C 
BRANCH  21  22
ATOM     22  C   UNK     1       1.725   8.429  19.211  0.00  0.00    +0.000 C 
BRANCH  22  23
ATOM     23  C   UNK     1       1.160   9.474  18.259  0.00  0.00    +0.000 C 
BRANCH  23  24
ATOM     24  C   UNK     1      -0.163  10.006  18.804  0.00  0.00    +0.000 C 
BRANCH  24  25
ATOM     25  C   UNK     1      -0.205  11.524  18.731  0.00  0.00    +0.000 C 
BRANCH  25  26
ATOM     26  C   UNK     1      -1.407  11.987  17.921  0.00  0.00    +0.000 C 
BRANCH  26  27
ATOM     27  C   UNK     1      -2.313  10.808  17.609  0.00  0.00    +0.000 C 
BRANCH  27  28
ATOM     28  C   UNK     1      -3.527  11.271  16.822  0.00  0.00    +0.000 C 
BRANCH  28  29
ATOM     29  C   UNK     1      -4.777  11.155  17.676  0.00  0.00    +0.000 C 
BRANCH  29  30
ATOM     30  C   UNK     1      -5.786  12.215  17.268  0.00  0.00    +0.000 C 
BRANCH  30  31
ATOM     31  C   UNK     1      -7.105  11.979  17.983  0.00  0.00    +0.000 C 
BRANCH  31  32
ATOM     32  C   UNK     1      -6.872  11.195  19.262  0.00  0.00    +0.000 C 
BRANCH  32  33
ATOM     33  C   UNK     1      -7.435  11.954  20.452  0.00  0.00    +0.000 C 
BRANCH  33  34
ATOM     34  C   UNK     1      -6.305  12.497  21.313  0.00  0.00    +0.000 C 
BRANCH  34  35
ATOM     35  C   UNK     1      -5.867  13.864  20.807  0.00  0.00    +0.000 C 
BRANCH  35  37
ATOM     36  C   UNK     1      -3.596  12.822  20.739  0.00  0.00    +0.000 C 
ATOM     37  C   UNK     1      -4.380  14.082  21.056  0.00  0.00    +0.000 C 
ENDBRANCH  35  37
ENDBRANCH  34  35
ENDBRANCH  33  34
ENDBRANCH  32  33
ENDBRANCH  31  32
ENDBRANCH  30  31
ENDBRANCH  29  30
ENDBRANCH  28  29
ENDBRANCH  27  28
ENDBRANCH  26  27
ENDBRANCH  25  26
ENDBRANCH  24  25
ENDBRANCH  23  24
ENDBRANCH  22  23
ENDBRANCH  21  22
ENDBRANCH   1  21
TORSDOF 28
ENDMDL
MODEL 7
REMARK VINA RESULT:      -5.1      4.695      9.166
REMARK  Name = 
REMARK  29 active torsions:
REMARK  status: ('A' for Active; 'I' for Inactive)
REMARK    1  A    between atoms: C_1  and  C_2
REMARK    2  A    between atoms: C_2  and  C_3
REMARK    3  A    between atoms: C_3  and  C_4
REMARK    4  A    between atoms: C_4  and  C_5
REMARK    5  A    between atoms: C_5  and  C_6
REMARK    6  A    between atoms: C_6  and  C_7
REMARK    7  A    between atoms: C_7  and  C_8
REMARK    8  A    between atoms: C_8  and  C_9
REMARK    9  A    between atoms: C_9  and  C_10
REMARK   10  A    between atoms: C_10  and  C_11
REMARK   11  A    between atoms: C_11  and  C_12
REMARK   12  A    between atoms: C_12  and  C_13
REMARK   13  A    between atoms: C_13  and  C_14
REMARK   14  A    between atoms: C_14  and  C_15
REMARK   15  A    between atoms: C_15  and  C_16
REMARK   16  A    between atoms: C_16  and  C_17
REMARK   17  A    between atoms: C_17  and  C_18
REMARK   18  A    between atoms: C_18  and  O_20
REMARK   19  A    between atoms: O_20  and  C_21
REMARK   20  A    between atoms: C_21  and  C_22
REMARK   21  A    between atoms: C_22  and  O_23
REMARK   22  A    between atoms: O_23  and  P_24
REMARK   23  A    between atoms: P_24  and  O_26
REMARK   24  A    between atoms: P_24  and  O_27
REMARK   25  A    between atoms: O_27  and  C_28
REMARK   26  A    between atoms: C_28  and  C_29
REMARK   27  A    between atoms: C_29  and  N_30
REMARK   28  A    between atoms: C_29  and  C_31
REMARK   29  A    between atoms: C_31  and  O_33
REMARK                            x       y       z     vdW  Elec       q    Type
REMARK                         _______ _______ _______ _____ _____    ______ ____
ROOT
ATOM      1  C   UNK     1       1.926   6.905  19.385  0.00  0.00    +0.000 C 
ATOM      2  O   UNK     1       2.187   6.360  18.315  0.00  0.00    +0.000 OA
ENDROOT
BRANCH   1   3
ATOM      3  O   UNK     1       1.841   8.255  19.574  0.00  0.00    +0.000 OA
BRANCH   3   4
ATOM      4  C   UNK     1       2.018   8.994  18.359  0.00  0.00    +0.000 C 
BRANCH   4   5
ATOM      5  C   UNK     1       1.100  10.219  18.411  0.00  0.00    +0.000 C 
BRANCH   5   6
ATOM      6  O   UNK     1      -0.182   9.959  17.844  0.00  0.00    +0.000 OA
BRANCH   6   7
ATOM      7  P   UNK     1      -1.489  10.781  18.624  0.00  0.00    +0.000 P 
ATOM      8  O   UNK     1      -0.780  10.716  19.975  0.00  0.00    +0.000 OA
BRANCH   7   9
ATOM      9  O   UNK     1      -0.935  12.117  17.836  0.00  0.00    +0.000 OA
ATOM     10  H   UNK     1      -1.353  12.207  16.952  0.00  0.00    +0.000 HD
ENDBRANCH   7   9
BRANCH   7  11
ATOM     11  O   UNK     1      -2.797  11.602  19.404  0.00  0.00    +0.000 OA
BRANCH  11  12
ATOM     12  C   UNK     1      -2.363  12.810  20.052  0.00  0.00    +0.000 C 
BRANCH  12  13
ATOM     13  C   UNK     1      -3.014  13.018  21.403  0.00  0.00    +0.000 C 
BRANCH  13  14
ATOM     14  N   UNK     1      -2.355  12.037  22.301  0.00  0.00    +0.000 NA
ATOM     15  H   UNK     1      -2.425  11.105  21.885  0.00  0.00    +0.000 HD
ATOM     16  H   UNK     1      -2.828  11.967  23.206  0.00  0.00    +0.000 HD
ENDBRANCH  13  14
BRANCH  13  17
ATOM     17  C   UNK     1      -4.534  12.839  21.324  0.00  0.00    +0.000 C 
ATOM     18  O   UNK     1      -5.213  12.353  22.235  0.00  0.00    +0.000 OA
BRANCH  17  19
ATOM     19  O   UNK     1      -5.132  13.306  20.212  0.00  0.00    +0.000 OA
ATOM     20  H   UNK     1      -5.861  12.749  19.837  0.00  0.00    +0.000 HD
ENDBRANCH  17  19
ENDBRANCH  13  17
ENDBRANCH  12  13
ENDBRANCH  11  12
ENDBRANCH   7  11
ENDBRANCH   6   7
ENDBRANCH   5   6
ENDBRANCH   4   5
ENDBRANCH   3   4
ENDBRANCH   1   3
BRANCH   1  21
ATOM     21  C   UNK     1       1.734   6.188  20.692  0.00  0.00    +0.000 C 
BRANCH  21  22
ATOM     22  C   UNK     1       2.712   5.016  20.780  0.00  0.00    +0.000 C 
BRANCH  22  23
ATOM     23  C   UNK     1       2.027   3.696  21.105  0.00  0.00    +0.000 C 
BRANCH  23  24
ATOM     24  C   UNK     1       0.753   3.558  20.274  0.00  0.00    +0.000 C 
BRANCH  24  25
ATOM     25  C   UNK     1       0.978   2.631  19.091  0.00  0.00    +0.000 C 
BRANCH  25  26
ATOM     26  C   UNK     1       2.226   1.786  19.303  0.00  0.00    +0.000 C 
BRANCH  26  27
ATOM     27  C   UNK     1       3.143   1.894  18.096  0.00  0.00    +0.000 C 
BRANCH  27  28
ATOM     28  C   UNK     1       2.606   2.925  17.119  0.00  0.00    +0.000 C 
BRANCH  28  29
ATOM     29  C   UNK     1       3.477   4.169  17.143  0.00  0.00    +0.000 C 
BRANCH  29  30
ATOM     30  C   UNK     1       4.862   3.824  17.663  0.00  0.00    +0.000 C 
BRANCH  30  31
ATOM     31  C   UNK     1       5.912   4.192  16.629  0.00  0.00    +0.000 C 
BRANCH  31  32
ATOM     32  C   UNK     1       5.942   5.697  16.429  0.00  0.00    +0.000 C 
BRANCH  32  33
ATOM     33  C   UNK     1       7.268   6.262  16.911  0.00  0.00    +0.000 C 
BRANCH  33  34
ATOM     34  C   UNK     1       7.090   7.700  17.375  0.00  0.00    +0.000 C 
BRANCH  34  35
ATOM     35  C   UNK     1       8.262   8.119  18.251  0.00  0.00    +0.000 C 
BRANCH  35  37
ATOM     36  C   UNK     1       9.311  10.106  19.348  0.00  0.00    +0.000 C 
ATOM     37  C   UNK     1       8.490   9.623  18.166  0.00  0.00    +0.000 C 
ENDBRANCH  35  37
ENDBRANCH  34  35
ENDBRANCH  33  34
ENDBRANCH  32  33
ENDBRANCH  31  32
ENDBRANCH  30  31
ENDBRANCH  29  30
ENDBRANCH  28  29
ENDBRANCH  27  28
ENDBRANCH  26  27
ENDBRANCH  25  26
ENDBRANCH  24  25
ENDBRANCH  23  24
ENDBRANCH  22  23
ENDBRANCH  21  22
ENDBRANCH   1  21
TORSDOF 28
ENDMDL
MODEL 8
REMARK VINA RESULT:      -5.0      6.726      9.938
REMARK  Name = 
REMARK  29 active torsions:
REMARK  status: ('A' for Active; 'I' for Inactive)
REMARK    1  A    between atoms: C_1  and  C_2
REMARK    2  A    between atoms: C_2  and  C_3
REMARK    3  A    between atoms: C_3  and  C_4
REMARK    4  A    between atoms: C_4  and  C_5
REMARK    5  A    between atoms: C_5  and  C_6
REMARK    6  A    between atoms: C_6  and  C_7
REMARK    7  A    between atoms: C_7  and  C_8
REMARK    8  A    between atoms: C_8  and  C_9
REMARK    9  A    between atoms: C_9  and  C_10
REMARK   10  A    between atoms: C_10  and  C_11
REMARK   11  A    between atoms: C_11  and  C_12
REMARK   12  A    between atoms: C_12  and  C_13
REMARK   13  A    between atoms: C_13  and  C_14
REMARK   14  A    between atoms: C_14  and  C_15
REMARK   15  A    between atoms: C_15  and  C_16
REMARK   16  A    between atoms: C_16  and  C_17
REMARK   17  A    between atoms: C_17  and  C_18
REMARK   18  A    between atoms: C_18  and  O_20
REMARK   19  A    between atoms: O_20  and  C_21
REMARK   20  A    between atoms: C_21  and  C_22
REMARK   21  A    between atoms: C_22  and  O_23
REMARK   22  A    between atoms: O_23  and  P_24
REMARK   23  A    between atoms: P_24  and  O_26
REMARK   24  A    between atoms: P_24  and  O_27
REMARK   25  A    between atoms: O_27  and  C_28
REMARK   26  A    between atoms: C_28  and  C_29
REMARK   27  A    between atoms: C_29  and  N_30
REMARK   28  A    between atoms: C_29  and  C_31
REMARK   29  A    between atoms: C_31  and  O_33
REMARK                            x       y       z     vdW  Elec       q    Type
REMARK                         _______ _______ _______ _____ _____    ______ ____
ROOT
ATOM      1  C   UNK     1       1.785   7.593  20.421  0.00  0.00    +0.000 C 
ATOM      2  O   UNK     1       1.279   7.942  21.485  0.00  0.00    +0.000 OA
ENDROOT
BRANCH   1   3
ATOM      3  O   UNK     1       1.855   8.367  19.298  0.00  0.00    +0.000 OA
BRANCH   3   4
ATOM      4  C   UNK     1       1.010   9.522  19.372  0.00  0.00    +0.000 C 
BRANCH   4   5
ATOM      5  C   UNK     1       0.213   9.610  18.067  0.00  0.00    +0.000 C 
BRANCH   5   6
ATOM      6  O   UNK     1      -0.421  10.877  17.906  0.00  0.00    +0.000 OA
BRANCH   6   7
ATOM      7  P   UNK     1      -2.043  10.796  17.310  0.00  0.00    +0.000 P 
ATOM      8  O   UNK     1      -2.473   9.913  18.478  0.00  0.00    +0.000 OA
BRANCH   7   9
ATOM      9  O   UNK     1      -2.155  12.363  17.804  0.00  0.00    +0.000 OA
ATOM     10  H   UNK     1      -1.556  12.944  17.286  0.00  0.00    +0.000 HD
ENDBRANCH   7   9
BRANCH   7  11
ATOM     11  O   UNK     1      -3.664  10.714  16.712  0.00  0.00    +0.000 OA
BRANCH  11  12
ATOM     12  C   UNK     1      -4.489  11.761  17.252  0.00  0.00    +0.000 C 
BRANCH  12  13
ATOM     13  C   UNK     1      -5.789  11.244  17.832  0.00  0.00    +0.000 C 
BRANCH  13  14
ATOM     14  N   UNK     1      -6.845  12.092  17.225  0.00  0.00    +0.000 NA
ATOM     15  H   UNK     1      -7.636  12.155  17.872  0.00  0.00    +0.000 HD
ATOM     16  H   UNK     1      -7.226  11.678  16.370  0.00  0.00    +0.000 HD
ENDBRANCH  13  14
BRANCH  13  17
ATOM     17  C   UNK     1      -5.777  11.299  19.364  0.00  0.00    +0.000 C 
ATOM     18  O   UNK     1      -5.071  12.076  20.015  0.00  0.00    +0.000 OA
BRANCH  17  19
ATOM     19  O   UNK     1      -6.644  10.486  19.996  0.00  0.00    +0.000 OA
ATOM     20  H   UNK     1      -7.505  10.891  20.274  0.00  0.00    +0.000 HD
ENDBRANCH  17  19
ENDBRANCH  13  17
ENDBRANCH  12  13
ENDBRANCH  11  12
ENDBRANCH   7  11
ENDBRANCH   6   7
ENDBRANCH   5   6
ENDBRANCH   4   5
ENDBRANCH   3   4
ENDBRANCH   1   3
BRANCH   1  21
ATOM     21  C   UNK     1       2.346   6.227  20.143  0.00  0.00    +0.000 C 
BRANCH  21  22
ATOM     22  C   UNK     1       1.472   5.169  20.818  0.00  0.00    +0.000 C 
BRANCH  22  23
ATOM     23  C   UNK     1       0.963   4.114  19.846  0.00  0.00    +0.000 C 
BRANCH  23  24
ATOM     24  C   UNK     1       1.499   2.742  20.247  0.00  0.00    +0.000 C 
BRANCH  24  25
ATOM     25  C   UNK     1       2.838   2.470  19.580  0.00  0.00    +0.000 C 
BRANCH  25  26
ATOM     26  C   UNK     1       2.671   2.355  18.072  0.00  0.00    +0.000 C 
BRANCH  26  27
ATOM     27  C   UNK     1       3.853   2.996  17.364  0.00  0.00    +0.000 C 
BRANCH  27  28
ATOM     28  C   UNK     1       3.716   4.509  17.377  0.00  0.00    +0.000 C 
BRANCH  28  29
ATOM     29  C   UNK     1       4.854   5.127  18.170  0.00  0.00    +0.000 C 
BRANCH  29  30
ATOM     30  C   UNK     1       6.094   4.256  18.068  0.00  0.00    +0.000 C 
BRANCH  30  31
ATOM     31  C   UNK     1       7.085   4.873  17.097  0.00  0.00    +0.000 C 
BRANCH  31  32
ATOM     32  C   UNK     1       6.459   6.071  16.405  0.00  0.00    +0.000 C 
BRANCH  32  33
ATOM     33  C   UNK     1       6.270   5.782  14.925  0.00  0.00    +0.000 C 
BRANCH  33  34
ATOM     34  C   UNK     1       6.654   4.342  14.617  0.00  0.00    +0.000 C 
BRANCH  34  35
ATOM     35  C   UNK     1       5.511   3.633  13.905  0.00  0.00    +0.000 C 
BRANCH  35  37
ATOM     36  C   UNK     1       4.564   3.255  11.623  0.00  0.00    +0.000 C 
ATOM     37  C   UNK     1       5.837   3.426  12.432  0.00  0.00    +0.000 C 
ENDBRANCH  35  37
ENDBRANCH  34  35
ENDBRANCH  33  34
ENDBRANCH  32  33
ENDBRANCH  31  32
ENDBRANCH  30  31
ENDBRANCH  29  30
ENDBRANCH  28  29
ENDBRANCH  27  28
ENDBRANCH  26  27
ENDBRANCH  25  26
ENDBRANCH  24  25
ENDBRANCH  23  24
ENDBRANCH  22  23
ENDBRANCH  21  22
ENDBRANCH   1  21
TORSDOF 28
ENDMDL
MODEL 9
REMARK VINA RESULT:      -5.0      1.637      3.192
REMARK  Name = 
REMARK  29 active torsions:
REMARK  status: ('A' for Active; 'I' for Inactive)
REMARK    1  A    between atoms: C_1  and  C_2
REMARK    2  A    between atoms: C_2  and  C_3
REMARK    3  A    between atoms: C_3  and  C_4
REMARK    4  A    between atoms: C_4  and  C_5
REMARK    5  A    between atoms: C_5  and  C_6
REMARK    6  A    between atoms: C_6  and  C_7
REMARK    7  A    between atoms: C_7  and  C_8
REMARK    8  A    between atoms: C_8  and  C_9
REMARK    9  A    between atoms: C_9  and  C_10
REMARK   10  A    between atoms: C_10  and  C_11
REMARK   11  A    between atoms: C_11  and  C_12
REMARK   12  A    between atoms: C_12  and  C_13
REMARK   13  A    between atoms: C_13  and  C_14
REMARK   14  A    between atoms: C_14  and  C_15
REMARK   15  A    between atoms: C_15  and  C_16
REMARK   16  A    between atoms: C_16  and  C_17
REMARK   17  A    between atoms: C_17  and  C_18
REMARK   18  A    between atoms: C_18  and  O_20
REMARK   19  A    between atoms: O_20  and  C_21
REMARK   20  A    between atoms: C_21  and  C_22
REMARK   21  A    between atoms: C_22  and  O_23
REMARK   22  A    between atoms: O_23  and  P_24
REMARK   23  A    between atoms: P_24  and  O_26
REMARK   24  A    between atoms: P_24  and  O_27
REMARK   25  A    between atoms: O_27  and  C_28
REMARK   26  A    between atoms: C_28  and  C_29
REMARK   27  A    between atoms: C_29  and  N_30
REMARK   28  A    between atoms: C_29  and  C_31
REMARK   29  A    between atoms: C_31  and  O_33
REMARK                            x       y       z     vdW  Elec       q    Type
REMARK                         _______ _______ _______ _____ _____    ______ ____
ROOT
ATOM      1  C   UNK     1       6.240   6.789  17.295  0.00  0.00    +0.000 C 
ATOM      2  O   UNK     1       5.258   7.525  17.359  0.00  0.00    +0.000 OA
ENDROOT
BRANCH   1   3
ATOM      3  O   UNK     1       6.226   5.507  16.827  0.00  0.00    +0.000 OA
BRANCH   3   4
ATOM      4  C   UNK     1       5.457   5.367  15.625  0.00  0.00    +0.000 C 
BRANCH   4   5
ATOM      5  C   UNK     1       4.794   3.986  15.643  0.00  0.00    +0.000 C 
BRANCH   5   6
ATOM      6  O   UNK     1       5.148   3.232  16.800  0.00  0.00    +0.000 OA
BRANCH   6   7
ATOM      7  P   UNK     1       3.933   3.199  18.031  0.00  0.00    +0.000 P 
ATOM      8  O   UNK     1       3.386   1.871  17.515  0.00  0.00    +0.000 OA
BRANCH   7   9
ATOM      9  O   UNK     1       5.178   2.859  19.054  0.00  0.00    +0.000 OA
ATOM     10  H   UNK     1       4.858   2.738  19.975  0.00  0.00    +0.000 HD
ENDBRANCH   7   9
BRANCH   7  11
ATOM     11  O   UNK     1       2.718   3.167  19.262  0.00  0.00    +0.000 OA
BRANCH  11  12
ATOM     12  C   UNK     1       2.761   4.341  20.091  0.00  0.00    +0.000 C 
BRANCH  12  13
ATOM     13  C   UNK     1       3.273   5.561  19.355  0.00  0.00    +0.000 C 
BRANCH  13  14
ATOM     14  N   UNK     1       4.671   5.734  19.824  0.00  0.00    +0.000 NA
ATOM     15  H   UNK     1       4.865   6.733  19.934  0.00  0.00    +0.000 HD
ATOM     16  H   UNK     1       5.351   5.401  19.135  0.00  0.00    +0.000 HD
ENDBRANCH  13  14
BRANCH  13  17
ATOM     17  C   UNK     1       2.391   6.786  19.623  0.00  0.00    +0.000 C 
ATOM     18  O   UNK     1       1.616   6.873  20.581  0.00  0.00    +0.000 OA
BRANCH  17  19
ATOM     19  O   UNK     1       2.545   7.826  18.783  0.00  0.00    +0.000 OA
ATOM     20  H   UNK     1       2.984   8.632  19.156  0.00  0.00    +0.000 HD
ENDBRANCH  17  19
ENDBRANCH  13  17
ENDBRANCH  12  13
ENDBRANCH  11  12
ENDBRANCH   7  11
ENDBRANCH   6   7
ENDBRANCH   5   6
ENDBRANCH   4   5
ENDBRANCH   3   4
ENDBRANCH   1   3
BRANCH   1  21
ATOM     21  C   UNK     1       7.614   7.141  17.794  0.00  0.00    +0.000 C 
BRANCH  21  22
ATOM     22  C   UNK     1       7.825   8.652  17.684  0.00  0.00    +0.000 C 
BRANCH  22  23
ATOM     23  C   UNK     1       8.786   9.193  18.733  0.00  0.00    +0.000 C 
BRANCH  23  24
ATOM     24  C   UNK     1       9.118  10.651  18.425  0.00  0.00    +0.000 C 
BRANCH  24  25
ATOM     25  C   UNK     1       9.863  11.292  19.586  0.00  0.00    +0.000 C 
BRANCH  25  26
ATOM     26  C   UNK     1      11.319  11.534  19.218  0.00  0.00    +0.000 C 
BRANCH  26  27
ATOM     27  C   UNK     1      11.447  11.780  17.724  0.00  0.00    +0.000 C 
BRANCH  27  28
ATOM     28  C   UNK     1      12.121  13.118  17.467  0.00  0.00    +0.000 C 
BRANCH  28  29
ATOM     29  C   UNK     1      11.095  14.137  17.003  0.00  0.00    +0.000 C 
BRANCH  29  30
ATOM     30  C   UNK     1      10.817  15.138  18.111  0.00  0.00    +0.000 C 
BRANCH  30  31
ATOM     31  C   UNK     1       9.470  14.845  18.750  0.00  0.00    +0.000 C 
BRANCH  31  32
ATOM     32  C   UNK     1       9.592  14.884  20.263  0.00  0.00    +0.000 C 
BRANCH  32  33
ATOM     33  C   UNK     1       8.259  15.266  20.885  0.00  0.00    +0.000 C 
BRANCH  33  34
ATOM     34  C   UNK     1       7.717  14.115  21.719  0.00  0.00    +0.000 C 
BRANCH  34  35
ATOM     35  C   UNK     1       8.842  13.462  22.510  0.00  0.00    +0.000 C 
BRANCH  35  37
ATOM     36  C   UNK     1       8.065  11.736  24.142  0.00  0.00    +0.000 C 
ATOM     37  C   UNK     1       8.561  11.981  22.729  0.00  0.00    +0.000 C 
ENDBRANCH  35  37
ENDBRANCH  34  35
ENDBRANCH  33  34
ENDBRANCH  32  33
ENDBRANCH  31  32
ENDBRANCH  30  31
ENDBRANCH  29  30
ENDBRANCH  28  29
ENDBRANCH  27  28
ENDBRANCH  26  27
ENDBRANCH  25  26
ENDBRANCH  24  25
ENDBRANCH  23  24
ENDBRANCH  22  23
ENDBRANCH  21  22
ENDBRANCH   1  21
TORSDOF 28
ENDMDL
