MODEL 1
REMARK VINA RESULT:      -7.5      0.000      0.000
REMARK  Name = 
REMARK  5 active torsions:
REMARK  status: ('A' for Active; 'I' for Inactive)
REMARK    1  A    between atoms: C_2  and  O_3
REMARK    2  A    between atoms: C_2  and  C_10
REMARK    3  A    between atoms: O_3  and  C_4
REMARK    4  A    between atoms: C_4  and  C_5
REMARK    5  A    between atoms: C_11  and  C_12
REMARK                            x       y       z     vdW  Elec       q    Type
REMARK                         _______ _______ _______ _____ _____    ______ ____
ROOT
ATOM      1  C   UNL     1       4.618   4.521  16.621  0.00  0.00    +0.000 C 
ATOM      2  C   UNL     1       4.669   5.774  17.107  0.00  0.00    +0.000 C 
ATOM      3  C   UNL     1       5.846   6.538  16.593  0.00  0.00    +0.000 C 
ATOM      4  C   UNL     1       6.687   5.455  15.920  0.00  0.00    +0.000 C 
ATOM      5  C   UNL     1       5.761   4.253  15.696  0.00  0.00    +0.000 C 
ENDROOT
BRANCH   2   6
ATOM      6  C   UNL     1       3.715   6.426  17.996  0.00  0.00    +0.000 A 
ATOM      7  C   UNL     1       3.442   5.856  19.244  0.00  0.00    +0.000 A 
ATOM      8  C   UNL     1       2.559   6.481  20.126  0.00  0.00    +0.000 A 
ATOM      9  C   UNL     1       1.941   7.680  19.764  0.00  0.00    +0.000 A 
ATOM     10 CL   UNL     1       0.863   8.401  20.906  0.00  0.00    +0.000 Cl
ATOM     11  C   UNL     1       2.209   8.253  18.515  0.00  0.00    +0.000 A 
ATOM     12 CL   UNL     1       1.476   9.733  18.002  0.00  0.00    +0.000 Cl
ATOM     13  C   UNL     1       3.096   7.626  17.634  0.00  0.00    +0.000 A 
ENDBRANCH   2   6
BRANCH   1  15
ATOM     14  O   UNL     1       2.397   3.651  16.563  0.00  0.00    +0.000 OA
ATOM     15  C   UNL     1       3.559   3.539  16.926  0.00  0.00    +0.000 C 
BRANCH  15  16
ATOM     16  O   UNL     1       4.039   2.553  17.725  0.00  0.00    +0.000 OA
BRANCH  16  17
ATOM     17  C   UNL     1       3.038   1.663  18.243  0.00  0.00    +0.000 C 
BRANCH  17  18
ATOM     18  C   UNL     1       2.459   2.232  19.499  0.00  0.00    +0.000 A 
ATOM     19  C   UNL     1       1.171   2.688  19.719  0.00  0.00    +0.000 A 
ATOM     20  C   UNL     1       1.005   3.246  21.021  0.00  0.00    +0.000 A 
ATOM     21  C   UNL     1       2.169   3.196  21.754  0.00  0.00    +0.000 A 
ATOM     22  S   UNL     1       3.449   2.476  20.878  0.00  0.00    +0.000 S 
ENDBRANCH  17  18
ENDBRANCH  16  17
ENDBRANCH  15  16
ENDBRANCH   1  15
TORSDOF 5
ENDMDL
MODEL 2
REMARK VINA RESULT:      -7.1      0.775      1.064
REMARK  Name = 
REMARK  5 active torsions:
REMARK  status: ('A' for Active; 'I' for Inactive)
REMARK    1  A    between atoms: C_2  and  O_3
REMARK    2  A    between atoms: C_2  and  C_10
REMARK    3  A    between atoms: O_3  and  C_4
REMARK    4  A    between atoms: C_4  and  C_5
REMARK    5  A    between atoms: C_11  and  C_12
REMARK                            x       y       z     vdW  Elec       q    Type
REMARK                         _______ _______ _______ _____ _____    ______ ____
ROOT
ATOM      1  C   UNL     1       5.157   4.447  16.902  0.00  0.00    +0.000 C 
ATOM      2  C   UNL     1       4.670   5.698  16.835  0.00  0.00    +0.000 C 
ATOM      3  C   UNL     1       5.119   6.420  15.606  0.00  0.00    +0.000 C 
ATOM      4  C   UNL     1       6.206   5.502  15.049  0.00  0.00    +0.000 C 
ATOM      5  C   UNL     1       6.011   4.134  15.715  0.00  0.00    +0.000 C 
ENDROOT
BRANCH   2   6
ATOM      6  C   UNL     1       3.766   6.355  17.770  0.00  0.00    +0.000 A 
ATOM      7  C   UNL     1       3.499   5.752  19.004  0.00  0.00    +0.000 A 
ATOM      8  C   UNL     1       2.663   6.380  19.929  0.00  0.00    +0.000 A 
ATOM      9  C   UNL     1       2.087   7.616  19.625  0.00  0.00    +0.000 A 
ATOM     10 CL   UNL     1       1.066   8.338  20.818  0.00  0.00    +0.000 Cl
ATOM     11  C   UNL     1       2.349   8.222  18.391  0.00  0.00    +0.000 A 
ATOM     12 CL   UNL     1       1.665   9.748  17.949  0.00  0.00    +0.000 Cl
ATOM     13  C   UNL     1       3.188   7.592  17.466  0.00  0.00    +0.000 A 
ENDBRANCH   2   6
BRANCH   1  15
ATOM     14  O   UNL     1       5.456   3.463  19.055  0.00  0.00    +0.000 OA
ATOM     15  C   UNL     1       4.868   3.485  17.983  0.00  0.00    +0.000 C 
BRANCH  15  16
ATOM     16  O   UNL     1       3.927   2.591  17.588  0.00  0.00    +0.000 OA
BRANCH  16  17
ATOM     17  C   UNL     1       3.540   1.644  18.597  0.00  0.00    +0.000 C 
BRANCH  17  18
ATOM     18  C   UNL     1       2.494   2.249  19.480  0.00  0.00    +0.000 A 
ATOM     19  C   UNL     1       1.250   2.738  19.124  0.00  0.00    +0.000 A 
ATOM     20  C   UNL     1       0.558   3.322  20.225  0.00  0.00    +0.000 A 
ATOM     21  C   UNL     1       1.294   3.258  21.387  0.00  0.00    +0.000 A 
ATOM     22  S   UNL     1       2.804   2.493  21.149  0.00  0.00    +0.000 S 
ENDBRANCH  17  18
ENDBRANCH  16  17
ENDBRANCH  15  16
ENDBRANCH   1  15
TORSDOF 5
ENDMDL
MODEL 3
REMARK VINA RESULT:      -7.0      1.962      4.861
REMARK  Name = 
REMARK  5 active torsions:
REMARK  status: ('A' for Active; 'I' for Inactive)
REMARK    1  A    between atoms: C_2  and  O_3
REMARK    2  A    between atoms: C_2  and  C_10
REMARK    3  A    between atoms: O_3  and  C_4
REMARK    4  A    between atoms: C_4  and  C_5
REMARK    5  A    between atoms: C_11  and  C_12
REMARK                            x       y       z     vdW  Elec       q    Type
REMARK                         _______ _______ _______ _____ _____    ______ ____
ROOT
ATOM      1  C   UNL     1       3.369   4.011  19.831  0.00  0.00    +0.000 C 
ATOM      2  C   UNL     1       2.265   4.771  19.934  0.00  0.00    +0.000 C 
ATOM      3  C   UNL     1       1.108   4.022  20.513  0.00  0.00    +0.000 C 
ATOM      4  C   UNL     1       1.595   2.575  20.493  0.00  0.00    +0.000 C 
ATOM      5  C   UNL     1       3.120   2.625  20.334  0.00  0.00    +0.000 C 
ENDROOT
BRANCH   2   6
ATOM      6  C   UNL     1       2.117   6.181  19.596  0.00  0.00    +0.000 A 
ATOM      7  C   UNL     1       2.329   6.596  18.277  0.00  0.00    +0.000 A 
ATOM      8  C   UNL     1       2.159   7.935  17.924  0.00  0.00    +0.000 A 
ATOM      9  C   UNL     1       1.779   8.871  18.889  0.00  0.00    +0.000 A 
ATOM     10 CL   UNL     1       1.584  10.511  18.381  0.00  0.00    +0.000 Cl
ATOM     11  C   UNL     1       1.570   8.462  20.211  0.00  0.00    +0.000 A 
ATOM     12 CL   UNL     1       1.102   9.568  21.456  0.00  0.00    +0.000 Cl
ATOM     13  C   UNL     1       1.738   7.118  20.563  0.00  0.00    +0.000 A 
ENDBRANCH   2   6
BRANCH   1  15
ATOM     14  O   UNL     1       5.240   5.487  19.719  0.00  0.00    +0.000 OA
ATOM     15  C   UNL     1       4.672   4.479  19.322  0.00  0.00    +0.000 C 
BRANCH  15  16
ATOM     16  O   UNL     1       5.102   3.686  18.309  0.00  0.00    +0.000 OA
BRANCH  16  17
ATOM     17  C   UNL     1       4.400   3.869  17.068  0.00  0.00    +0.000 C 
BRANCH  17  18
ATOM     18  C   UNL     1       5.371   4.230  15.989  0.00  0.00    +0.000 A 
ATOM     19  C   UNL     1       5.248   4.032  14.625  0.00  0.00    +0.000 A 
ATOM     20  C   UNL     1       6.416   4.426  13.909  0.00  0.00    +0.000 A 
ATOM     21  C   UNL     1       7.392   4.915  14.748  0.00  0.00    +0.000 A 
ATOM     22  S   UNL     1       6.897   4.904  16.384  0.00  0.00    +0.000 S 
ENDBRANCH  17  18
ENDBRANCH  16  17
ENDBRANCH  15  16
ENDBRANCH   1  15
TORSDOF 5
ENDMDL
MODEL 4
REMARK VINA RESULT:      -7.0      2.451      4.432
REMARK  Name = 
REMARK  5 active torsions:
REMARK  status: ('A' for Active; 'I' for Inactive)
REMARK    1  A    between atoms: C_2  and  O_3
REMARK    2  A    between atoms: C_2  and  C_10
REMARK    3  A    between atoms: O_3  and  C_4
REMARK    4  A    between atoms: C_4  and  C_5
REMARK    5  A    between atoms: C_11  and  C_12
REMARK                            x       y       z     vdW  Elec       q    Type
REMARK                         _______ _______ _______ _____ _____    ______ ____
ROOT
ATOM      1  C   UNL     1       3.975   4.507  18.471  0.00  0.00    +0.000 C 
ATOM      2  C   UNL     1       2.717   4.978  18.514  0.00  0.00    +0.000 C 
ATOM      3  C   UNL     1       1.726   4.014  17.945  0.00  0.00    +0.000 C 
ATOM      4  C   UNL     1       2.615   2.968  17.276  0.00  0.00    +0.000 C 
ATOM      5  C   UNL     1       4.020   3.140  17.866  0.00  0.00    +0.000 C 
ENDROOT
BRANCH   2   6
ATOM      6  C   UNL     1       2.258   6.245  19.070  0.00  0.00    +0.000 A 
ATOM      7  C   UNL     1       1.836   6.295  20.402  0.00  0.00    +0.000 A 
ATOM      8  C   UNL     1       1.424   7.503  20.966  0.00  0.00    +0.000 A 
ATOM      9  C   UNL     1       1.430   8.671  20.200  0.00  0.00    +0.000 A 
ATOM     10 CL   UNL     1       0.912  10.132  20.963  0.00  0.00    +0.000 Cl
ATOM     11  C   UNL     1       1.850   8.626  18.865  0.00  0.00    +0.000 A 
ATOM     12 CL   UNL     1       1.878  10.032  17.858  0.00  0.00    +0.000 Cl
ATOM     13  C   UNL     1       2.264   7.414  18.302  0.00  0.00    +0.000 A 
ENDBRANCH   2   6
BRANCH   1  15
ATOM     14  O   UNL     1       5.878   4.800  19.881  0.00  0.00    +0.000 OA
ATOM     15  C   UNL     1       5.163   5.219  18.981  0.00  0.00    +0.000 C 
BRANCH  15  16
ATOM     16  O   UNL     1       5.295   6.424  18.373  0.00  0.00    +0.000 OA
BRANCH  16  17
ATOM     17  C   UNL     1       6.444   6.540  17.518  0.00  0.00    +0.000 C 
BRANCH  17  18
ATOM     18  C   UNL     1       6.250   5.699  16.296  0.00  0.00    +0.000 A 
ATOM     19  C   UNL     1       5.287   5.828  15.312  0.00  0.00    +0.000 A 
ATOM     20  C   UNL     1       5.357   4.788  14.340  0.00  0.00    +0.000 A 
ATOM     21  C   UNL     1       6.373   3.899  14.611  0.00  0.00    +0.000 A 
ATOM     22  S   UNL     1       7.237   4.324  16.023  0.00  0.00    +0.000 S 
ENDBRANCH  17  18
ENDBRANCH  16  17
ENDBRANCH  15  16
ENDBRANCH   1  15
TORSDOF 5
ENDMDL
MODEL 5
REMARK VINA RESULT:      -7.0      3.915      6.232
REMARK  Name = 
REMARK  5 active torsions:
REMARK  status: ('A' for Active; 'I' for Inactive)
REMARK    1  A    between atoms: C_2  and  O_3
REMARK    2  A    between atoms: C_2  and  C_10
REMARK    3  A    between atoms: O_3  and  C_4
REMARK    4  A    between atoms: C_4  and  C_5
REMARK    5  A    between atoms: C_11  and  C_12
REMARK                            x       y       z     vdW  Elec       q    Type
REMARK                         _______ _______ _______ _____ _____    ______ ____
ROOT
ATOM      1  C   UNL     1       2.143   5.248  19.769  0.00  0.00    +0.000 C 
ATOM      2  C   UNL     1       2.990   4.279  19.379  0.00  0.00    +0.000 C 
ATOM      3  C   UNL     1       2.662   2.955  19.991  0.00  0.00    +0.000 C 
ATOM      4  C   UNL     1       1.632   3.318  21.058  0.00  0.00    +0.000 C 
ATOM      5  C   UNL     1       1.107   4.716  20.707  0.00  0.00    +0.000 C 
ENDROOT
BRANCH   2   6
ATOM      6  C   UNL     1       4.099   4.388  18.440  0.00  0.00    +0.000 A 
ATOM      7  C   UNL     1       3.916   3.979  17.115  0.00  0.00    +0.000 A 
ATOM      8  C   UNL     1       4.953   4.105  16.189  0.00  0.00    +0.000 A 
ATOM      9  C   UNL     1       6.182   4.641  16.584  0.00  0.00    +0.000 A 
ATOM     10 CL   UNL     1       7.419   4.773  15.385  0.00  0.00    +0.000 Cl
ATOM     11  C   UNL     1       6.370   5.050  17.910  0.00  0.00    +0.000 A 
ATOM     12 CL   UNL     1       7.865   5.717  18.466  0.00  0.00    +0.000 Cl
ATOM     13  C   UNL     1       5.328   4.924  18.835  0.00  0.00    +0.000 A 
ENDBRANCH   2   6
BRANCH   1  15
ATOM     14  O   UNL     1       2.527   6.992  18.187  0.00  0.00    +0.000 OA
ATOM     15  C   UNL     1       2.197   6.650  19.314  0.00  0.00    +0.000 C 
BRANCH  15  16
ATOM     16  O   UNL     1       1.911   7.495  20.336  0.00  0.00    +0.000 OA
BRANCH  16  17
ATOM     17  C   UNL     1       1.379   8.767  19.930  0.00  0.00    +0.000 C 
BRANCH  17  18
ATOM     18  C   UNL     1       0.673   9.409  21.082  0.00  0.00    +0.000 A 
ATOM     19  C   UNL     1       0.491   8.911  22.360  0.00  0.00    +0.000 A 
ATOM     20  C   UNL     1      -0.311   9.767  23.170  0.00  0.00    +0.000 A 
ATOM     21  C   UNL     1      -0.714  10.892  22.486  0.00  0.00    +0.000 A 
ATOM     22  S   UNL     1      -0.122  10.915  20.883  0.00  0.00    +0.000 S 
ENDBRANCH  17  18
ENDBRANCH  16  17
ENDBRANCH  15  16
ENDBRANCH   1  15
TORSDOF 5
ENDMDL
MODEL 6
REMARK VINA RESULT:      -7.0      3.308      5.613
REMARK  Name = 
REMARK  5 active torsions:
REMARK  status: ('A' for Active; 'I' for Inactive)
REMARK    1  A    between atoms: C_2  and  O_3
REMARK    2  A    between atoms: C_2  and  C_10
REMARK    3  A    between atoms: O_3  and  C_4
REMARK    4  A    between atoms: C_4  and  C_5
REMARK    5  A    between atoms: C_11  and  C_12
REMARK                            x       y       z     vdW  Elec       q    Type
REMARK                         _______ _______ _______ _____ _____    ______ ____
ROOT
ATOM      1  C   UNL     1       2.454   3.898  19.196  0.00  0.00    +0.000 C 
ATOM      2  C   UNL     1       3.449   3.834  18.294  0.00  0.00    +0.000 C 
ATOM      3  C   UNL     1       3.339   2.636  17.407  0.00  0.00    +0.000 C 
ATOM      4  C   UNL     1       2.258   1.803  18.091  0.00  0.00    +0.000 C 
ATOM      5  C   UNL     1       1.513   2.745  19.046  0.00  0.00    +0.000 C 
ENDROOT
BRANCH   2   6
ATOM      6  C   UNL     1       4.529   4.791  18.089  0.00  0.00    +0.000 A 
ATOM      7  C   UNL     1       4.409   5.754  17.082  0.00  0.00    +0.000 A 
ATOM      8  C   UNL     1       5.416   6.701  16.890  0.00  0.00    +0.000 A 
ATOM      9  C   UNL     1       6.553   6.690  17.703  0.00  0.00    +0.000 A 
ATOM     10 CL   UNL     1       7.757   7.894  17.413  0.00  0.00    +0.000 Cl
ATOM     11  C   UNL     1       6.678   5.725  18.710  0.00  0.00    +0.000 A 
ATOM     12 CL   UNL     1       8.059   5.651  19.749  0.00  0.00    +0.000 Cl
ATOM     13  C   UNL     1       5.667   4.778  18.902  0.00  0.00    +0.000 A 
ENDBRANCH   2   6
BRANCH   1  15
ATOM     14  O   UNL     1       2.440   4.832  21.391  0.00  0.00    +0.000 OA
ATOM     15  C   UNL     1       2.280   4.977  20.187  0.00  0.00    +0.000 C 
BRANCH  15  16
ATOM     16  O   UNL     1       1.844   6.113  19.586  0.00  0.00    +0.000 OA
BRANCH  16  17
ATOM     17  C   UNL     1       1.840   7.274  20.432  0.00  0.00    +0.000 C 
BRANCH  17  18
ATOM     18  C   UNL     1       1.599   8.498  19.607  0.00  0.00    +0.000 A 
ATOM     19  C   UNL     1       2.052   8.772  18.329  0.00  0.00    +0.000 A 
ATOM     20  C   UNL     1       1.695  10.082  17.892  0.00  0.00    +0.000 A 
ATOM     21  C   UNL     1       0.979  10.765  18.850  0.00  0.00    +0.000 A 
ATOM     22  S   UNL     1       0.736   9.828  20.259  0.00  0.00    +0.000 S 
ENDBRANCH  17  18
ENDBRANCH  16  17
ENDBRANCH  15  16
ENDBRANCH   1  15
TORSDOF 5
ENDMDL
MODEL 7
REMARK VINA RESULT:      -7.0      3.476      5.721
REMARK  Name = 
REMARK  5 active torsions:
REMARK  status: ('A' for Active; 'I' for Inactive)
REMARK    1  A    between atoms: C_2  and  O_3
REMARK    2  A    between atoms: C_2  and  C_10
REMARK    3  A    between atoms: O_3  and  C_4
REMARK    4  A    between atoms: C_4  and  C_5
REMARK    5  A    between atoms: C_11  and  C_12
REMARK                            x       y       z     vdW  Elec       q    Type
REMARK                         _______ _______ _______ _____ _____    ______ ____
ROOT
ATOM      1  C   UNL     1       6.049   6.444  17.553  0.00  0.00    +0.000 C 
ATOM      2  C   UNL     1       5.750   5.496  18.458  0.00  0.00    +0.000 C 
ATOM      3  C   UNL     1       6.824   5.327  19.484  0.00  0.00    +0.000 C 
ATOM      4  C   UNL     1       7.981   6.136  18.903  0.00  0.00    +0.000 C 
ATOM      5  C   UNL     1       7.380   7.063  17.839  0.00  0.00    +0.000 C 
ENDROOT
BRANCH   2   6
ATOM      6  C   UNL     1       4.530   4.703  18.549  0.00  0.00    +0.000 A 
ATOM      7  C   UNL     1       4.398   3.558  17.758  0.00  0.00    +0.000 A 
ATOM      8  C   UNL     1       3.254   2.764  17.853  0.00  0.00    +0.000 A 
ATOM      9  C   UNL     1       2.233   3.111  18.741  0.00  0.00    +0.000 A 
ATOM     10 CL   UNL     1       0.847   2.081  18.811  0.00  0.00    +0.000 Cl
ATOM     11  C   UNL     1       2.360   4.258  19.534  0.00  0.00    +0.000 A 
ATOM     12 CL   UNL     1       1.133   4.749  20.650  0.00  0.00    +0.000 Cl
ATOM     13  C   UNL     1       3.508   5.052  19.438  0.00  0.00    +0.000 A 
ENDBRANCH   2   6
BRANCH   1  15
ATOM     14  O   UNL     1       4.087   7.394  16.583  0.00  0.00    +0.000 OA
ATOM     15  C   UNL     1       5.175   6.853  16.437  0.00  0.00    +0.000 C 
BRANCH  15  16
ATOM     16  O   UNL     1       5.708   6.474  15.249  0.00  0.00    +0.000 OA
BRANCH  16  17
ATOM     17  C   UNL     1       6.481   5.264  15.299  0.00  0.00    +0.000 C 
BRANCH  17  18
ATOM     18  C   UNL     1       6.464   4.599  13.959  0.00  0.00    +0.000 A 
ATOM     19  C   UNL     1       5.558   3.674  13.474  0.00  0.00    +0.000 A 
ATOM     20  C   UNL     1       5.912   3.192  12.179  0.00  0.00    +0.000 A 
ATOM     21  C   UNL     1       7.074   3.766  11.717  0.00  0.00    +0.000 A 
ATOM     22  S   UNL     1       7.727   4.882  12.835  0.00  0.00    +0.000 S 
ENDBRANCH  17  18
ENDBRANCH  16  17
ENDBRANCH  15  16
ENDBRANCH   1  15
TORSDOF 5
ENDMDL
MODEL 8
REMARK VINA RESULT:      -6.9      3.686      5.730
REMARK  Name = 
REMARK  5 active torsions:
REMARK  status: ('A' for Active; 'I' for Inactive)
REMARK    1  A    between atoms: C_2  and  O_3
REMARK    2  A    between atoms: C_2  and  C_10
REMARK    3  A    between atoms: O_3  and  C_4
REMARK    4  A    between atoms: C_4  and  C_5
REMARK    5  A    between atoms: C_11  and  C_12
REMARK                            x       y       z     vdW  Elec       q    Type
REMARK                         _______ _______ _______ _____ _____    ______ ____
ROOT
ATOM      1  C   UNL     1       6.216   6.461  17.651  0.00  0.00    +0.000 C 
ATOM      2  C   UNL     1       5.999   5.672  18.717  0.00  0.00    +0.000 C 
ATOM      3  C   UNL     1       7.163   5.646  19.655  0.00  0.00    +0.000 C 
ATOM      4  C   UNL     1       8.264   6.333  18.850  0.00  0.00    +0.000 C 
ATOM      5  C   UNL     1       7.570   7.093  17.712  0.00  0.00    +0.000 C 
ENDROOT
BRANCH   2   6
ATOM      6  C   UNL     1       4.791   4.925  19.043  0.00  0.00    +0.000 A 
ATOM      7  C   UNL     1       3.755   5.564  19.732  0.00  0.00    +0.000 A 
ATOM      8  C   UNL     1       2.575   4.878  20.025  0.00  0.00    +0.000 A 
ATOM      9  C   UNL     1       2.424   3.546  19.631  0.00  0.00    +0.000 A 
ATOM     10 CL   UNL     1       0.936   2.760  20.022  0.00  0.00    +0.000 Cl
ATOM     11  C   UNL     1       3.459   2.901  18.944  0.00  0.00    +0.000 A 
ATOM     12 CL   UNL     1       3.341   1.254  18.431  0.00  0.00    +0.000 Cl
ATOM     13  C   UNL     1       4.640   3.592  18.650  0.00  0.00    +0.000 A 
ENDBRANCH   2   6
BRANCH   1  15
ATOM     14  O   UNL     1       4.171   7.272  16.729  0.00  0.00    +0.000 OA
ATOM     15  C   UNL     1       5.243   6.706  16.569  0.00  0.00    +0.000 C 
BRANCH  15  16
ATOM     16  O   UNL     1       5.669   6.148  15.408  0.00  0.00    +0.000 OA
BRANCH  16  17
ATOM     17  C   UNL     1       5.259   4.785  15.214  0.00  0.00    +0.000 C 
BRANCH  17  18
ATOM     18  C   UNL     1       5.738   4.299  13.883  0.00  0.00    +0.000 A 
ATOM     19  C   UNL     1       5.094   3.453  12.997  0.00  0.00    +0.000 A 
ATOM     20  C   UNL     1       5.897   3.139  11.861  0.00  0.00    +0.000 A 
ATOM     21  C   UNL     1       7.126   3.757  11.914  0.00  0.00    +0.000 A 
ATOM     22  S   UNL     1       7.304   4.712  13.321  0.00  0.00    +0.000 S 
ENDBRANCH  17  18
ENDBRANCH  16  17
ENDBRANCH  15  16
ENDBRANCH   1  15
TORSDOF 5
ENDMDL
MODEL 9
REMARK VINA RESULT:      -6.8      1.593      2.360
REMARK  Name = 
REMARK  5 active torsions:
REMARK  status: ('A' for Active; 'I' for Inactive)
REMARK    1  A    between atoms: C_2  and  O_3
REMARK    2  A    between atoms: C_2  and  C_10
REMARK    3  A    between atoms: O_3  and  C_4
REMARK    4  A    between atoms: C_4  and  C_5
REMARK    5  A    between atoms: C_11  and  C_12
REMARK                            x       y       z     vdW  Elec       q    Type
REMARK                         _______ _______ _______ _____ _____    ______ ____
ROOT
ATOM      1  C   UNL     1       5.681   4.838  17.435  0.00  0.00    +0.000 C 
ATOM      2  C   UNL     1       4.908   5.828  16.955  0.00  0.00    +0.000 C 
ATOM      3  C   UNL     1       5.094   6.036  15.486  0.00  0.00    +0.000 C 
ATOM      4  C   UNL     1       6.329   5.194  15.176  0.00  0.00    +0.000 C 
ATOM      5  C   UNL     1       6.508   4.223  16.350  0.00  0.00    +0.000 C 
ENDROOT
BRANCH   2   6
ATOM      6  C   UNL     1       3.935   6.633  17.683  0.00  0.00    +0.000 A 
ATOM      7  C   UNL     1       3.633   7.920  17.226  0.00  0.00    +0.000 A 
ATOM      8  C   UNL     1       2.679   8.695  17.888  0.00  0.00    +0.000 A 
ATOM      9  C   UNL     1       2.022   8.189  19.012  0.00  0.00    +0.000 A 
ATOM     10 CL   UNL     1       0.851   9.202  19.778  0.00  0.00    +0.000 Cl
ATOM     11  C   UNL     1       2.324   6.902  19.474  0.00  0.00    +0.000 A 
ATOM     12 CL   UNL     1       1.553   6.216  20.862  0.00  0.00    +0.000 Cl
ATOM     13  C   UNL     1       3.279   6.126  18.809  0.00  0.00    +0.000 A 
ENDBRANCH   2   6
BRANCH   1  15
ATOM     14  O   UNL     1       6.144   5.046  19.766  0.00  0.00    +0.000 OA
ATOM     15  C   UNL     1       5.699   4.384  18.839  0.00  0.00    +0.000 C 
BRANCH  15  16
ATOM     16  O   UNL     1       5.232   3.114  18.936  0.00  0.00    +0.000 OA
BRANCH  16  17
ATOM     17  C   UNL     1       4.490   2.840  20.135  0.00  0.00    +0.000 C 
BRANCH  17  18
ATOM     18  C   UNL     1       3.028   2.786  19.822  0.00  0.00    +0.000 A 
ATOM     19  C   UNL     1       1.960   2.952  20.686  0.00  0.00    +0.000 A 
ATOM     20  C   UNL     1       0.703   2.745  20.046  0.00  0.00    +0.000 A 
ATOM     21  C   UNL     1       0.851   2.430  18.714  0.00  0.00    +0.000 A 
ATOM     22  S   UNL     1       2.493   2.392  18.241  0.00  0.00    +0.000 S 
ENDBRANCH  17  18
ENDBRANCH  16  17
ENDBRANCH  15  16
ENDBRANCH   1  15
TORSDOF 5
ENDMDL
