MODEL 1
REMARK VINA RESULT:      -8.0      0.000      0.000
REMARK  Name = 
REMARK  6 active torsions:
REMARK  status: ('A' for Active; 'I' for Inactive)
REMARK    1  A    between atoms: C_1  and  O_2
REMARK    2  A    between atoms: O_2  and  C_3
REMARK    3  A    between atoms: C_5  and  C_6
REMARK    4  A    between atoms: N_11  and  C_12
REMARK    5  A    between atoms: C_15  and  N_16
REMARK    6  A    between atoms: C_17  and  C_19
REMARK                            x       y       z     vdW  Elec       q    Type
REMARK                         _______ _______ _______ _____ _____    ______ ____
ROOT
ATOM      1  C   UNL     1       2.785   7.281  18.472  0.00  0.00    +0.000 A 
ATOM      2  C   UNL     1       2.333   8.408  17.781  0.00  0.00    +0.000 A 
ATOM      3  C   UNL     1       1.430   9.282  18.393  0.00  0.00    +0.000 A 
ATOM      4  C   UNL     1       1.004   9.072  19.709  0.00  0.00    +0.000 A 
ATOM      5  C   UNL     1       1.515   7.982  20.418  0.00  0.00    +0.000 A 
ATOM      6  C   UNL     1       2.379   7.076  19.797  0.00  0.00    +0.000 A 
ENDROOT
BRANCH   1  11
ATOM      7  C   UNL     1       3.516   5.023  17.601  0.00  0.00    +0.000 A 
ATOM      8  C   UNL     1       4.756   4.557  17.224  0.00  0.00    +0.000 A 
ATOM      9  C   UNL     1       5.604   5.692  17.176  0.00  0.00    +0.000 A 
ATOM     10  N   UNL     1       4.911   6.815  17.436  0.00  0.00    +0.000 NA
ATOM     11  N   UNL     1       3.686   6.384  17.841  0.00  0.00    +0.000 N 
BRANCH   9  12
ATOM     12  C   UNL     1       7.079   5.694  16.880  0.00  0.00    +0.000 C 
ATOM     13  F   UNL     1       7.319   5.578  15.543  0.00  0.00    +0.000 F 
ATOM     14  F   UNL     1       7.700   6.831  17.284  0.00  0.00    +0.000 F 
ATOM     15  F   UNL     1       7.724   4.651  17.470  0.00  0.00    +0.000 F 
ENDBRANCH   9  12
BRANCH   7  17
ATOM     16  C   UNL     1       2.288   3.025  17.734  0.00  0.00    +0.000 C 
ATOM     17  O   UNL     1       2.317   4.445  17.739  0.00  0.00    +0.000 OA
ENDBRANCH   7  17
ENDBRANCH   1  11
BRANCH   4  18
ATOM     18  N   UNL     1       0.084   9.915  20.372  0.00  0.00    +0.000 N 
ATOM     19  C   UNL     1       0.408  11.049  21.090  0.00  0.00    +0.000 C 
ATOM     20  O   UNL     1       1.537  11.523  21.200  0.00  0.00    +0.000 OA
ATOM     21  H   UNL     1      -0.898   9.707  20.227  0.00  0.00    +0.000 HD
BRANCH  19  22
ATOM     22  C   UNL     1      -0.698  11.786  21.756  0.00  0.00    +0.000 A 
ATOM     23  C   UNL     1      -1.052  13.037  21.235  0.00  0.00    +0.000 A 
ATOM     24  C   UNL     1      -2.059  13.757  21.850  0.00  0.00    +0.000 A 
ATOM     25  N   UNL     1      -2.728  13.317  22.937  0.00  0.00    +0.000 NA
ATOM     26  C   UNL     1      -2.372  12.104  23.422  0.00  0.00    +0.000 A 
ATOM     27  C   UNL     1      -1.379  11.313  22.870  0.00  0.00    +0.000 A 
ATOM     28  F   UNL     1      -1.103  10.120  23.417  0.00  0.00    +0.000 F 
ENDBRANCH  19  22
ENDBRANCH   4  18
TORSDOF 5
ENDMDL
MODEL 2
REMARK VINA RESULT:      -8.0      6.580      8.322
REMARK  Name = 
REMARK  6 active torsions:
REMARK  status: ('A' for Active; 'I' for Inactive)
REMARK    1  A    between atoms: C_1  and  O_2
REMARK    2  A    between atoms: O_2  and  C_3
REMARK    3  A    between atoms: C_5  and  C_6
REMARK    4  A    between atoms: N_11  and  C_12
REMARK    5  A    between atoms: C_15  and  N_16
REMARK    6  A    between atoms: C_17  and  C_19
REMARK                            x       y       z     vdW  Elec       q    Type
REMARK                         _______ _______ _______ _____ _____    ______ ____
ROOT
ATOM      1  C   UNL     1       6.183   5.918  17.863  0.00  0.00    +0.000 A 
ATOM      2  C   UNL     1       6.146   7.108  17.133  0.00  0.00    +0.000 A 
ATOM      3  C   UNL     1       7.079   8.115  17.398  0.00  0.00    +0.000 A 
ATOM      4  C   UNL     1       8.082   7.933  18.356  0.00  0.00    +0.000 A 
ATOM      5  C   UNL     1       8.155   6.712  19.033  0.00  0.00    +0.000 A 
ATOM      6  C   UNL     1       7.197   5.720  18.809  0.00  0.00    +0.000 A 
ENDROOT
BRANCH   1  11
ATOM      7  C   UNL     1       5.228   3.953  16.590  0.00  0.00    +0.000 A 
ATOM      8  C   UNL     1       3.970   3.392  16.601  0.00  0.00    +0.000 A 
ATOM      9  C   UNL     1       3.286   3.986  17.691  0.00  0.00    +0.000 A 
ATOM     10  N   UNL     1       4.099   4.816  18.369  0.00  0.00    +0.000 NA
ATOM     11  N   UNL     1       5.222   4.905  17.606  0.00  0.00    +0.000 N 
BRANCH   9  12
ATOM     12  C   UNL     1       1.851   3.754  18.078  0.00  0.00    +0.000 C 
ATOM     13  F   UNL     1       1.508   2.440  17.957  0.00  0.00    +0.000 F 
ATOM     14  F   UNL     1       1.585   4.102  19.364  0.00  0.00    +0.000 F 
ATOM     15  F   UNL     1       0.986   4.444  17.287  0.00  0.00    +0.000 F 
ENDBRANCH   9  12
BRANCH   7  17
ATOM     16  C   UNL     1       6.324   4.256  14.535  0.00  0.00    +0.000 C 
ATOM     17  O   UNL     1       6.327   3.738  15.856  0.00  0.00    +0.000 OA
ENDBRANCH   7  17
ENDBRANCH   1  11
BRANCH   4  18
ATOM     18  N   UNL     1       9.042   8.920  18.673  0.00  0.00    +0.000 N 
ATOM     19  C   UNL     1       8.959  10.257  18.340  0.00  0.00    +0.000 C 
ATOM     20  O   UNL     1       8.006  10.791  17.775  0.00  0.00    +0.000 OA
ATOM     21  H   UNL     1       9.806   8.623  19.270  0.00  0.00    +0.000 HD
BRANCH  19  22
ATOM     22  C   UNL     1      10.092  11.138  18.725  0.00  0.00    +0.000 A 
ATOM     23  C   UNL     1      10.883  11.668  17.697  0.00  0.00    +0.000 A 
ATOM     24  C   UNL     1      11.960  12.470  18.026  0.00  0.00    +0.000 A 
ATOM     25  N   UNL     1      12.296  12.773  19.298  0.00  0.00    +0.000 NA
ATOM     26  C   UNL     1      11.518  12.253  20.275  0.00  0.00    +0.000 A 
ATOM     27  C   UNL     1      10.419  11.444  20.039  0.00  0.00    +0.000 A 
ATOM     28  F   UNL     1       9.703  10.983  21.075  0.00  0.00    +0.000 F 
ENDBRANCH  19  22
ENDBRANCH   4  18
TORSDOF 5
ENDMDL
MODEL 3
REMARK VINA RESULT:      -7.9      2.927      4.216
REMARK  Name = 
REMARK  6 active torsions:
REMARK  status: ('A' for Active; 'I' for Inactive)
REMARK    1  A    between atoms: C_1  and  O_2
REMARK    2  A    between atoms: O_2  and  C_3
REMARK    3  A    between atoms: C_5  and  C_6
REMARK    4  A    between atoms: N_11  and  C_12
REMARK    5  A    between atoms: C_15  and  N_16
REMARK    6  A    between atoms: C_17  and  C_19
REMARK                            x       y       z     vdW  Elec       q    Type
REMARK                         _______ _______ _______ _____ _____    ______ ____
ROOT
ATOM      1  C   UNL     1       4.623   5.643  16.700  0.00  0.00    +0.000 A 
ATOM      2  C   UNL     1       3.767   4.888  17.505  0.00  0.00    +0.000 A 
ATOM      3  C   UNL     1       2.966   5.525  18.458  0.00  0.00    +0.000 A 
ATOM      4  C   UNL     1       2.975   6.918  18.588  0.00  0.00    +0.000 A 
ATOM      5  C   UNL     1       3.781   7.672  17.731  0.00  0.00    +0.000 A 
ATOM      6  C   UNL     1       4.621   7.039  16.811  0.00  0.00    +0.000 A 
ENDROOT
BRANCH   1  11
ATOM      7  C   UNL     1       6.841   4.990  15.675  0.00  0.00    +0.000 A 
ATOM      8  C   UNL     1       7.147   4.457  14.442  0.00  0.00    +0.000 A 
ATOM      9  C   UNL     1       5.910   4.084  13.859  0.00  0.00    +0.000 A 
ATOM     10  N   UNL     1       4.894   4.303  14.714  0.00  0.00    +0.000 NA
ATOM     11  N   UNL     1       5.450   4.991  15.748  0.00  0.00    +0.000 N 
BRANCH   9  12
ATOM     12  C   UNL     1       5.707   3.517  12.481  0.00  0.00    +0.000 C 
ATOM     13  F   UNL     1       6.557   4.084  11.578  0.00  0.00    +0.000 F 
ATOM     14  F   UNL     1       5.921   2.177  12.421  0.00  0.00    +0.000 F 
ATOM     15  F   UNL     1       4.451   3.745  12.010  0.00  0.00    +0.000 F 
ENDBRANCH   9  12
BRANCH   7  17
ATOM     16  C   UNL     1       7.709   4.574  17.817  0.00  0.00    +0.000 C 
ATOM     17  O   UNL     1       7.583   5.436  16.697  0.00  0.00    +0.000 OA
ENDBRANCH   7  17
ENDBRANCH   1  11
BRANCH   4  18
ATOM     18  N   UNL     1       2.196   7.614  19.541  0.00  0.00    +0.000 N 
ATOM     19  C   UNL     1       1.437   8.739  19.289  0.00  0.00    +0.000 C 
ATOM     20  O   UNL     1       1.278   9.258  18.186  0.00  0.00    +0.000 OA
ATOM     21  H   UNL     1       2.131   7.189  20.459  0.00  0.00    +0.000 HD
BRANCH  19  22
ATOM     22  C   UNL     1       0.717   9.358  20.433  0.00  0.00    +0.000 A 
ATOM     23  C   UNL     1       0.198   8.503  21.414  0.00  0.00    +0.000 A 
ATOM     24  C   UNL     1      -0.499   9.049  22.476  0.00  0.00    +0.000 A 
ATOM     25  N   UNL     1      -0.710  10.375  22.622  0.00  0.00    +0.000 NA
ATOM     26  C   UNL     1      -0.197  11.183  21.664  0.00  0.00    +0.000 A 
ATOM     27  C   UNL     1       0.515  10.725  20.568  0.00  0.00    +0.000 A 
ATOM     28  F   UNL     1       0.993  11.605  19.676  0.00  0.00    +0.000 F 
ENDBRANCH  19  22
ENDBRANCH   4  18
TORSDOF 5
ENDMDL
MODEL 4
REMARK VINA RESULT:      -7.9      6.578      8.349
REMARK  Name = 
REMARK  6 active torsions:
REMARK  status: ('A' for Active; 'I' for Inactive)
REMARK    1  A    between atoms: C_1  and  O_2
REMARK    2  A    between atoms: O_2  and  C_3
REMARK    3  A    between atoms: C_5  and  C_6
REMARK    4  A    between atoms: N_11  and  C_12
REMARK    5  A    between atoms: C_15  and  N_16
REMARK    6  A    between atoms: C_17  and  C_19
REMARK                            x       y       z     vdW  Elec       q    Type
REMARK                         _______ _______ _______ _____ _____    ______ ____
ROOT
ATOM      1  C   UNL     1       6.225   5.999  17.967  0.00  0.00    +0.000 A 
ATOM      2  C   UNL     1       7.427   5.997  18.677  0.00  0.00    +0.000 A 
ATOM      3  C   UNL     1       8.275   7.107  18.612  0.00  0.00    +0.000 A 
ATOM      4  C   UNL     1       7.916   8.243  17.880  0.00  0.00    +0.000 A 
ATOM      5  C   UNL     1       6.680   8.266  17.230  0.00  0.00    +0.000 A 
ATOM      6  C   UNL     1       5.849   7.142  17.249  0.00  0.00    +0.000 A 
ENDROOT
BRANCH   1  11
ATOM      7  C   UNL     1       5.181   3.890  17.041  0.00  0.00    +0.000 A 
ATOM      8  C   UNL     1       4.079   3.171  17.448  0.00  0.00    +0.000 A 
ATOM      9  C   UNL     1       3.708   3.702  18.709  0.00  0.00    +0.000 A 
ATOM     10  N   UNL     1       4.578   4.651  19.100  0.00  0.00    +0.000 NA
ATOM     11  N   UNL     1       5.375   4.862  18.018  0.00  0.00    +0.000 N 
BRANCH   9  12
ATOM     12  C   UNL     1       2.518   3.297  19.534  0.00  0.00    +0.000 C 
ATOM     13  F   UNL     1       1.352   3.719  18.969  0.00  0.00    +0.000 F 
ATOM     14  F   UNL     1       2.408   1.951  19.682  0.00  0.00    +0.000 F 
ATOM     15  F   UNL     1       2.549   3.837  20.782  0.00  0.00    +0.000 F 
ENDBRANCH   9  12
BRANCH   7  17
ATOM     16  C   UNL     1       5.530   4.323  14.759  0.00  0.00    +0.000 C 
ATOM     17  O   UNL     1       6.005   3.798  15.989  0.00  0.00    +0.000 OA
ENDBRANCH   7  17
ENDBRANCH   1  11
BRANCH   4  18
ATOM     18  N   UNL     1       8.739   9.388  17.770  0.00  0.00    +0.000 N 
ATOM     19  C   UNL     1       9.159  10.179  18.820  0.00  0.00    +0.000 C 
ATOM     20  O   UNL     1       8.930   9.962  20.009  0.00  0.00    +0.000 OA
ATOM     21  H   UNL     1       9.114   9.579  16.848  0.00  0.00    +0.000 HD
BRANCH  19  22
ATOM     22  C   UNL     1       9.988  11.370  18.501  0.00  0.00    +0.000 A 
ATOM     23  C   UNL     1      11.285  11.420  19.030  0.00  0.00    +0.000 A 
ATOM     24  C   UNL     1      12.070  12.528  18.771  0.00  0.00    +0.000 A 
ATOM     25  N   UNL     1      11.652  13.576  18.029  0.00  0.00    +0.000 NA
ATOM     26  C   UNL     1      10.398  13.505  17.525  0.00  0.00    +0.000 A 
ATOM     27  C   UNL     1       9.543  12.436  17.730  0.00  0.00    +0.000 A 
ATOM     28  F   UNL     1       8.319  12.452  17.181  0.00  0.00    +0.000 F 
ENDBRANCH  19  22
ENDBRANCH   4  18
TORSDOF 5
ENDMDL
MODEL 5
REMARK VINA RESULT:      -7.8      0.961      1.319
REMARK  Name = 
REMARK  6 active torsions:
REMARK  status: ('A' for Active; 'I' for Inactive)
REMARK    1  A    between atoms: C_1  and  O_2
REMARK    2  A    between atoms: O_2  and  C_3
REMARK    3  A    between atoms: C_5  and  C_6
REMARK    4  A    between atoms: N_11  and  C_12
REMARK    5  A    between atoms: C_15  and  N_16
REMARK    6  A    between atoms: C_17  and  C_19
REMARK                            x       y       z     vdW  Elec       q    Type
REMARK                         _______ _______ _______ _____ _____    ______ ____
ROOT
ATOM      1  C   UNL     1       2.726   7.405  18.434  0.00  0.00    +0.000 A 
ATOM      2  C   UNL     1       2.270   8.513  17.718  0.00  0.00    +0.000 A 
ATOM      3  C   UNL     1       1.370   9.403  18.312  0.00  0.00    +0.000 A 
ATOM      4  C   UNL     1       0.951   9.225  19.635  0.00  0.00    +0.000 A 
ATOM      5  C   UNL     1       1.466   8.153  20.368  0.00  0.00    +0.000 A 
ATOM      6  C   UNL     1       2.327   7.232  19.766  0.00  0.00    +0.000 A 
ENDROOT
BRANCH   1  11
ATOM      7  C   UNL     1       3.454   5.125  17.618  0.00  0.00    +0.000 A 
ATOM      8  C   UNL     1       4.692   4.649  17.245  0.00  0.00    +0.000 A 
ATOM      9  C   UNL     1       5.539   5.784  17.162  0.00  0.00    +0.000 A 
ATOM     10  N   UNL     1       4.846   6.913  17.397  0.00  0.00    +0.000 NA
ATOM     11  N   UNL     1       3.624   6.492  17.821  0.00  0.00    +0.000 N 
BRANCH   9  12
ATOM     12  C   UNL     1       7.011   5.779  16.857  0.00  0.00    +0.000 C 
ATOM     13  F   UNL     1       7.246   5.543  15.535  0.00  0.00    +0.000 F 
ATOM     14  F   UNL     1       7.618   6.958  17.149  0.00  0.00    +0.000 F 
ATOM     15  F   UNL     1       7.675   4.806  17.537  0.00  0.00    +0.000 F 
ENDBRANCH   9  12
BRANCH   7  17
ATOM     16  C   UNL     1       2.212   3.133  17.693  0.00  0.00    +0.000 C 
ATOM     17  O   UNL     1       2.256   4.549  17.779  0.00  0.00    +0.000 OA
ENDBRANCH   7  17
ENDBRANCH   1  11
BRANCH   4  18
ATOM     18  N   UNL     1       0.034  10.085  20.282  0.00  0.00    +0.000 N 
ATOM     19  C   UNL     1       0.367  11.195  21.032  0.00  0.00    +0.000 C 
ATOM     20  O   UNL     1       1.506  11.631  21.190  0.00  0.00    +0.000 OA
ATOM     21  H   UNL     1      -0.947   9.910  20.098  0.00  0.00    +0.000 HD
BRANCH  19  22
ATOM     22  C   UNL     1      -0.738  11.954  21.673  0.00  0.00    +0.000 A 
ATOM     23  C   UNL     1      -1.402  11.352  22.750  0.00  0.00    +0.000 A 
ATOM     24  C   UNL     1      -2.452  12.024  23.348  0.00  0.00    +0.000 A 
ATOM     25  N   UNL     1      -2.878  13.241  22.948  0.00  0.00    +0.000 NA
ATOM     26  C   UNL     1      -2.221  13.805  21.908  0.00  0.00    +0.000 A 
ATOM     27  C   UNL     1      -1.158  13.209  21.250  0.00  0.00    +0.000 A 
ATOM     28  F   UNL     1      -0.564  13.852  20.235  0.00  0.00    +0.000 F 
ENDBRANCH  19  22
ENDBRANCH   4  18
TORSDOF 5
ENDMDL
MODEL 6
REMARK VINA RESULT:      -7.8      1.103      1.857
REMARK  Name = 
REMARK  6 active torsions:
REMARK  status: ('A' for Active; 'I' for Inactive)
REMARK    1  A    between atoms: C_1  and  O_2
REMARK    2  A    between atoms: O_2  and  C_3
REMARK    3  A    between atoms: C_5  and  C_6
REMARK    4  A    between atoms: N_11  and  C_12
REMARK    5  A    between atoms: C_15  and  N_16
REMARK    6  A    between atoms: C_17  and  C_19
REMARK                            x       y       z     vdW  Elec       q    Type
REMARK                         _______ _______ _______ _____ _____    ______ ____
ROOT
ATOM      1  C   UNL     1       2.918   6.931  18.380  0.00  0.00    +0.000 A 
ATOM      2  C   UNL     1       2.446   6.709  19.675  0.00  0.00    +0.000 A 
ATOM      3  C   UNL     1       1.669   7.683  20.309  0.00  0.00    +0.000 A 
ATOM      4  C   UNL     1       1.317   8.865  19.647  0.00  0.00    +0.000 A 
ATOM      5  C   UNL     1       1.734   9.049  18.327  0.00  0.00    +0.000 A 
ATOM      6  C   UNL     1       2.552   8.102  17.704  0.00  0.00    +0.000 A 
ENDROOT
BRANCH   1  11
ATOM      7  C   UNL     1       3.481   4.582  17.632  0.00  0.00    +0.000 A 
ATOM      8  C   UNL     1       4.663   4.032  17.186  0.00  0.00    +0.000 A 
ATOM      9  C   UNL     1       5.546   5.121  16.974  0.00  0.00    +0.000 A 
ATOM     10  N   UNL     1       4.923   6.291  17.203  0.00  0.00    +0.000 NA
ATOM     11  N   UNL     1       3.724   5.948  17.746  0.00  0.00    +0.000 N 
BRANCH   9  12
ATOM     12  C   UNL     1       6.986   5.033  16.552  0.00  0.00    +0.000 C 
ATOM     13  F   UNL     1       7.714   4.271  17.416  0.00  0.00    +0.000 F 
ATOM     14  F   UNL     1       7.147   4.478  15.323  0.00  0.00    +0.000 F 
ATOM     15  F   UNL     1       7.590   6.252  16.524  0.00  0.00    +0.000 F 
ENDBRANCH   9  12
BRANCH   7  17
ATOM     16  C   UNL     1       2.152   2.659  17.856  0.00  0.00    +0.000 C 
ATOM     17  O   UNL     1       2.277   4.071  17.919  0.00  0.00    +0.000 OA
ENDBRANCH   7  17
ENDBRANCH   1  11
BRANCH   4  18
ATOM     18  N   UNL     1       0.546   9.888  20.243  0.00  0.00    +0.000 N 
ATOM     19  C   UNL     1       0.640  10.303  21.557  0.00  0.00    +0.000 C 
ATOM     20  O   UNL     1       1.453   9.885  22.378  0.00  0.00    +0.000 OA
ATOM     21  H   UNL     1      -0.060  10.410  19.619  0.00  0.00    +0.000 HD
BRANCH  19  22
ATOM     22  C   UNL     1      -0.289  11.369  22.013  0.00  0.00    +0.000 A 
ATOM     23  C   UNL     1      -1.297  11.011  22.918  0.00  0.00    +0.000 A 
ATOM     24  C   UNL     1      -2.191  11.976  23.340  0.00  0.00    +0.000 A 
ATOM     25  N   UNL     1      -2.148  13.260  22.924  0.00  0.00    +0.000 NA
ATOM     26  C   UNL     1      -1.165  13.586  22.053  0.00  0.00    +0.000 A 
ATOM     27  C   UNL     1      -0.225  12.687  21.579  0.00  0.00    +0.000 A 
ATOM     28  F   UNL     1       0.719  13.106  20.723  0.00  0.00    +0.000 F 
ENDBRANCH  19  22
ENDBRANCH   4  18
TORSDOF 5
ENDMDL
MODEL 7
REMARK VINA RESULT:      -7.8      0.427      1.285
REMARK  Name = 
REMARK  6 active torsions:
REMARK  status: ('A' for Active; 'I' for Inactive)
REMARK    1  A    between atoms: C_1  and  O_2
REMARK    2  A    between atoms: O_2  and  C_3
REMARK    3  A    between atoms: C_5  and  C_6
REMARK    4  A    between atoms: N_11  and  C_12
REMARK    5  A    between atoms: C_15  and  N_16
REMARK    6  A    between atoms: C_17  and  C_19
REMARK                            x       y       z     vdW  Elec       q    Type
REMARK                         _______ _______ _______ _____ _____    ______ ____
ROOT
ATOM      1  C   UNL     1       2.699   7.361  18.546  0.00  0.00    +0.000 A 
ATOM      2  C   UNL     1       2.322   7.147  19.874  0.00  0.00    +0.000 A 
ATOM      3  C   UNL     1       1.449   8.043  20.500  0.00  0.00    +0.000 A 
ATOM      4  C   UNL     1       0.910   9.129  19.803  0.00  0.00    +0.000 A 
ATOM      5  C   UNL     1       1.237   9.295  18.454  0.00  0.00    +0.000 A 
ATOM      6  C   UNL     1       2.147   8.433  17.835  0.00  0.00    +0.000 A 
ENDROOT
BRANCH   1  11
ATOM      7  C   UNL     1       3.386   5.129  17.576  0.00  0.00    +0.000 A 
ATOM      8  C   UNL     1       4.627   4.625  17.253  0.00  0.00    +0.000 A 
ATOM      9  C   UNL     1       5.528   5.716  17.341  0.00  0.00    +0.000 A 
ATOM     10  N   UNL     1       4.871   6.854  17.630  0.00  0.00    +0.000 NA
ATOM     11  N   UNL     1       3.601   6.461  17.919  0.00  0.00    +0.000 N 
BRANCH   9  12
ATOM     12  C   UNL     1       7.018   5.662  17.148  0.00  0.00    +0.000 C 
ATOM     13  F   UNL     1       7.644   5.134  18.239  0.00  0.00    +0.000 F 
ATOM     14  F   UNL     1       7.390   4.899  16.087  0.00  0.00    +0.000 F 
ATOM     15  F   UNL     1       7.559   6.897  16.965  0.00  0.00    +0.000 F 
ENDBRANCH   9  12
BRANCH   7  17
ATOM     16  C   UNL     1       1.872   3.667  18.618  0.00  0.00    +0.000 C 
ATOM     17  O   UNL     1       2.154   4.605  17.590  0.00  0.00    +0.000 OA
ENDBRANCH   7  17
ENDBRANCH   1  11
BRANCH   4  18
ATOM     18  N   UNL     1       0.034  10.071  20.389  0.00  0.00    +0.000 N 
ATOM     19  C   UNL     1       0.419  11.191  21.098  0.00  0.00    +0.000 C 
ATOM     20  O   UNL     1       1.579  11.563  21.266  0.00  0.00    +0.000 OA
ATOM     21  H   UNL     1      -0.952   9.948  20.188  0.00  0.00    +0.000 HD
BRANCH  19  22
ATOM     22  C   UNL     1      -0.651  12.044  21.678  0.00  0.00    +0.000 A 
ATOM     23  C   UNL     1      -0.938  13.255  21.034  0.00  0.00    +0.000 A 
ATOM     24  C   UNL     1      -1.911  14.081  21.566  0.00  0.00    +0.000 A 
ATOM     25  N   UNL     1      -2.607  13.783  22.683  0.00  0.00    +0.000 NA
ATOM     26  C   UNL     1      -2.316  12.607  23.287  0.00  0.00    +0.000 A 
ATOM     27  C   UNL     1      -1.362  11.717  22.825  0.00  0.00    +0.000 A 
ATOM     28  F   UNL     1      -1.151  10.570  23.488  0.00  0.00    +0.000 F 
ENDBRANCH  19  22
ENDBRANCH   4  18
TORSDOF 5
ENDMDL
MODEL 8
REMARK VINA RESULT:      -7.7      1.166      1.271
REMARK  Name = 
REMARK  6 active torsions:
REMARK  status: ('A' for Active; 'I' for Inactive)
REMARK    1  A    between atoms: C_1  and  O_2
REMARK    2  A    between atoms: O_2  and  C_3
REMARK    3  A    between atoms: C_5  and  C_6
REMARK    4  A    between atoms: N_11  and  C_12
REMARK    5  A    between atoms: C_15  and  N_16
REMARK    6  A    between atoms: C_17  and  C_19
REMARK                            x       y       z     vdW  Elec       q    Type
REMARK                         _______ _______ _______ _____ _____    ______ ____
ROOT
ATOM      1  C   UNL     1       2.673   6.783  18.393  0.00  0.00    +0.000 A 
ATOM      2  C   UNL     1       2.450   8.002  17.749  0.00  0.00    +0.000 A 
ATOM      3  C   UNL     1       1.823   9.047  18.436  0.00  0.00    +0.000 A 
ATOM      4  C   UNL     1       1.454   8.906  19.778  0.00  0.00    +0.000 A 
ATOM      5  C   UNL     1       1.745   7.707  20.436  0.00  0.00    +0.000 A 
ATOM      6  C   UNL     1       2.326   6.642  19.742  0.00  0.00    +0.000 A 
ENDROOT
BRANCH   1  11
ATOM      7  C   UNL     1       2.871   4.394  17.589  0.00  0.00    +0.000 A 
ATOM      8  C   UNL     1       3.932   3.709  17.038  0.00  0.00    +0.000 A 
ATOM      9  C   UNL     1       4.922   4.683  16.753  0.00  0.00    +0.000 A 
ATOM     10  N   UNL     1       4.472   5.918  17.041  0.00  0.00    +0.000 NA
ATOM     11  N   UNL     1       3.292   5.718  17.686  0.00  0.00    +0.000 N 
BRANCH   9  12
ATOM     12  C   UNL     1       6.298   4.424  16.204  0.00  0.00    +0.000 C 
ATOM     13  F   UNL     1       6.309   3.343  15.374  0.00  0.00    +0.000 F 
ATOM     14  F   UNL     1       6.787   5.466  15.482  0.00  0.00    +0.000 F 
ATOM     15  F   UNL     1       7.202   4.156  17.185  0.00  0.00    +0.000 F 
ENDBRANCH   9  12
BRANCH   7  17
ATOM     16  C   UNL     1       1.540   2.826  18.722  0.00  0.00    +0.000 C 
ATOM     17  O   UNL     1       1.643   4.032  17.980  0.00  0.00    +0.000 OA
ENDBRANCH   7  17
ENDBRANCH   1  11
BRANCH   4  18
ATOM     18  N   UNL     1       0.808   9.922  20.517  0.00  0.00    +0.000 N 
ATOM     19  C   UNL     1      -0.437  10.449  20.237  0.00  0.00    +0.000 C 
ATOM     20  O   UNL     1      -1.189  10.063  19.343  0.00  0.00    +0.000 OA
ATOM     21  H   UNL     1       1.270  10.216  21.370  0.00  0.00    +0.000 HD
BRANCH  19  22
ATOM     22  C   UNL     1      -0.935  11.547  21.107  0.00  0.00    +0.000 A 
ATOM     23  C   UNL     1      -1.133  12.803  20.519  0.00  0.00    +0.000 A 
ATOM     24  C   UNL     1      -1.570  13.850  21.309  0.00  0.00    +0.000 A 
ATOM     25  N   UNL     1      -1.820  13.727  22.630  0.00  0.00    +0.000 NA
ATOM     26  C   UNL     1      -1.626  12.504  23.177  0.00  0.00    +0.000 A 
ATOM     27  C   UNL     1      -1.193  11.400  22.463  0.00  0.00    +0.000 A 
ATOM     28  F   UNL     1      -1.038  10.225  23.092  0.00  0.00    +0.000 F 
ENDBRANCH  19  22
ENDBRANCH   4  18
TORSDOF 5
ENDMDL
MODEL 9
REMARK VINA RESULT:      -7.7      6.768      8.232
REMARK  Name = 
REMARK  6 active torsions:
REMARK  status: ('A' for Active; 'I' for Inactive)
REMARK    1  A    between atoms: C_1  and  O_2
REMARK    2  A    between atoms: O_2  and  C_3
REMARK    3  A    between atoms: C_5  and  C_6
REMARK    4  A    between atoms: N_11  and  C_12
REMARK    5  A    between atoms: C_15  and  N_16
REMARK    6  A    between atoms: C_17  and  C_19
REMARK                            x       y       z     vdW  Elec       q    Type
REMARK                         _______ _______ _______ _____ _____    ______ ____
ROOT
ATOM      1  C   UNL     1       6.308   5.988  17.999  0.00  0.00    +0.000 A 
ATOM      2  C   UNL     1       5.874   7.043  17.192  0.00  0.00    +0.000 A 
ATOM      3  C   UNL     1       6.639   8.210  17.103  0.00  0.00    +0.000 A 
ATOM      4  C   UNL     1       7.861   8.322  17.775  0.00  0.00    +0.000 A 
ATOM      5  C   UNL     1       8.322   7.235  18.523  0.00  0.00    +0.000 A 
ATOM      6  C   UNL     1       7.540   6.085  18.658  0.00  0.00    +0.000 A 
ENDROOT
BRANCH   1  11
ATOM      7  C   UNL     1       4.842   4.139  17.090  0.00  0.00    +0.000 A 
ATOM      8  C   UNL     1       4.016   3.241  17.730  0.00  0.00    +0.000 A 
ATOM      9  C   UNL     1       4.300   3.364  19.113  0.00  0.00    +0.000 A 
ATOM     10  N   UNL     1       5.302   4.238  19.317  0.00  0.00    +0.000 NA
ATOM     11  N   UNL     1       5.518   4.813  18.103  0.00  0.00    +0.000 N 
BRANCH   9  12
ATOM     12  C   UNL     1       3.607   2.642  20.235  0.00  0.00    +0.000 C 
ATOM     13  F   UNL     1       2.660   1.781  19.765  0.00  0.00    +0.000 F 
ATOM     14  F   UNL     1       4.456   1.900  20.993  0.00  0.00    +0.000 F 
ATOM     15  F   UNL     1       2.959   3.494  21.074  0.00  0.00    +0.000 F 
ENDBRANCH   9  12
BRANCH   7  17
ATOM     16  C   UNL     1       6.166   3.739  15.192  0.00  0.00    +0.000 C 
ATOM     17  O   UNL     1       5.079   4.418  15.802  0.00  0.00    +0.000 OA
ENDBRANCH   7  17
ENDBRANCH   1  11
BRANCH   4  18
ATOM     18  N   UNL     1       8.669   9.481  17.731  0.00  0.00    +0.000 N 
ATOM     19  C   UNL     1       9.091  10.207  18.826  0.00  0.00    +0.000 C 
ATOM     20  O   UNL     1       8.878   9.912  20.001  0.00  0.00    +0.000 OA
ATOM     21  H   UNL     1       9.032   9.736  16.819  0.00  0.00    +0.000 HD
BRANCH  19  22
ATOM     22  C   UNL     1       9.903  11.427  18.576  0.00  0.00    +0.000 A 
ATOM     23  C   UNL     1      11.175  11.492  19.159  0.00  0.00    +0.000 A 
ATOM     24  C   UNL     1      11.942  12.625  18.966  0.00  0.00    +0.000 A 
ATOM     25  N   UNL     1      11.530  13.685  18.238  0.00  0.00    +0.000 NA
ATOM     26  C   UNL     1      10.299  13.600  17.681  0.00  0.00    +0.000 A 
ATOM     27  C   UNL     1       9.463  12.505  17.819  0.00  0.00    +0.000 A 
ATOM     28  F   UNL     1       8.263  12.509  17.221  0.00  0.00    +0.000 F 
ENDBRANCH  19  22
ENDBRANCH   4  18
TORSDOF 5
ENDMDL
