MODEL 1
REMARK VINA RESULT:      -6.6      0.000      0.000
REMARK  Name = 
REMARK  8 active torsions:
REMARK  status: ('A' for Active; 'I' for Inactive)
REMARK    1  A    between atoms: C_1  and  C_2
REMARK    2  A    between atoms: C_2  and  N_3
REMARK    3  A    between atoms: C_2  and  C_17
REMARK    4  A    between atoms: C_8  and  C_9
REMARK    5  A    between atoms: C_17  and  O_18
REMARK    6  A    between atoms: C_17  and  C_19
REMARK    7  A    between atoms: C_17  and  C_25
REMARK    8  A    between atoms: C_19  and  N_20
REMARK                            x       y       z     vdW  Elec       q    Type
REMARK                         _______ _______ _______ _____ _____    ______ ____
ROOT
ATOM      1  C   UNL     1      -1.303  12.319  18.778  0.00  0.00    +0.000 C 
ENDROOT
BRANCH   1   2
ATOM      2  C   UNL     1      -2.755  11.861  18.536  0.00  0.00    +0.000 A 
ATOM      3  C   UNL     1      -3.789  12.360  19.361  0.00  0.00    +0.000 A 
ATOM      4  C   UNL     1      -5.119  11.982  19.167  0.00  0.00    +0.000 A 
ATOM      5  C   UNL     1      -5.433  11.087  18.156  0.00  0.00    +0.000 A 
ATOM      6  F   UNL     1      -6.706  10.711  17.977  0.00  0.00    +0.000 F 
ATOM      7  C   UNL     1      -4.449  10.588  17.318  0.00  0.00    +0.000 A 
ATOM      8  C   UNL     1      -3.129  10.992  17.502  0.00  0.00    +0.000 A 
ATOM      9  F   UNL     1      -2.221  10.549  16.623  0.00  0.00    +0.000 F 
ENDBRANCH   1   2
BRANCH   1  11
ATOM     10  C   UNL     1      -1.176  10.116  20.107  0.00  0.00    +0.000 C 
ATOM     11  C   UNL     1      -0.411  11.001  19.081  0.00  0.00    +0.000 C 
BRANCH  11  12
ATOM     12  N   UNL     1       1.023  11.154  19.514  0.00  0.00    +0.000 NA
ATOM     13  C   UNL     1       2.045  11.070  18.429  0.00  0.00    +0.000 C 
ATOM     14  C   UNL     1       2.233   9.698  17.740  0.00  0.00    +0.000 C 
ATOM     15  N   UNL     1       2.015   8.610  18.667  0.00  0.00    +0.000 N 
ATOM     16  N   UNL     1       2.181   7.315  18.344  0.00  0.00    +0.000 NA
ATOM     17  C   UNL     1       1.942   6.714  19.525  0.00  0.00    +0.000 A 
ATOM     18  N   UNL     1       1.591   7.585  20.537  0.00  0.00    +0.000 NA
ATOM     19  C   UNL     1       1.641   8.766  19.963  0.00  0.00    +0.000 A 
ATOM     20  C   UNL     1       1.417  10.124  20.535  0.00  0.00    +0.000 C 
BRANCH  17  21
ATOM     21  C   UNL     1       2.067   5.234  19.751  0.00  0.00    +0.000 A 
ATOM     22  C   UNL     1       1.426   4.523  20.746  0.00  0.00    +0.000 A 
ATOM     23  C   UNL     1       1.744   3.130  20.709  0.00  0.00    +0.000 A 
ATOM     24  C   UNL     1       2.603   2.824  19.673  0.00  0.00    +0.000 A 
ATOM     25  S   UNL     1       3.024   4.212  18.765  0.00  0.00    +0.000 S 
ENDBRANCH  17  21
ENDBRANCH  11  12
ENDBRANCH   1  11
BRANCH   1  26
ATOM     26  O   UNL     1      -0.879  12.860  17.500  0.00  0.00    +0.000 OA
ATOM     27  H   UNL     1       0.103  12.769  17.483  0.00  0.00    +0.000 HD
ENDBRANCH   1  26
BRANCH   1  28
ATOM     28  C   UNL     1      -1.075  13.428  19.860  0.00  0.00    +0.000 C 
BRANCH  28  29
ATOM     29  N   UNL     1      -0.317  14.591  19.418  0.00  0.00    +0.000 N 
ATOM     30  C   UNL     1      -0.761  15.873  19.283  0.00  0.00    +0.000 A 
ATOM     31  N   UNL     1       0.208  16.631  18.825  0.00  0.00    +0.000 NA
ATOM     32  C   UNL     1       1.249  15.755  18.706  0.00  0.00    +0.000 A 
ATOM     33  N   UNL     1       0.986  14.500  19.087  0.00  0.00    +0.000 NA
ENDBRANCH  28  29
ENDBRANCH   1  28
TORSDOF 7
ENDMDL
MODEL 2
REMARK VINA RESULT:      -6.6      1.934      2.267
REMARK  Name = 
REMARK  8 active torsions:
REMARK  status: ('A' for Active; 'I' for Inactive)
REMARK    1  A    between atoms: C_1  and  C_2
REMARK    2  A    between atoms: C_2  and  N_3
REMARK    3  A    between atoms: C_2  and  C_17
REMARK    4  A    between atoms: C_8  and  C_9
REMARK    5  A    between atoms: C_17  and  O_18
REMARK    6  A    between atoms: C_17  and  C_19
REMARK    7  A    between atoms: C_17  and  C_25
REMARK    8  A    between atoms: C_19  and  N_20
REMARK                            x       y       z     vdW  Elec       q    Type
REMARK                         _______ _______ _______ _____ _____    ______ ____
ROOT
ATOM      1  C   UNL     1      -1.358  11.410  19.381  0.00  0.00    +0.000 C 
ENDROOT
BRANCH   1   2
ATOM      2  C   UNL     1      -2.185  11.068  18.126  0.00  0.00    +0.000 A 
ATOM      3  C   UNL     1      -1.674  10.143  17.187  0.00  0.00    +0.000 A 
ATOM      4  C   UNL     1      -2.396   9.795  16.044  0.00  0.00    +0.000 A 
ATOM      5  C   UNL     1      -3.633  10.378  15.815  0.00  0.00    +0.000 A 
ATOM      6  F   UNL     1      -4.322  10.057  14.712  0.00  0.00    +0.000 F 
ATOM      7  C   UNL     1      -4.173  11.277  16.720  0.00  0.00    +0.000 A 
ATOM      8  C   UNL     1      -3.458  11.597  17.871  0.00  0.00    +0.000 A 
ATOM      9  F   UNL     1      -4.048  12.408  18.758  0.00  0.00    +0.000 F 
ENDBRANCH   1   2
BRANCH   1  11
ATOM     10  C   UNL     1      -0.946   9.406  20.945  0.00  0.00    +0.000 C 
ATOM     11  C   UNL     1      -0.392  10.148  19.696  0.00  0.00    +0.000 C 
BRANCH  11  12
ATOM     12  N   UNL     1       1.091  10.364  19.852  0.00  0.00    +0.000 NA
ATOM     13  C   UNL     1       1.875  10.446  18.585  0.00  0.00    +0.000 C 
ATOM     14  C   UNL     1       1.992   9.154  17.742  0.00  0.00    +0.000 C 
ATOM     15  N   UNL     1       2.023   7.979  18.583  0.00  0.00    +0.000 N 
ATOM     16  N   UNL     1       2.187   6.730  18.108  0.00  0.00    +0.000 NA
ATOM     17  C   UNL     1       2.223   6.016  19.249  0.00  0.00    +0.000 A 
ATOM     18  N   UNL     1       2.039   6.771  20.390  0.00  0.00    +0.000 NA
ATOM     19  C   UNL     1       1.911   7.997  19.936  0.00  0.00    +0.000 A 
ATOM     20  C   UNL     1       1.736   9.282  20.670  0.00  0.00    +0.000 C 
BRANCH  17  21
ATOM     21  C   UNL     1       2.468   4.535  19.300  0.00  0.00    +0.000 A 
ATOM     22  C   UNL     1       1.489   3.569  19.424  0.00  0.00    +0.000 A 
ATOM     23  C   UNL     1       2.030   2.247  19.447  0.00  0.00    +0.000 A 
ATOM     24  C   UNL     1       3.405   2.249  19.320  0.00  0.00    +0.000 A 
ATOM     25  S   UNL     1       4.028   3.837  19.186  0.00  0.00    +0.000 S 
ENDBRANCH  17  21
ENDBRANCH  11  12
ENDBRANCH   1  11
BRANCH   1  26
ATOM     26  O   UNL     1      -0.520  12.520  18.967  0.00  0.00    +0.000 OA
ATOM     27  H   UNL     1      -0.040  12.811  19.778  0.00  0.00    +0.000 HD
ENDBRANCH   1  26
BRANCH   1  28
ATOM     28  C   UNL     1      -2.146  11.862  20.656  0.00  0.00    +0.000 C 
BRANCH  28  29
ATOM     29  N   UNL     1      -1.603  13.020  21.353  0.00  0.00    +0.000 N 
ATOM     30  C   UNL     1      -2.181  14.244  21.514  0.00  0.00    +0.000 A 
ATOM     31  N   UNL     1      -1.366  15.037  22.169  0.00  0.00    +0.000 NA
ATOM     32  C   UNL     1      -0.287  14.234  22.407  0.00  0.00    +0.000 A 
ATOM     33  N   UNL     1      -0.397  12.980  21.954  0.00  0.00    +0.000 NA
ENDBRANCH  28  29
ENDBRANCH   1  28
TORSDOF 7
ENDMDL
MODEL 3
REMARK VINA RESULT:      -6.6      5.457      8.358
REMARK  Name = 
REMARK  8 active torsions:
REMARK  status: ('A' for Active; 'I' for Inactive)
REMARK    1  A    between atoms: C_1  and  C_2
REMARK    2  A    between atoms: C_2  and  N_3
REMARK    3  A    between atoms: C_2  and  C_17
REMARK    4  A    between atoms: C_8  and  C_9
REMARK    5  A    between atoms: C_17  and  O_18
REMARK    6  A    between atoms: C_17  and  C_19
REMARK    7  A    between atoms: C_17  and  C_25
REMARK    8  A    between atoms: C_19  and  N_20
REMARK                            x       y       z     vdW  Elec       q    Type
REMARK                         _______ _______ _______ _____ _____    ______ ____
ROOT
ATOM      1  C   UNL     1       2.211   6.349  19.898  0.00  0.00    +0.000 C 
ENDROOT
BRANCH   1   2
ATOM      2  C   UNL     1       1.837   7.804  19.551  0.00  0.00    +0.000 A 
ATOM      3  C   UNL     1       2.198   8.333  18.290  0.00  0.00    +0.000 A 
ATOM      4  C   UNL     1       1.867   9.641  17.930  0.00  0.00    +0.000 A 
ATOM      5  C   UNL     1       1.184  10.444  18.830  0.00  0.00    +0.000 A 
ATOM      6  F   UNL     1       0.878  11.704  18.493  0.00  0.00    +0.000 F 
ATOM      7  C   UNL     1       0.801   9.956  20.069  0.00  0.00    +0.000 A 
ATOM      8  C   UNL     1       1.111   8.642  20.408  0.00  0.00    +0.000 A 
ATOM      9  F   UNL     1       0.655   8.184  21.581  0.00  0.00    +0.000 F 
ENDBRANCH   1   2
BRANCH   1  11
ATOM     10  C   UNL     1       2.513   5.168  17.629  0.00  0.00    +0.000 C 
ATOM     11  C   UNL     1       3.287   5.840  18.799  0.00  0.00    +0.000 C 
BRANCH  11  12
ATOM     12  N   UNL     1       4.427   4.952  19.227  0.00  0.00    +0.000 NA
ATOM     13  C   UNL     1       5.746   5.626  19.408  0.00  0.00    +0.000 C 
ATOM     14  C   UNL     1       6.440   6.173  18.139  0.00  0.00    +0.000 C 
ATOM     15  N   UNL     1       6.159   5.345  16.988  0.00  0.00    +0.000 N 
ATOM     16  N   UNL     1       6.694   5.558  15.772  0.00  0.00    +0.000 NA
ATOM     17  C   UNL     1       6.205   4.510  15.080  0.00  0.00    +0.000 A 
ATOM     18  N   UNL     1       5.360   3.700  15.812  0.00  0.00    +0.000 NA
ATOM     19  C   UNL     1       5.348   4.255  17.002  0.00  0.00    +0.000 A 
ATOM     20  C   UNL     1       4.664   3.830  18.256  0.00  0.00    +0.000 C 
BRANCH  17  21
ATOM     21  C   UNL     1       6.557   4.215  13.650  0.00  0.00    +0.000 A 
ATOM     22  C   UNL     1       5.985   3.225  12.877  0.00  0.00    +0.000 A 
ATOM     23  C   UNL     1       6.528   3.186  11.556  0.00  0.00    +0.000 A 
ATOM     24  C   UNL     1       7.485   4.162  11.361  0.00  0.00    +0.000 A 
ATOM     25  S   UNL     1       7.725   5.106  12.769  0.00  0.00    +0.000 S 
ENDBRANCH  17  21
ENDBRANCH  11  12
ENDBRANCH   1  11
BRANCH   1  26
ATOM     26  O   UNL     1       2.891   6.448  21.175  0.00  0.00    +0.000 OA
ATOM     27  H   UNL     1       2.703   7.356  21.510  0.00  0.00    +0.000 HD
ENDBRANCH   1  26
BRANCH   1  28
ATOM     28  C   UNL     1       1.035   5.330  20.066  0.00  0.00    +0.000 C 
BRANCH  28  29
ATOM     29  N   UNL     1       1.417   3.998  20.517  0.00  0.00    +0.000 N 
ATOM     30  C   UNL     1       1.221   2.812  19.874  0.00  0.00    +0.000 A 
ATOM     31  N   UNL     1       1.672   1.827  20.615  0.00  0.00    +0.000 NA
ATOM     32  C   UNL     1       2.159   2.472  21.716  0.00  0.00    +0.000 A 
ATOM     33  N   UNL     1       2.054   3.806  21.688  0.00  0.00    +0.000 NA
ENDBRANCH  28  29
ENDBRANCH   1  28
TORSDOF 7
ENDMDL
MODEL 4
REMARK VINA RESULT:      -6.4      5.716      8.486
REMARK  Name = 
REMARK  8 active torsions:
REMARK  status: ('A' for Active; 'I' for Inactive)
REMARK    1  A    between atoms: C_1  and  C_2
REMARK    2  A    between atoms: C_2  and  N_3
REMARK    3  A    between atoms: C_2  and  C_17
REMARK    4  A    between atoms: C_8  and  C_9
REMARK    5  A    between atoms: C_17  and  O_18
REMARK    6  A    between atoms: C_17  and  C_19
REMARK    7  A    between atoms: C_17  and  C_25
REMARK    8  A    between atoms: C_19  and  N_20
REMARK                            x       y       z     vdW  Elec       q    Type
REMARK                         _______ _______ _______ _____ _____    ______ ____
ROOT
ATOM      1  C   UNL     1       2.758   6.064  19.365  0.00  0.00    +0.000 C 
ENDROOT
BRANCH   1   2
ATOM      2  C   UNL     1       2.087   7.389  19.777  0.00  0.00    +0.000 A 
ATOM      3  C   UNL     1       1.837   7.646  21.145  0.00  0.00    +0.000 A 
ATOM      4  C   UNL     1       1.244   8.839  21.563  0.00  0.00    +0.000 A 
ATOM      5  C   UNL     1       0.877   9.786  20.618  0.00  0.00    +0.000 A 
ATOM      6  F   UNL     1       0.295  10.925  21.014  0.00  0.00    +0.000 F 
ATOM      7  C   UNL     1       1.120   9.575  19.270  0.00  0.00    +0.000 A 
ATOM      8  C   UNL     1       1.737   8.395  18.866  0.00  0.00    +0.000 A 
ATOM      9  F   UNL     1       2.026   8.264  17.565  0.00  0.00    +0.000 F 
ENDBRANCH   1   2
BRANCH   1  11
ATOM     10  C   UNL     1       4.425   6.780  17.536  0.00  0.00    +0.000 C 
ATOM     11  C   UNL     1       4.313   6.378  19.035  0.00  0.00    +0.000 C 
BRANCH  11  12
ATOM     12  N   UNL     1       5.367   5.353  19.365  0.00  0.00    +0.000 NA
ATOM     13  C   UNL     1       6.778   5.839  19.344  0.00  0.00    +0.000 C 
ATOM     14  C   UNL     1       7.368   6.237  17.970  0.00  0.00    +0.000 C 
ATOM     15  N   UNL     1       6.829   5.417  16.909  0.00  0.00    +0.000 N 
ATOM     16  N   UNL     1       7.224   5.508  15.626  0.00  0.00    +0.000 NA
ATOM     17  C   UNL     1       6.510   4.517  15.058  0.00  0.00    +0.000 A 
ATOM     18  N   UNL     1       5.665   3.862  15.931  0.00  0.00    +0.000 NA
ATOM     19  C   UNL     1       5.886   4.454  17.083  0.00  0.00    +0.000 A 
ATOM     20  C   UNL     1       5.320   4.175  18.432  0.00  0.00    +0.000 C 
BRANCH  17  21
ATOM     21  C   UNL     1       6.629   4.125  13.612  0.00  0.00    +0.000 A 
ATOM     22  C   UNL     1       5.874   3.153  12.987  0.00  0.00    +0.000 A 
ATOM     23  C   UNL     1       6.216   3.004  11.607  0.00  0.00    +0.000 A 
ATOM     24  C   UNL     1       7.211   3.882  11.224  0.00  0.00    +0.000 A 
ATOM     25  S   UNL     1       7.726   4.866  12.526  0.00  0.00    +0.000 S 
ENDBRANCH  17  21
ENDBRANCH  11  12
ENDBRANCH   1  11
BRANCH   1  26
ATOM     26  O   UNL     1       2.713   5.251  20.566  0.00  0.00    +0.000 OA
ATOM     27  H   UNL     1       2.904   5.865  21.314  0.00  0.00    +0.000 HD
ENDBRANCH   1  26
BRANCH   1  28
ATOM     28  C   UNL     1       2.080   5.246  18.215  0.00  0.00    +0.000 C 
BRANCH  28  29
ATOM     29  N   UNL     1       1.699   3.881  18.554  0.00  0.00    +0.000 N 
ATOM     30  C   UNL     1       2.201   2.724  18.038  0.00  0.00    +0.000 A 
ATOM     31  N   UNL     1       1.579   1.696  18.569  0.00  0.00    +0.000 NA
ATOM     32  C   UNL     1       0.699   2.286  19.432  0.00  0.00    +0.000 A 
ATOM     33  N   UNL     1       0.757   3.621  19.481  0.00  0.00    +0.000 NA
ENDBRANCH  28  29
ENDBRANCH   1  28
TORSDOF 7
ENDMDL
MODEL 5
REMARK VINA RESULT:      -6.4      5.274      7.360
REMARK  Name = 
REMARK  8 active torsions:
REMARK  status: ('A' for Active; 'I' for Inactive)
REMARK    1  A    between atoms: C_1  and  C_2
REMARK    2  A    between atoms: C_2  and  N_3
REMARK    3  A    between atoms: C_2  and  C_17
REMARK    4  A    between atoms: C_8  and  C_9
REMARK    5  A    between atoms: C_17  and  O_18
REMARK    6  A    between atoms: C_17  and  C_19
REMARK    7  A    between atoms: C_17  and  C_25
REMARK    8  A    between atoms: C_19  and  N_20
REMARK                            x       y       z     vdW  Elec       q    Type
REMARK                         _______ _______ _______ _____ _____    ______ ____
ROOT
ATOM      1  C   UNL     1       2.426  14.929  19.223  0.00  0.00    +0.000 C 
ENDROOT
BRANCH   1   2
ATOM      2  C   UNL     1       1.651  13.598  19.290  0.00  0.00    +0.000 A 
ATOM      3  C   UNL     1       0.418  13.546  19.981  0.00  0.00    +0.000 A 
ATOM      4  C   UNL     1      -0.323  12.365  20.055  0.00  0.00    +0.000 A 
ATOM      5  C   UNL     1       0.164  11.215  19.452  0.00  0.00    +0.000 A 
ATOM      6  F   UNL     1      -0.537  10.077  19.534  0.00  0.00    +0.000 F 
ATOM      7  C   UNL     1       1.361  11.232  18.754  0.00  0.00    +0.000 A 
ATOM      8  C   UNL     1       2.079  12.421  18.663  0.00  0.00    +0.000 A 
ATOM      9  F   UNL     1       3.189  12.414  17.913  0.00  0.00    +0.000 F 
ENDBRANCH   1   2
BRANCH   1  11
ATOM     10  C   UNL     1       3.548  13.962  21.331  0.00  0.00    +0.000 C 
ATOM     11  C   UNL     1       3.832  14.723  20.004  0.00  0.00    +0.000 C 
BRANCH  11  12
ATOM     12  N   UNL     1       4.712  15.913  20.280  0.00  0.00    +0.000 NA
ATOM     13  C   UNL     1       5.127  16.709  19.088  0.00  0.00    +0.000 C 
ATOM     14  C   UNL     1       6.090  16.029  18.085  0.00  0.00    +0.000 C 
ATOM     15  N   UNL     1       7.002  15.132  18.758  0.00  0.00    +0.000 N 
ATOM     16  N   UNL     1       7.987  14.465  18.129  0.00  0.00    +0.000 NA
ATOM     17  C   UNL     1       8.589  13.844  19.161  0.00  0.00    +0.000 A 
ATOM     18  N   UNL     1       7.981  14.068  20.381  0.00  0.00    +0.000 NA
ATOM     19  C   UNL     1       6.987  14.875  20.091  0.00  0.00    +0.000 A 
ATOM     20  C   UNL     1       5.983  15.524  20.982  0.00  0.00    +0.000 C 
BRANCH  17  21
ATOM     21  C   UNL     1       9.826  13.003  19.025  0.00  0.00    +0.000 A 
ATOM     22  C   UNL     1      10.457  12.704  17.835  0.00  0.00    +0.000 A 
ATOM     23  C   UNL     1      11.610  11.880  18.024  0.00  0.00    +0.000 A 
ATOM     24  C   UNL     1      11.828  11.595  19.357  0.00  0.00    +0.000 A 
ATOM     25  S   UNL     1      10.642  12.311  20.362  0.00  0.00    +0.000 S 
ENDBRANCH  17  21
ENDBRANCH  11  12
ENDBRANCH   1  11
BRANCH   1  26
ATOM     26  O   UNL     1       2.722  15.102  17.814  0.00  0.00    +0.000 OA
ATOM     27  H   UNL     1       3.292  15.904  17.755  0.00  0.00    +0.000 HD
ENDBRANCH   1  26
BRANCH   1  28
ATOM     28  C   UNL     1       1.681  16.216  19.712  0.00  0.00    +0.000 C 
BRANCH  28  29
ATOM     29  N   UNL     1       1.073  17.025  18.664  0.00  0.00    +0.000 N 
ATOM     30  C   UNL     1      -0.227  17.019  18.255  0.00  0.00    +0.000 A 
ATOM     31  N   UNL     1      -0.383  17.863  17.261  0.00  0.00    +0.000 NA
ATOM     32  C   UNL     1       0.870  18.383  17.105  0.00  0.00    +0.000 A 
ATOM     33  N   UNL     1       1.789  17.925  17.962  0.00  0.00    +0.000 NA
ENDBRANCH  28  29
ENDBRANCH   1  28
TORSDOF 7
ENDMDL
MODEL 6
REMARK VINA RESULT:      -6.3      4.102      7.629
REMARK  Name = 
REMARK  8 active torsions:
REMARK  status: ('A' for Active; 'I' for Inactive)
REMARK    1  A    between atoms: C_1  and  C_2
REMARK    2  A    between atoms: C_2  and  N_3
REMARK    3  A    between atoms: C_2  and  C_17
REMARK    4  A    between atoms: C_8  and  C_9
REMARK    5  A    between atoms: C_17  and  O_18
REMARK    6  A    between atoms: C_17  and  C_19
REMARK    7  A    between atoms: C_17  and  C_25
REMARK    8  A    between atoms: C_19  and  N_20
REMARK                            x       y       z     vdW  Elec       q    Type
REMARK                         _______ _______ _______ _____ _____    ______ ____
ROOT
ATOM      1  C   UNL     1      -0.440  11.459  18.989  0.00  0.00    +0.000 C 
ENDROOT
BRANCH   1   2
ATOM      2  C   UNL     1      -0.318  10.856  20.403  0.00  0.00    +0.000 A 
ATOM      3  C   UNL     1       0.571   9.779  20.626  0.00  0.00    +0.000 A 
ATOM      4  C   UNL     1       0.722   9.213  21.893  0.00  0.00    +0.000 A 
ATOM      5  C   UNL     1      -0.025   9.704  22.953  0.00  0.00    +0.000 A 
ATOM      6  F   UNL     1       0.107   9.154  24.167  0.00  0.00    +0.000 F 
ATOM      7  C   UNL     1      -0.895  10.768  22.776  0.00  0.00    +0.000 A 
ATOM      8  C   UNL     1      -1.019  11.344  21.515  0.00  0.00    +0.000 A 
ATOM      9  F   UNL     1      -1.809  12.419  21.402  0.00  0.00    +0.000 F 
ENDBRANCH   1   2
BRANCH   1  11
ATOM     10  C   UNL     1       1.990  12.229  18.622  0.00  0.00    +0.000 C 
ATOM     11  C   UNL     1       0.549  12.740  18.910  0.00  0.00    +0.000 C 
BRANCH  11  12
ATOM     12  N   UNL     1       0.580  13.729  20.045  0.00  0.00    +0.000 NA
ATOM     13  C   UNL     1       0.164  15.122  19.708  0.00  0.00    +0.000 C 
ATOM     14  C   UNL     1       1.092  15.929  18.769  0.00  0.00    +0.000 C 
ATOM     15  N   UNL     1       2.479  15.576  18.971  0.00  0.00    +0.000 N 
ATOM     16  N   UNL     1       3.499  16.177  18.331  0.00  0.00    +0.000 NA
ATOM     17  C   UNL     1       4.561  15.572  18.897  0.00  0.00    +0.000 A 
ATOM     18  N   UNL     1       4.227  14.597  19.816  0.00  0.00    +0.000 NA
ATOM     19  C   UNL     1       2.914  14.622  19.834  0.00  0.00    +0.000 A 
ATOM     20  C   UNL     1       1.948  13.842  20.658  0.00  0.00    +0.000 C 
BRANCH  17  21
ATOM     21  C   UNL     1       5.987  15.929  18.591  0.00  0.00    +0.000 A 
ATOM     22  C   UNL     1       6.579  17.145  18.864  0.00  0.00    +0.000 A 
ATOM     23  C   UNL     1       7.948  17.187  18.455  0.00  0.00    +0.000 A 
ATOM     24  C   UNL     1       8.358  15.991  17.900  0.00  0.00    +0.000 A 
ATOM     25  S   UNL     1       7.093  14.839  17.868  0.00  0.00    +0.000 S 
ENDBRANCH  17  21
ENDBRANCH  11  12
ENDBRANCH   1  11
BRANCH   1  26
ATOM     26  O   UNL     1       0.092  10.431  18.114  0.00  0.00    +0.000 OA
ATOM     27  H   UNL     1      -0.597  10.282  17.425  0.00  0.00    +0.000 HD
ENDBRANCH   1  26
BRANCH   1  28
ATOM     28  C   UNL     1      -1.879  11.812  18.484  0.00  0.00    +0.000 C 
BRANCH  28  29
ATOM     29  N   UNL     1      -2.348  11.045  17.338  0.00  0.00    +0.000 N 
ATOM     30  C   UNL     1      -2.584  11.496  16.073  0.00  0.00    +0.000 A 
ATOM     31  N   UNL     1      -3.033  10.513  15.328  0.00  0.00    +0.000 NA
ATOM     32  C   UNL     1      -3.041   9.456  16.192  0.00  0.00    +0.000 A 
ATOM     33  N   UNL     1      -2.600   9.725  17.426  0.00  0.00    +0.000 NA
ENDBRANCH  28  29
ENDBRANCH   1  28
TORSDOF 7
ENDMDL
MODEL 7
REMARK VINA RESULT:      -6.3      1.695      1.871
REMARK  Name = 
REMARK  8 active torsions:
REMARK  status: ('A' for Active; 'I' for Inactive)
REMARK    1  A    between atoms: C_1  and  C_2
REMARK    2  A    between atoms: C_2  and  N_3
REMARK    3  A    between atoms: C_2  and  C_17
REMARK    4  A    between atoms: C_8  and  C_9
REMARK    5  A    between atoms: C_17  and  O_18
REMARK    6  A    between atoms: C_17  and  C_19
REMARK    7  A    between atoms: C_17  and  C_25
REMARK    8  A    between atoms: C_19  and  N_20
REMARK                            x       y       z     vdW  Elec       q    Type
REMARK                         _______ _______ _______ _____ _____    ______ ____
ROOT
ATOM      1  C   UNL     1      -1.489  11.573  18.765  0.00  0.00    +0.000 C 
ENDROOT
BRANCH   1   2
ATOM      2  C   UNL     1      -2.306  11.063  17.562  0.00  0.00    +0.000 A 
ATOM      3  C   UNL     1      -3.529  11.694  17.235  0.00  0.00    +0.000 A 
ATOM      4  C   UNL     1      -4.294  11.274  16.145  0.00  0.00    +0.000 A 
ATOM      5  C   UNL     1      -3.856  10.206  15.375  0.00  0.00    +0.000 A 
ATOM      6  F   UNL     1      -4.594   9.791  14.338  0.00  0.00    +0.000 F 
ATOM      7  C   UNL     1      -2.656   9.573  15.657  0.00  0.00    +0.000 A 
ATOM      8  C   UNL     1      -1.886  10.018  16.729  0.00  0.00    +0.000 A 
ATOM      9  F   UNL     1      -0.697   9.432  16.919  0.00  0.00    +0.000 F 
ENDBRANCH   1   2
BRANCH   1  11
ATOM     10  C   UNL     1      -1.208   9.638  20.442  0.00  0.00    +0.000 C 
ATOM     11  C   UNL     1      -0.521  10.367  19.253  0.00  0.00    +0.000 C 
BRANCH  11  12
ATOM     12  N   UNL     1       0.916  10.658  19.599  0.00  0.00    +0.000 NA
ATOM     13  C   UNL     1       1.887  10.582  18.469  0.00  0.00    +0.000 C 
ATOM     14  C   UNL     1       2.151   9.187  17.856  0.00  0.00    +0.000 C 
ATOM     15  N   UNL     1       2.066   8.148  18.858  0.00  0.00    +0.000 N 
ATOM     16  N   UNL     1       2.319   6.851  18.606  0.00  0.00    +0.000 NA
ATOM     17  C   UNL     1       2.186   6.312  19.833  0.00  0.00    +0.000 A 
ATOM     18  N   UNL     1       1.816   7.218  20.807  0.00  0.00    +0.000 NA
ATOM     19  C   UNL     1       1.744   8.359  20.160  0.00  0.00    +0.000 A 
ATOM     20  C   UNL     1       1.440   9.730  20.659  0.00  0.00    +0.000 C 
BRANCH  17  21
ATOM     21  C   UNL     1       2.440   4.864  20.142  0.00  0.00    +0.000 A 
ATOM     22  C   UNL     1       1.673   4.083  20.983  0.00  0.00    +0.000 A 
ATOM     23  C   UNL     1       2.164   2.745  21.080  0.00  0.00    +0.000 A 
ATOM     24  C   UNL     1       3.281   2.546  20.292  0.00  0.00    +0.000 A 
ATOM     25  S   UNL     1       3.729   3.971  19.455  0.00  0.00    +0.000 S 
ENDBRANCH  17  21
ENDBRANCH  11  12
ENDBRANCH   1  11
BRANCH   1  26
ATOM     26  O   UNL     1      -0.651  12.620  18.213  0.00  0.00    +0.000 OA
ATOM     27  H   UNL     1       0.161  12.639  18.773  0.00  0.00    +0.000 HD
ENDBRANCH   1  26
BRANCH   1  28
ATOM     28  C   UNL     1      -2.288  12.188  19.963  0.00  0.00    +0.000 C 
BRANCH  28  29
ATOM     29  N   UNL     1      -1.669  13.340  20.605  0.00  0.00    +0.000 N 
ATOM     30  C   UNL     1      -2.142  14.617  20.663  0.00  0.00    +0.000 A 
ATOM     31  N   UNL     1      -1.283  15.380  21.298  0.00  0.00    +0.000 NA
ATOM     32  C   UNL     1      -0.288  14.506  21.631  0.00  0.00    +0.000 A 
ATOM     33  N   UNL     1      -0.493  13.238  21.256  0.00  0.00    +0.000 NA
ENDBRANCH  28  29
ENDBRANCH   1  28
TORSDOF 7
ENDMDL
MODEL 8
REMARK VINA RESULT:      -6.3      1.720      2.120
REMARK  Name = 
REMARK  8 active torsions:
REMARK  status: ('A' for Active; 'I' for Inactive)
REMARK    1  A    between atoms: C_1  and  C_2
REMARK    2  A    between atoms: C_2  and  N_3
REMARK    3  A    between atoms: C_2  and  C_17
REMARK    4  A    between atoms: C_8  and  C_9
REMARK    5  A    between atoms: C_17  and  O_18
REMARK    6  A    between atoms: C_17  and  C_19
REMARK    7  A    between atoms: C_17  and  C_25
REMARK    8  A    between atoms: C_19  and  N_20
REMARK                            x       y       z     vdW  Elec       q    Type
REMARK                         _______ _______ _______ _____ _____    ______ ____
ROOT
ATOM      1  C   UNL     1      -1.278  11.498  18.917  0.00  0.00    +0.000 C 
ENDROOT
BRANCH   1   2
ATOM      2  C   UNL     1      -2.163  11.045  17.740  0.00  0.00    +0.000 A 
ATOM      3  C   UNL     1      -3.382  11.716  17.487  0.00  0.00    +0.000 A 
ATOM      4  C   UNL     1      -4.208  11.346  16.423  0.00  0.00    +0.000 A 
ATOM      5  C   UNL     1      -3.834  10.291  15.605  0.00  0.00    +0.000 A 
ATOM      6  F   UNL     1      -4.631   9.925  14.593  0.00  0.00    +0.000 F 
ATOM      7  C   UNL     1      -2.640   9.619  15.813  0.00  0.00    +0.000 A 
ATOM      8  C   UNL     1      -1.811  10.013  16.859  0.00  0.00    +0.000 A 
ATOM      9  F   UNL     1      -0.630   9.392  16.977  0.00  0.00    +0.000 F 
ENDBRANCH   1   2
BRANCH   1  11
ATOM     10  C   UNL     1      -1.123   9.501  20.536  0.00  0.00    +0.000 C 
ATOM     11  C   UNL     1      -0.381  10.230  19.380  0.00  0.00    +0.000 C 
BRANCH  11  12
ATOM     12  N   UNL     1       1.063  10.435  19.755  0.00  0.00    +0.000 NA
ATOM     13  C   UNL     1       2.028  10.510  18.619  0.00  0.00    +0.000 C 
ATOM     14  C   UNL     1       2.259   9.217  17.801  0.00  0.00    +0.000 C 
ATOM     15  N   UNL     1       2.155   8.041  18.637  0.00  0.00    +0.000 N 
ATOM     16  N   UNL     1       2.378   6.792  18.192  0.00  0.00    +0.000 NA
ATOM     17  C   UNL     1       2.238   6.077  19.325  0.00  0.00    +0.000 A 
ATOM     18  N   UNL     1       1.892   6.835  20.426  0.00  0.00    +0.000 NA
ATOM     19  C   UNL     1       1.843   8.061  19.959  0.00  0.00    +0.000 A 
ATOM     20  C   UNL     1       1.571   9.348  20.659  0.00  0.00    +0.000 C 
BRANCH  17  21
ATOM     21  C   UNL     1       2.462   4.594  19.411  0.00  0.00    +0.000 A 
ATOM     22  C   UNL     1       3.681   3.963  19.273  0.00  0.00    +0.000 A 
ATOM     23  C   UNL     1       3.577   2.544  19.402  0.00  0.00    +0.000 A 
ATOM     24  C   UNL     1       2.280   2.143  19.654  0.00  0.00    +0.000 A 
ATOM     25  S   UNL     1       1.205   3.473  19.721  0.00  0.00    +0.000 S 
ENDBRANCH  17  21
ENDBRANCH  11  12
ENDBRANCH   1  11
BRANCH   1  26
ATOM     26  O   UNL     1      -0.387  12.485  18.337  0.00  0.00    +0.000 OA
ATOM     27  H   UNL     1      -0.792  12.740  17.474  0.00  0.00    +0.000 HD
ENDBRANCH   1  26
BRANCH   1  28
ATOM     28  C   UNL     1      -1.997  12.168  20.135  0.00  0.00    +0.000 C 
BRANCH  28  29
ATOM     29  N   UNL     1      -1.180  13.084  20.921  0.00  0.00    +0.000 N 
ATOM     30  C   UNL     1      -0.489  12.812  22.064  0.00  0.00    +0.000 A 
ATOM     31  N   UNL     1       0.097  13.904  22.498  0.00  0.00    +0.000 NA
ATOM     32  C   UNL     1      -0.258  14.832  21.561  0.00  0.00    +0.000 A 
ATOM     33  N   UNL     1      -1.014  14.370  20.558  0.00  0.00    +0.000 NA
ENDBRANCH  28  29
ENDBRANCH   1  28
TORSDOF 7
ENDMDL
MODEL 9
REMARK VINA RESULT:      -6.2      0.965      1.377
REMARK  Name = 
REMARK  8 active torsions:
REMARK  status: ('A' for Active; 'I' for Inactive)
REMARK    1  A    between atoms: C_1  and  C_2
REMARK    2  A    between atoms: C_2  and  N_3
REMARK    3  A    between atoms: C_2  and  C_17
REMARK    4  A    between atoms: C_8  and  C_9
REMARK    5  A    between atoms: C_17  and  O_18
REMARK    6  A    between atoms: C_17  and  C_19
REMARK    7  A    between atoms: C_17  and  C_25
REMARK    8  A    between atoms: C_19  and  N_20
REMARK                            x       y       z     vdW  Elec       q    Type
REMARK                         _______ _______ _______ _____ _____    ______ ____
ROOT
ATOM      1  C   UNL     1      -1.343  12.483  18.855  0.00  0.00    +0.000 C 
ENDROOT
BRANCH   1   2
ATOM      2  C   UNL     1      -2.799  12.031  18.629  0.00  0.00    +0.000 A 
ATOM      3  C   UNL     1      -3.128  11.302  17.463  0.00  0.00    +0.000 A 
ATOM      4  C   UNL     1      -4.432  10.861  17.225  0.00  0.00    +0.000 A 
ATOM      5  C   UNL     1      -5.429  11.156  18.143  0.00  0.00    +0.000 A 
ATOM      6  F   UNL     1      -6.683  10.747  17.911  0.00  0.00    +0.000 F 
ATOM      7  C   UNL     1      -5.142  11.854  19.304  0.00  0.00    +0.000 A 
ATOM      8  C   UNL     1      -3.834  12.266  19.545  0.00  0.00    +0.000 A 
ATOM      9  F   UNL     1      -3.582  12.868  20.715  0.00  0.00    +0.000 F 
ENDBRANCH   1   2
BRANCH   1  11
ATOM     10  C   UNL     1      -1.235  10.336  20.274  0.00  0.00    +0.000 C 
ATOM     11  C   UNL     1      -0.465  11.168  19.208  0.00  0.00    +0.000 C 
BRANCH  11  12
ATOM     12  N   UNL     1       0.973  11.322  19.627  0.00  0.00    +0.000 NA
ATOM     13  C   UNL     1       1.982  11.267  18.529  0.00  0.00    +0.000 C 
ATOM     14  C   UNL     1       2.172   9.911  17.810  0.00  0.00    +0.000 C 
ATOM     15  N   UNL     1       1.972   8.803  18.717  0.00  0.00    +0.000 N 
ATOM     16  N   UNL     1       2.142   7.515  18.366  0.00  0.00    +0.000 NA
ATOM     17  C   UNL     1       1.921   6.889  19.538  0.00  0.00    +0.000 A 
ATOM     18  N   UNL     1       1.576   7.738  20.571  0.00  0.00    +0.000 NA
ATOM     19  C   UNL     1       1.612   8.930  20.021  0.00  0.00    +0.000 A 
ATOM     20  C   UNL     1       1.386  10.274  20.622  0.00  0.00    +0.000 C 
BRANCH  17  21
ATOM     21  C   UNL     1       2.059   5.406  19.732  0.00  0.00    +0.000 A 
ATOM     22  C   UNL     1       1.508   4.685  20.771  0.00  0.00    +0.000 A 
ATOM     23  C   UNL     1       1.813   3.291  20.688  0.00  0.00    +0.000 A 
ATOM     24  C   UNL     1       2.573   2.995  19.574  0.00  0.00    +0.000 A 
ATOM     25  S   UNL     1       2.918   4.394  18.650  0.00  0.00    +0.000 S 
ENDBRANCH  17  21
ENDBRANCH  11  12
ENDBRANCH   1  11
BRANCH   1  26
ATOM     26  O   UNL     1      -0.914  12.971  17.558  0.00  0.00    +0.000 OA
ATOM     27  H   UNL     1      -1.609  13.606  17.266  0.00  0.00    +0.000 HD
ENDBRANCH   1  26
BRANCH   1  28
ATOM     28  C   UNL     1      -1.104  13.630  19.894  0.00  0.00    +0.000 C 
BRANCH  28  29
ATOM     29  N   UNL     1      -0.159  14.661  19.486  0.00  0.00    +0.000 N 
ATOM     30  C   UNL     1       1.163  14.752  19.801  0.00  0.00    +0.000 A 
ATOM     31  N   UNL     1       1.671  15.842  19.275  0.00  0.00    +0.000 NA
ATOM     32  C   UNL     1       0.604  16.389  18.621  0.00  0.00    +0.000 A 
ATOM     33  N   UNL     1      -0.532  15.686  18.694  0.00  0.00    +0.000 NA
ENDBRANCH  28  29
ENDBRANCH   1  28
TORSDOF 7
ENDMDL
