MODEL 1
REMARK VINA RESULT:      -7.5      0.000      0.000
REMARK  Name = 
REMARK  7 active torsions:
REMARK  status: ('A' for Active; 'I' for Inactive)
REMARK    1  A    between atoms: C_2  and  C_3
REMARK    2  A    between atoms: C_3  and  S_4
REMARK    3  A    between atoms: S_4  and  C_5
REMARK    4  A    between atoms: C_8  and  C_9
REMARK    5  A    between atoms: N_15  and  C_16
REMARK    6  A    between atoms: C_16  and  C_17
REMARK    7  A    between atoms: C_17  and  C_18
REMARK                            x       y       z     vdW  Elec       q    Type
REMARK                         _______ _______ _______ _____ _____    ______ ____
ROOT
ATOM      1  C   UNL     1       1.601   8.926  18.867  0.00  0.00    +0.000 A 
ATOM      2  N   UNL     1       2.066   9.200  17.672  0.00  0.00    +0.000 NA
ATOM      3  N   UNL     1       2.901   8.168  17.300  0.00  0.00    +0.000 NA
ATOM      4  C   UNL     1       2.898   7.256  18.256  0.00  0.00    +0.000 A 
ATOM      5  N   UNL     1       2.121   7.732  19.303  0.00  0.00    +0.000 N 
ENDROOT
BRANCH   4   6
ATOM      6  C   UNL     1       3.636   5.989  18.211  0.00  0.00    +0.000 A 
ATOM      7  C   UNL     1       4.765   5.771  19.007  0.00  0.00    +0.000 A 
ATOM      8  C   UNL     1       5.440   4.547  18.943  0.00  0.00    +0.000 A 
ATOM      9  C   UNL     1       4.965   3.577  18.075  0.00  0.00    +0.000 A 
ATOM     10  N   UNL     1       3.890   3.752  17.285  0.00  0.00    +0.000 NA
ATOM     11  C   UNL     1       3.264   4.949  17.363  0.00  0.00    +0.000 A 
ENDBRANCH   4   6
BRANCH   1  12
ATOM     12  S   UNL     1       0.632  10.012  19.814  0.00  0.00    +0.000 S 
BRANCH  12  13
ATOM     13  C   UNL     1       0.192  11.311  18.609  0.00  0.00    +0.000 C 
BRANCH  13  15
ATOM     14  O   UNL     1      -1.619  12.648  19.501  0.00  0.00    +0.000 OA
ATOM     15  C   UNL     1      -1.270  11.748  18.731  0.00  0.00    +0.000 C 
ATOM     16  N   UNL     1      -2.212  11.101  17.935  0.00  0.00    +0.000 N 
ATOM     17  C   UNL     1      -1.922  10.119  16.893  0.00  0.00    +0.000 C 
ATOM     18  C   UNL     1      -2.660  10.468  15.599  0.00  0.00    +0.000 C 
ATOM     19  C   UNL     1      -4.161  10.643  15.837  0.00  0.00    +0.000 C 
ATOM     20  C   UNL     1      -4.428  11.643  16.954  0.00  0.00    +0.000 C 
ATOM     21  C   UNL     1      -3.636  11.311  18.216  0.00  0.00    +0.000 C 
ENDBRANCH  13  15
ENDBRANCH  12  13
ENDBRANCH   1  12
BRANCH   5  22
ATOM     22  C   UNL     1       1.997   7.140  20.623  0.00  0.00    +0.000 C 
BRANCH  22  23
ATOM     23  C   UNL     1       0.889   6.089  20.682  0.00  0.00    +0.000 C 
BRANCH  23  24
ATOM     24  C   UNL     1       1.319   4.645  20.588  0.00  0.00    +0.000 A 
ATOM     25  C   UNL     1       0.725   3.850  19.599  0.00  0.00    +0.000 A 
ATOM     26  C   UNL     1       1.182   2.557  19.347  0.00  0.00    +0.000 A 
ATOM     27  C   UNL     1       2.238   2.042  20.093  0.00  0.00    +0.000 A 
ATOM     28  C   UNL     1       2.811   2.808  21.103  0.00  0.00    +0.000 A 
ATOM     29  C   UNL     1       2.357   4.109  21.353  0.00  0.00    +0.000 A 
ENDBRANCH  23  24
ENDBRANCH  22  23
ENDBRANCH   5  22
TORSDOF 7
ENDMDL
MODEL 2
REMARK VINA RESULT:      -7.4      0.694      1.299
REMARK  Name = 
REMARK  7 active torsions:
REMARK  status: ('A' for Active; 'I' for Inactive)
REMARK    1  A    between atoms: C_2  and  C_3
REMARK    2  A    between atoms: C_3  and  S_4
REMARK    3  A    between atoms: S_4  and  C_5
REMARK    4  A    between atoms: C_8  and  C_9
REMARK    5  A    between atoms: N_15  and  C_16
REMARK    6  A    between atoms: C_16  and  C_17
REMARK    7  A    between atoms: C_17  and  C_18
REMARK                            x       y       z     vdW  Elec       q    Type
REMARK                         _______ _______ _______ _____ _____    ______ ____
ROOT
ATOM      1  C   UNL     1       1.469   9.038  18.791  0.00  0.00    +0.000 A 
ATOM      2  N   UNL     1       1.774   9.380  17.562  0.00  0.00    +0.000 NA
ATOM      3  N   UNL     1       2.678   8.456  17.082  0.00  0.00    +0.000 NA
ATOM      4  C   UNL     1       2.877   7.537  18.010  0.00  0.00    +0.000 A 
ATOM      5  N   UNL     1       2.163   7.907  19.142  0.00  0.00    +0.000 N 
ENDROOT
BRANCH   4   6
ATOM      6  C   UNL     1       3.745   6.364  17.860  0.00  0.00    +0.000 A 
ATOM      7  C   UNL     1       3.222   5.096  17.589  0.00  0.00    +0.000 A 
ATOM      8  C   UNL     1       4.081   4.001  17.445  0.00  0.00    +0.000 A 
ATOM      9  C   UNL     1       5.443   4.209  17.584  0.00  0.00    +0.000 A 
ATOM     10  N   UNL     1       5.985   5.411  17.854  0.00  0.00    +0.000 NA
ATOM     11  C   UNL     1       5.129   6.448  17.997  0.00  0.00    +0.000 A 
ENDBRANCH   4   6
BRANCH   1  12
ATOM     12  S   UNL     1       0.487   9.993  19.857  0.00  0.00    +0.000 S 
BRANCH  12  13
ATOM     13  C   UNL     1       0.098  11.458  18.839  0.00  0.00    +0.000 C 
BRANCH  13  15
ATOM     14  O   UNL     1      -1.792  12.717  19.681  0.00  0.00    +0.000 OA
ATOM     15  C   UNL     1      -1.383  11.841  18.912  0.00  0.00    +0.000 C 
ATOM     16  N   UNL     1      -2.271  11.174  18.072  0.00  0.00    +0.000 N 
ATOM     17  C   UNL     1      -1.907  10.218  17.028  0.00  0.00    +0.000 C 
ATOM     18  C   UNL     1      -2.608  10.560  15.713  0.00  0.00    +0.000 C 
ATOM     19  C   UNL     1      -4.122  10.679  15.895  0.00  0.00    +0.000 C 
ATOM     20  C   UNL     1      -4.466  11.652  17.016  0.00  0.00    +0.000 C 
ATOM     21  C   UNL     1      -3.711  11.329  18.302  0.00  0.00    +0.000 C 
ENDBRANCH  13  15
ENDBRANCH  12  13
ENDBRANCH   1  12
BRANCH   5  22
ATOM     22  C   UNL     1       2.244   7.287  20.453  0.00  0.00    +0.000 C 
BRANCH  22  23
ATOM     23  C   UNL     1       1.105   6.296  20.693  0.00  0.00    +0.000 C 
BRANCH  23  24
ATOM     24  C   UNL     1       1.432   4.833  20.520  0.00  0.00    +0.000 A 
ATOM     25  C   UNL     1       2.409   4.279  21.359  0.00  0.00    +0.000 A 
ATOM     26  C   UNL     1       2.652   2.906  21.368  0.00  0.00    +0.000 A 
ATOM     27  C   UNL     1       1.923   2.071  20.526  0.00  0.00    +0.000 A 
ATOM     28  C   UNL     1       0.977   2.614  19.662  0.00  0.00    +0.000 A 
ATOM     29  C   UNL     1       0.728   3.992  19.655  0.00  0.00    +0.000 A 
ENDBRANCH  23  24
ENDBRANCH  22  23
ENDBRANCH   5  22
TORSDOF 7
ENDMDL
MODEL 3
REMARK VINA RESULT:      -7.4      1.123      1.353
REMARK  Name = 
REMARK  7 active torsions:
REMARK  status: ('A' for Active; 'I' for Inactive)
REMARK    1  A    between atoms: C_2  and  C_3
REMARK    2  A    between atoms: C_3  and  S_4
REMARK    3  A    between atoms: S_4  and  C_5
REMARK    4  A    between atoms: C_8  and  C_9
REMARK    5  A    between atoms: N_15  and  C_16
REMARK    6  A    between atoms: C_16  and  C_17
REMARK    7  A    between atoms: C_17  and  C_18
REMARK                            x       y       z     vdW  Elec       q    Type
REMARK                         _______ _______ _______ _____ _____    ______ ____
ROOT
ATOM      1  C   UNL     1       1.805   8.513  18.652  0.00  0.00    +0.000 A 
ATOM      2  N   UNL     1       2.257   9.051  17.544  0.00  0.00    +0.000 NA
ATOM      3  N   UNL     1       3.287   8.258  17.084  0.00  0.00    +0.000 NA
ATOM      4  C   UNL     1       3.418   7.222  17.894  0.00  0.00    +0.000 A 
ATOM      5  N   UNL     1       2.523   7.381  18.943  0.00  0.00    +0.000 N 
ENDROOT
BRANCH   4   6
ATOM      6  C   UNL     1       4.384   6.132  17.716  0.00  0.00    +0.000 A 
ATOM      7  C   UNL     1       4.214   5.159  16.726  0.00  0.00    +0.000 A 
ATOM      8  C   UNL     1       5.159   4.137  16.581  0.00  0.00    +0.000 A 
ATOM      9  C   UNL     1       6.247   4.118  17.439  0.00  0.00    +0.000 A 
ATOM     10  N   UNL     1       6.440   5.030  18.410  0.00  0.00    +0.000 NA
ATOM     11  C   UNL     1       5.505   6.000  18.531  0.00  0.00    +0.000 A 
ENDBRANCH   4   6
BRANCH   1  12
ATOM     12  S   UNL     1       0.611   9.245  19.678  0.00  0.00    +0.000 S 
BRANCH  12  13
ATOM     13  C   UNL     1       0.262  10.822  18.826  0.00  0.00    +0.000 C 
BRANCH  13  15
ATOM     14  O   UNL     1      -1.505  12.049  19.939  0.00  0.00    +0.000 OA
ATOM     15  C   UNL     1      -1.185  11.283  19.024  0.00  0.00    +0.000 C 
ATOM     16  N   UNL     1      -2.146  10.818  18.130  0.00  0.00    +0.000 N 
ATOM     17  C   UNL     1      -1.885  10.020  16.933  0.00  0.00    +0.000 C 
ATOM     18  C   UNL     1      -2.604  10.614  15.720  0.00  0.00    +0.000 C 
ATOM     19  C   UNL     1      -4.099  10.799  15.986  0.00  0.00    +0.000 C 
ATOM     20  C   UNL     1      -4.336  11.600  17.260  0.00  0.00    +0.000 C 
ATOM     21  C   UNL     1      -3.562  11.027  18.444  0.00  0.00    +0.000 C 
ENDBRANCH  13  15
ENDBRANCH  12  13
ENDBRANCH   1  12
BRANCH   5  22
ATOM     22  C   UNL     1       2.460   6.576  20.151  0.00  0.00    +0.000 C 
BRANCH  22  23
ATOM     23  C   UNL     1       1.488   5.405  20.014  0.00  0.00    +0.000 C 
BRANCH  23  24
ATOM     24  C   UNL     1       2.081   4.077  19.612  0.00  0.00    +0.000 A 
ATOM     25  C   UNL     1       1.508   3.410  18.520  0.00  0.00    +0.000 A 
ATOM     26  C   UNL     1       2.097   2.262  17.992  0.00  0.00    +0.000 A 
ATOM     27  C   UNL     1       3.264   1.762  18.561  0.00  0.00    +0.000 A 
ATOM     28  C   UNL     1       3.821   2.393  19.668  0.00  0.00    +0.000 A 
ATOM     29  C   UNL     1       3.235   3.550  20.197  0.00  0.00    +0.000 A 
ENDBRANCH  23  24
ENDBRANCH  22  23
ENDBRANCH   5  22
TORSDOF 7
ENDMDL
MODEL 4
REMARK VINA RESULT:      -7.2      1.649      3.504
REMARK  Name = 
REMARK  7 active torsions:
REMARK  status: ('A' for Active; 'I' for Inactive)
REMARK    1  A    between atoms: C_2  and  C_3
REMARK    2  A    between atoms: C_3  and  S_4
REMARK    3  A    between atoms: S_4  and  C_5
REMARK    4  A    between atoms: C_8  and  C_9
REMARK    5  A    between atoms: N_15  and  C_16
REMARK    6  A    between atoms: C_16  and  C_17
REMARK    7  A    between atoms: C_17  and  C_18
REMARK                            x       y       z     vdW  Elec       q    Type
REMARK                         _______ _______ _______ _____ _____    ______ ____
ROOT
ATOM      1  C   UNL     1       1.805   8.088  19.879  0.00  0.00    +0.000 A 
ATOM      2  N   UNL     1       1.307   7.429  20.898  0.00  0.00    +0.000 NA
ATOM      3  N   UNL     1       1.565   6.089  20.697  0.00  0.00    +0.000 NA
ATOM      4  C   UNL     1       2.257   5.955  19.580  0.00  0.00    +0.000 A 
ATOM      5  N   UNL     1       2.381   7.209  18.997  0.00  0.00    +0.000 N 
ENDROOT
BRANCH   4   6
ATOM      6  C   UNL     1       2.754   4.682  19.047  0.00  0.00    +0.000 A 
ATOM      7  C   UNL     1       2.055   3.977  18.063  0.00  0.00    +0.000 A 
ATOM      8  C   UNL     1       2.563   2.768  17.573  0.00  0.00    +0.000 A 
ATOM      9  C   UNL     1       3.759   2.298  18.091  0.00  0.00    +0.000 A 
ATOM     10  N   UNL     1       4.457   2.942  19.045  0.00  0.00    +0.000 NA
ATOM     11  C   UNL     1       3.935   4.102  19.505  0.00  0.00    +0.000 A 
ENDBRANCH   4   6
BRANCH   1  12
ATOM     12  S   UNL     1       1.585   9.790  19.613  0.00  0.00    +0.000 S 
BRANCH  12  13
ATOM     13  C   UNL     1       0.329   9.829  18.288  0.00  0.00    +0.000 C 
BRANCH  13  15
ATOM     14  O   UNL     1      -1.016  11.196  19.768  0.00  0.00    +0.000 OA
ATOM     15  C   UNL     1      -0.958  10.532  18.728  0.00  0.00    +0.000 C 
ATOM     16  N   UNL     1      -2.080  10.410  17.911  0.00  0.00    +0.000 N 
ATOM     17  C   UNL     1      -2.115   9.771  16.597  0.00  0.00    +0.000 C 
ATOM     18  C   UNL     1      -2.805  10.676  15.574  0.00  0.00    +0.000 C 
ATOM     19  C   UNL     1      -4.191  11.111  16.051  0.00  0.00    +0.000 C 
ATOM     20  C   UNL     1      -4.125  11.736  17.438  0.00  0.00    +0.000 C 
ATOM     21  C   UNL     1      -3.380  10.845  18.429  0.00  0.00    +0.000 C 
ENDBRANCH  13  15
ENDBRANCH  12  13
ENDBRANCH   1  12
BRANCH   5  22
ATOM     22  C   UNL     1       2.903   7.495  17.672  0.00  0.00    +0.000 C 
BRANCH  22  23
ATOM     23  C   UNL     1       4.421   7.675  17.676  0.00  0.00    +0.000 C 
BRANCH  23  24
ATOM     24  C   UNL     1       5.239   6.542  17.109  0.00  0.00    +0.000 A 
ATOM     25  C   UNL     1       6.471   6.259  17.713  0.00  0.00    +0.000 A 
ATOM     26  C   UNL     1       7.207   5.132  17.350  0.00  0.00    +0.000 A 
ATOM     27  C   UNL     1       6.719   4.278  16.365  0.00  0.00    +0.000 A 
ATOM     28  C   UNL     1       5.515   4.569  15.731  0.00  0.00    +0.000 A 
ATOM     29  C   UNL     1       4.771   5.697  16.099  0.00  0.00    +0.000 A 
ENDBRANCH  23  24
ENDBRANCH  22  23
ENDBRANCH   5  22
TORSDOF 7
ENDMDL
MODEL 5
REMARK VINA RESULT:      -7.2      1.296      1.905
REMARK  Name = 
REMARK  7 active torsions:
REMARK  status: ('A' for Active; 'I' for Inactive)
REMARK    1  A    between atoms: C_2  and  C_3
REMARK    2  A    between atoms: C_3  and  S_4
REMARK    3  A    between atoms: S_4  and  C_5
REMARK    4  A    between atoms: C_8  and  C_9
REMARK    5  A    between atoms: N_15  and  C_16
REMARK    6  A    between atoms: C_16  and  C_17
REMARK    7  A    between atoms: C_17  and  C_18
REMARK                            x       y       z     vdW  Elec       q    Type
REMARK                         _______ _______ _______ _____ _____    ______ ____
ROOT
ATOM      1  C   UNL     1       1.576   8.642  18.991  0.00  0.00    +0.000 A 
ATOM      2  N   UNL     1       2.053   9.121  17.867  0.00  0.00    +0.000 NA
ATOM      3  N   UNL     1       3.042   8.265  17.433  0.00  0.00    +0.000 NA
ATOM      4  C   UNL     1       3.125   7.251  18.276  0.00  0.00    +0.000 A 
ATOM      5  N   UNL     1       2.239   7.486  19.319  0.00  0.00    +0.000 N 
ENDROOT
BRANCH   4   6
ATOM      6  C   UNL     1       4.036   6.111  18.133  0.00  0.00    +0.000 A 
ATOM      7  C   UNL     1       3.967   5.251  17.032  0.00  0.00    +0.000 A 
ATOM      8  C   UNL     1       4.857   4.177  16.926  0.00  0.00    +0.000 A 
ATOM      9  C   UNL     1       5.790   3.992  17.934  0.00  0.00    +0.000 A 
ATOM     10  N   UNL     1       5.883   4.791  19.013  0.00  0.00    +0.000 NA
ATOM     11  C   UNL     1       5.002   5.814  19.092  0.00  0.00    +0.000 A 
ENDBRANCH   4   6
BRANCH   1  12
ATOM     12  S   UNL     1       0.420   9.464  19.993  0.00  0.00    +0.000 S 
BRANCH  12  13
ATOM     13  C   UNL     1      -0.039  10.908  18.974  0.00  0.00    +0.000 C 
BRANCH  13  15
ATOM     14  O   UNL     1      -1.393   9.754  17.331  0.00  0.00    +0.000 OA
ATOM     15  C   UNL     1      -1.314  10.665  18.161  0.00  0.00    +0.000 C 
ATOM     16  N   UNL     1      -2.402  11.503  18.389  0.00  0.00    +0.000 N 
ATOM     17  C   UNL     1      -2.490  12.528  19.428  0.00  0.00    +0.000 C 
ATOM     18  C   UNL     1      -3.803  12.400  20.203  0.00  0.00    +0.000 C 
ATOM     19  C   UNL     1      -5.013  12.410  19.268  0.00  0.00    +0.000 C 
ATOM     20  C   UNL     1      -4.872  11.359  18.175  0.00  0.00    +0.000 C 
ATOM     21  C   UNL     1      -3.530  11.464  17.454  0.00  0.00    +0.000 C 
ENDBRANCH  13  15
ENDBRANCH  12  13
ENDBRANCH   1  12
BRANCH   5  22
ATOM     22  C   UNL     1       2.140   6.726  20.553  0.00  0.00    +0.000 C 
BRANCH  22  23
ATOM     23  C   UNL     1       1.127   5.586  20.447  0.00  0.00    +0.000 C 
BRANCH  23  24
ATOM     24  C   UNL     1       1.662   4.241  20.021  0.00  0.00    +0.000 A 
ATOM     25  C   UNL     1       1.179   3.696  18.824  0.00  0.00    +0.000 A 
ATOM     26  C   UNL     1       1.739   2.538  18.285  0.00  0.00    +0.000 A 
ATOM     27  C   UNL     1       2.788   1.907  18.948  0.00  0.00    +0.000 A 
ATOM     28  C   UNL     1       3.250   2.418  20.157  0.00  0.00    +0.000 A 
ATOM     29  C   UNL     1       2.693   3.584  20.696  0.00  0.00    +0.000 A 
ENDBRANCH  23  24
ENDBRANCH  22  23
ENDBRANCH   5  22
TORSDOF 7
ENDMDL
MODEL 6
REMARK VINA RESULT:      -7.1      2.718      3.757
REMARK  Name = 
REMARK  7 active torsions:
REMARK  status: ('A' for Active; 'I' for Inactive)
REMARK    1  A    between atoms: C_2  and  C_3
REMARK    2  A    between atoms: C_3  and  S_4
REMARK    3  A    between atoms: S_4  and  C_5
REMARK    4  A    between atoms: C_8  and  C_9
REMARK    5  A    between atoms: N_15  and  C_16
REMARK    6  A    between atoms: C_16  and  C_17
REMARK    7  A    between atoms: C_17  and  C_18
REMARK                            x       y       z     vdW  Elec       q    Type
REMARK                         _______ _______ _______ _____ _____    ______ ____
ROOT
ATOM      1  C   UNL     1       2.733   7.227  18.835  0.00  0.00    +0.000 A 
ATOM      2  N   UNL     1       2.458   7.939  17.769  0.00  0.00    +0.000 NA
ATOM      3  N   UNL     1       3.359   7.587  16.786  0.00  0.00    +0.000 NA
ATOM      4  C   UNL     1       4.142   6.630  17.252  0.00  0.00    +0.000 A 
ATOM      5  N   UNL     1       3.808   6.412  18.582  0.00  0.00    +0.000 N 
ENDROOT
BRANCH   4   6
ATOM      6  C   UNL     1       5.203   5.965  16.488  0.00  0.00    +0.000 A 
ATOM      7  C   UNL     1       4.929   4.884  15.644  0.00  0.00    +0.000 A 
ATOM      8  C   UNL     1       5.966   4.278  14.926  0.00  0.00    +0.000 A 
ATOM      9  C   UNL     1       7.251   4.771  15.081  0.00  0.00    +0.000 A 
ATOM     10  N   UNL     1       7.557   5.802  15.890  0.00  0.00    +0.000 NA
ATOM     11  C   UNL     1       6.535   6.361  16.578  0.00  0.00    +0.000 A 
ENDBRANCH   4   6
BRANCH   1  12
ATOM     12  S   UNL     1       1.966   7.438  20.378  0.00  0.00    +0.000 S 
BRANCH  12  13
ATOM     13  C   UNL     1       1.202   9.090  20.223  0.00  0.00    +0.000 C 
BRANCH  13  15
ATOM     14  O   UNL     1       1.342   9.384  22.622  0.00  0.00    +0.000 OA
ATOM     15  C   UNL     1       0.747   9.650  21.573  0.00  0.00    +0.000 C 
ATOM     16  N   UNL     1      -0.365  10.488  21.591  0.00  0.00    +0.000 N 
ATOM     17  C   UNL     1      -1.077  10.988  20.417  0.00  0.00    +0.000 C 
ATOM     18  C   UNL     1      -1.285  12.501  20.514  0.00  0.00    +0.000 C 
ATOM     19  C   UNL     1      -1.969  12.892  21.825  0.00  0.00    +0.000 C 
ATOM     20  C   UNL     1      -1.225  12.323  23.026  0.00  0.00    +0.000 C 
ATOM     21  C   UNL     1      -0.975  10.824  22.881  0.00  0.00    +0.000 C 
ENDBRANCH  13  15
ENDBRANCH  12  13
ENDBRANCH   1  12
BRANCH   5  22
ATOM     22  C   UNL     1       4.537   5.585  19.528  0.00  0.00    +0.000 C 
BRANCH  22  23
ATOM     23  C   UNL     1       4.423   4.096  19.200  0.00  0.00    +0.000 C 
BRANCH  23  24
ATOM     24  C   UNL     1       3.070   3.460  19.404  0.00  0.00    +0.000 A 
ATOM     25  C   UNL     1       2.489   3.554  20.676  0.00  0.00    +0.000 A 
ATOM     26  C   UNL     1       1.179   3.132  20.900  0.00  0.00    +0.000 A 
ATOM     27  C   UNL     1       0.438   2.600  19.850  0.00  0.00    +0.000 A 
ATOM     28  C   UNL     1       1.016   2.466  18.591  0.00  0.00    +0.000 A 
ATOM     29  C   UNL     1       2.330   2.895  18.363  0.00  0.00    +0.000 A 
ENDBRANCH  23  24
ENDBRANCH  22  23
ENDBRANCH   5  22
TORSDOF 7
ENDMDL
MODEL 7
REMARK VINA RESULT:      -7.1      2.171      2.852
REMARK  Name = 
REMARK  7 active torsions:
REMARK  status: ('A' for Active; 'I' for Inactive)
REMARK    1  A    between atoms: C_2  and  C_3
REMARK    2  A    between atoms: C_3  and  S_4
REMARK    3  A    between atoms: S_4  and  C_5
REMARK    4  A    between atoms: C_8  and  C_9
REMARK    5  A    between atoms: N_15  and  C_16
REMARK    6  A    between atoms: C_16  and  C_17
REMARK    7  A    between atoms: C_17  and  C_18
REMARK                            x       y       z     vdW  Elec       q    Type
REMARK                         _______ _______ _______ _____ _____    ______ ____
ROOT
ATOM      1  C   UNL     1       1.574   8.623  19.204  0.00  0.00    +0.000 A 
ATOM      2  N   UNL     1       1.792   9.178  18.035  0.00  0.00    +0.000 NA
ATOM      3  N   UNL     1       2.691   8.383  17.356  0.00  0.00    +0.000 NA
ATOM      4  C   UNL     1       2.974   7.330  18.102  0.00  0.00    +0.000 A 
ATOM      5  N   UNL     1       2.321   7.477  19.318  0.00  0.00    +0.000 N 
ENDROOT
BRANCH   4   6
ATOM      6  C   UNL     1       3.865   6.234  17.706  0.00  0.00    +0.000 A 
ATOM      7  C   UNL     1       3.368   5.050  17.154  0.00  0.00    +0.000 A 
ATOM      8  C   UNL     1       4.249   4.028  16.782  0.00  0.00    +0.000 A 
ATOM      9  C   UNL     1       5.605   4.222  16.981  0.00  0.00    +0.000 A 
ATOM     10  N   UNL     1       6.123   5.342  17.519  0.00  0.00    +0.000 NA
ATOM     11  C   UNL     1       5.245   6.308  17.877  0.00  0.00    +0.000 A 
ENDBRANCH   4   6
BRANCH   1  12
ATOM     12  S   UNL     1       0.632   9.346  20.471  0.00  0.00    +0.000 S 
BRANCH  12  13
ATOM     13  C   UNL     1       0.759  11.129  20.096  0.00  0.00    +0.000 C 
BRANCH  13  15
ATOM     14  O   UNL     1      -1.093  11.798  18.686  0.00  0.00    +0.000 OA
ATOM     15  C   UNL     1      -0.607  11.764  19.821  0.00  0.00    +0.000 C 
ATOM     16  N   UNL     1      -1.303  12.306  20.899  0.00  0.00    +0.000 N 
ATOM     17  C   UNL     1      -0.908  12.217  22.303  0.00  0.00    +0.000 C 
ATOM     18  C   UNL     1      -2.084  11.756  23.167  0.00  0.00    +0.000 C 
ATOM     19  C   UNL     1      -3.316  12.637  22.960  0.00  0.00    +0.000 C 
ATOM     20  C   UNL     1      -3.677  12.740  21.484  0.00  0.00    +0.000 C 
ATOM     21  C   UNL     1      -2.476  13.143  20.632  0.00  0.00    +0.000 C 
ENDBRANCH  13  15
ENDBRANCH  12  13
ENDBRANCH   1  12
BRANCH   5  22
ATOM     22  C   UNL     1       2.501   6.649  20.498  0.00  0.00    +0.000 C 
BRANCH  22  23
ATOM     23  C   UNL     1       1.412   5.584  20.628  0.00  0.00    +0.000 C 
BRANCH  23  24
ATOM     24  C   UNL     1       1.772   4.190  20.178  0.00  0.00    +0.000 A 
ATOM     25  C   UNL     1       0.862   3.514  19.354  0.00  0.00    +0.000 A 
ATOM     26  C   UNL     1       1.193   2.291  18.771  0.00  0.00    +0.000 A 
ATOM     27  C   UNL     1       2.441   1.726  19.016  0.00  0.00    +0.000 A 
ATOM     28  C   UNL     1       3.338   2.369  19.863  0.00  0.00    +0.000 A 
ATOM     29  C   UNL     1       3.010   3.600  20.445  0.00  0.00    +0.000 A 
ENDBRANCH  23  24
ENDBRANCH  22  23
ENDBRANCH   5  22
TORSDOF 7
ENDMDL
MODEL 8
REMARK VINA RESULT:      -7.0      2.497      4.321
REMARK  Name = 
REMARK  7 active torsions:
REMARK  status: ('A' for Active; 'I' for Inactive)
REMARK    1  A    between atoms: C_2  and  C_3
REMARK    2  A    between atoms: C_3  and  S_4
REMARK    3  A    between atoms: S_4  and  C_5
REMARK    4  A    between atoms: C_8  and  C_9
REMARK    5  A    between atoms: N_15  and  C_16
REMARK    6  A    between atoms: C_16  and  C_17
REMARK    7  A    between atoms: C_17  and  C_18
REMARK                            x       y       z     vdW  Elec       q    Type
REMARK                         _______ _______ _______ _____ _____    ______ ____
ROOT
ATOM      1  C   UNL     1       1.791   7.835  19.765  0.00  0.00    +0.000 A 
ATOM      2  N   UNL     1       1.410   7.291  20.896  0.00  0.00    +0.000 NA
ATOM      3  N   UNL     1       1.685   5.941  20.824  0.00  0.00    +0.000 NA
ATOM      4  C   UNL     1       2.272   5.690  19.668  0.00  0.00    +0.000 A 
ATOM      5  N   UNL     1       2.306   6.869  18.937  0.00  0.00    +0.000 N 
ENDROOT
BRANCH   4   6
ATOM      6  C   UNL     1       2.753   4.372  19.238  0.00  0.00    +0.000 A 
ATOM      7  C   UNL     1       4.011   3.893  19.615  0.00  0.00    +0.000 A 
ATOM      8  C   UNL     1       4.433   2.628  19.191  0.00  0.00    +0.000 A 
ATOM      9  C   UNL     1       3.581   1.881  18.394  0.00  0.00    +0.000 A 
ATOM     10  N   UNL     1       2.368   2.310  18.002  0.00  0.00    +0.000 NA
ATOM     11  C   UNL     1       1.992   3.541  18.420  0.00  0.00    +0.000 A 
ENDBRANCH   4   6
BRANCH   1  12
ATOM     12  S   UNL     1       1.500   9.491  19.329  0.00  0.00    +0.000 S 
BRANCH  12  13
ATOM     13  C   UNL     1       0.422  10.078  20.681  0.00  0.00    +0.000 C 
BRANCH  13  15
ATOM     14  O   UNL     1      -1.162  10.813  19.003  0.00  0.00    +0.000 OA
ATOM     15  C   UNL     1      -0.758  10.907  20.167  0.00  0.00    +0.000 C 
ATOM     16  N   UNL     1      -1.382  11.776  21.058  0.00  0.00    +0.000 N 
ATOM     17  C   UNL     1      -1.095  11.887  22.487  0.00  0.00    +0.000 C 
ATOM     18  C   UNL     1      -2.388  11.848  23.303  0.00  0.00    +0.000 C 
ATOM     19  C   UNL     1      -3.390  12.900  22.824  0.00  0.00    +0.000 C 
ATOM     20  C   UNL     1      -3.636  12.782  21.325  0.00  0.00    +0.000 C 
ATOM     21  C   UNL     1      -2.331  12.762  20.534  0.00  0.00    +0.000 C 
ENDBRANCH  13  15
ENDBRANCH  12  13
ENDBRANCH   1  12
BRANCH   5  22
ATOM     22  C   UNL     1       2.691   7.009  17.543  0.00  0.00    +0.000 C 
BRANCH  22  23
ATOM     23  C   UNL     1       4.140   7.472  17.389  0.00  0.00    +0.000 C 
BRANCH  23  24
ATOM     24  C   UNL     1       5.157   6.412  17.045  0.00  0.00    +0.000 A 
ATOM     25  C   UNL     1       6.417   6.493  17.653  0.00  0.00    +0.000 A 
ATOM     26  C   UNL     1       7.350   5.468  17.510  0.00  0.00    +0.000 A 
ATOM     27  C   UNL     1       7.034   4.350  16.743  0.00  0.00    +0.000 A 
ATOM     28  C   UNL     1       5.801   4.275  16.103  0.00  0.00    +0.000 A 
ATOM     29  C   UNL     1       4.859   5.301  16.251  0.00  0.00    +0.000 A 
ENDBRANCH  23  24
ENDBRANCH  22  23
ENDBRANCH   5  22
TORSDOF 7
ENDMDL
MODEL 9
REMARK VINA RESULT:      -7.0      2.563      3.599
REMARK  Name = 
REMARK  7 active torsions:
REMARK  status: ('A' for Active; 'I' for Inactive)
REMARK    1  A    between atoms: C_2  and  C_3
REMARK    2  A    between atoms: C_3  and  S_4
REMARK    3  A    between atoms: S_4  and  C_5
REMARK    4  A    between atoms: C_8  and  C_9
REMARK    5  A    between atoms: N_15  and  C_16
REMARK    6  A    between atoms: C_16  and  C_17
REMARK    7  A    between atoms: C_17  and  C_18
REMARK                            x       y       z     vdW  Elec       q    Type
REMARK                         _______ _______ _______ _____ _____    ______ ____
ROOT
ATOM      1  C   UNL     1       1.779   8.265  19.160  0.00  0.00    +0.000 A 
ATOM      2  N   UNL     1       2.223   8.927  18.118  0.00  0.00    +0.000 NA
ATOM      3  N   UNL     1       3.262   8.202  17.573  0.00  0.00    +0.000 NA
ATOM      4  C   UNL     1       3.407   7.085  18.263  0.00  0.00    +0.000 A 
ATOM      5  N   UNL     1       2.511   7.115  19.323  0.00  0.00    +0.000 N 
ENDROOT
BRANCH   4   6
ATOM      6  C   UNL     1       4.385   6.033  17.964  0.00  0.00    +0.000 A 
ATOM      7  C   UNL     1       4.314   5.280  16.788  0.00  0.00    +0.000 A 
ATOM      8  C   UNL     1       5.269   4.289  16.534  0.00  0.00    +0.000 A 
ATOM      9  C   UNL     1       6.265   4.078  17.473  0.00  0.00    +0.000 A 
ATOM     10  N   UNL     1       6.362   4.773  18.620  0.00  0.00    +0.000 NA
ATOM     11  C   UNL     1       5.419   5.718  18.842  0.00  0.00    +0.000 A 
ENDBRANCH   4   6
BRANCH   1  12
ATOM     12  S   UNL     1       0.579   8.864  20.262  0.00  0.00    +0.000 S 
BRANCH  12  13
ATOM     13  C   UNL     1       0.267  10.551  19.636  0.00  0.00    +0.000 C 
BRANCH  13  15
ATOM     14  O   UNL     1       0.803  11.505  21.796  0.00  0.00    +0.000 OA
ATOM     15  C   UNL     1       0.826  11.630  20.568  0.00  0.00    +0.000 C 
ATOM     16  N   UNL     1       1.376  12.771  19.989  0.00  0.00    +0.000 N 
ATOM     17  C   UNL     1       1.586  12.988  18.559  0.00  0.00    +0.000 C 
ATOM     18  C   UNL     1       3.010  13.479  18.290  0.00  0.00    +0.000 C 
ATOM     19  C   UNL     1       3.347  14.715  19.125  0.00  0.00    +0.000 C 
ATOM     20  C   UNL     1       3.080  14.468  20.605  0.00  0.00    +0.000 C 
ATOM     21  C   UNL     1       1.676  13.922  20.846  0.00  0.00    +0.000 C 
ENDBRANCH  13  15
ENDBRANCH  12  13
ENDBRANCH   1  12
BRANCH   5  22
ATOM     22  C   UNL     1       2.461   6.182  20.435  0.00  0.00    +0.000 C 
BRANCH  22  23
ATOM     23  C   UNL     1       1.530   5.002  20.155  0.00  0.00    +0.000 C 
BRANCH  23  24
ATOM     24  C   UNL     1       2.168   3.755  19.594  0.00  0.00    +0.000 A 
ATOM     25  C   UNL     1       1.685   3.267  18.372  0.00  0.00    +0.000 A 
ATOM     26  C   UNL     1       2.325   2.218  17.714  0.00  0.00    +0.000 A 
ATOM     27  C   UNL     1       3.456   1.637  18.281  0.00  0.00    +0.000 A 
ATOM     28  C   UNL     1       3.923   2.088  19.511  0.00  0.00    +0.000 A 
ATOM     29  C   UNL     1       3.285   3.146  20.171  0.00  0.00    +0.000 A 
ENDBRANCH  23  24
ENDBRANCH  22  23
ENDBRANCH   5  22
TORSDOF 7
ENDMDL
