MODEL 1
REMARK VINA RESULT:      -6.6      0.000      0.000
REMARK  Name = 
REMARK  10 active torsions:
REMARK  status: ('A' for Active; 'I' for Inactive)
REMARK    1  A    between atoms: C_1  and  C_2
REMARK    2  A    between atoms: C_2  and  C_3
REMARK    3  A    between atoms: C_2  and  C_12
REMARK    4  A    between atoms: C_3  and  O_5
REMARK    5  A    between atoms: O_5  and  C_6
REMARK    6  A    between atoms: C_6  and  C_7
REMARK    7  A    between atoms: C_7  and  O_8
REMARK    8  A    between atoms: O_8  and  C_9
REMARK    9  A    between atoms: C_9  and  C_10
REMARK   10  A    between atoms: C_10  and  O_11
REMARK                            x       y       z     vdW  Elec       q    Type
REMARK                         _______ _______ _______ _____ _____    ______ ____
ROOT
ATOM      1  C   UNL     1       2.465   7.268  19.354  0.00  0.00    +0.000 A 
ATOM      2  C   UNL     1       2.225   7.815  18.087  0.00  0.00    +0.000 A 
ATOM      3  C   UNL     1       1.405   8.934  17.945  0.00  0.00    +0.000 A 
ATOM      4  C   UNL     1       0.786   9.520  19.062  0.00  0.00    +0.000 A 
ATOM      5  C   UNL     1       0.867   8.889  20.301  0.00  0.00    +0.000 A 
ATOM      6  C   UNL     1       1.752   7.790  20.443  0.00  0.00    +0.000 A 
ATOM      7  S   UNL     1      -0.294   9.103  21.646  0.00  0.00    +0.000 S 
ATOM      8  C   UNL     1      -0.181  10.868  21.997  0.00  0.00    +0.000 C 
ATOM      9  C   UNL     1      -0.832  11.766  20.929  0.00  0.00    +0.000 C 
ATOM     10  C   UNL     1      -1.103  13.168  21.490  0.00  0.00    +0.000 C 
ATOM     11  C   UNL     1       0.176  13.773  22.061  0.00  0.00    +0.000 C 
ATOM     12  C   UNL     1       1.352  13.740  21.071  0.00  0.00    +0.000 C 
ATOM     13  C   UNL     1       1.438  12.550  20.089  0.00  0.00    +0.000 C 
ATOM     14  C   UNL     1       0.059  11.962  19.702  0.00  0.00    +0.000 C 
ATOM     15  C   UNL     1       0.008  10.751  18.784  0.00  0.00    +0.000 C 
ATOM     16  O   UNL     1      -0.682  10.780  17.758  0.00  0.00    +0.000 OA
ENDROOT
BRANCH   1  18
ATOM     17  C   UNL     1       2.758   4.929  20.240  0.00  0.00    +0.000 C 
ATOM     18  C   UNL     1       3.444   6.113  19.542  0.00  0.00    +0.000 C 
BRANCH  18  19
ATOM     19  C   UNL     1       4.062   5.628  18.229  0.00  0.00    +0.000 C 
ATOM     20  O   UNL     1       3.494   5.007  17.338  0.00  0.00    +0.000 OA
BRANCH  19  21
ATOM     21  O   UNL     1       5.398   5.908  18.211  0.00  0.00    +0.000 OA
BRANCH  21  22
ATOM     22  C   UNL     1       6.221   4.772  18.489  0.00  0.00    +0.000 C 
BRANCH  22  23
ATOM     23  C   UNL     1       7.537   4.764  17.729  0.00  0.00    +0.000 C 
BRANCH  23  24
ATOM     24  O   UNL     1       7.320   5.481  16.508  0.00  0.00    +0.000 OA
BRANCH  24  25
ATOM     25  C   UNL     1       7.051   4.613  15.404  0.00  0.00    +0.000 C 
BRANCH  25  26
ATOM     26  C   UNL     1       5.736   5.053  14.764  0.00  0.00    +0.000 C 
BRANCH  26  27
ATOM     27  O   UNL     1       5.382   6.362  15.207  0.00  0.00    +0.000 OA
ATOM     28  H   UNL     1       4.662   6.650  14.612  0.00  0.00    +0.000 HD
ENDBRANCH  26  27
ENDBRANCH  25  26
ENDBRANCH  24  25
ENDBRANCH  23  24
ENDBRANCH  22  23
ENDBRANCH  21  22
ENDBRANCH  19  21
ENDBRANCH  18  19
ENDBRANCH   1  18
TORSDOF 9
ENDMDL
MODEL 2
REMARK VINA RESULT:      -6.4      2.175      3.299
REMARK  Name = 
REMARK  10 active torsions:
REMARK  status: ('A' for Active; 'I' for Inactive)
REMARK    1  A    between atoms: C_1  and  C_2
REMARK    2  A    between atoms: C_2  and  C_3
REMARK    3  A    between atoms: C_2  and  C_12
REMARK    4  A    between atoms: C_3  and  O_5
REMARK    5  A    between atoms: O_5  and  C_6
REMARK    6  A    between atoms: C_6  and  C_7
REMARK    7  A    between atoms: C_7  and  O_8
REMARK    8  A    between atoms: O_8  and  C_9
REMARK    9  A    between atoms: C_9  and  C_10
REMARK   10  A    between atoms: C_10  and  O_11
REMARK                            x       y       z     vdW  Elec       q    Type
REMARK                         _______ _______ _______ _____ _____    ______ ____
ROOT
ATOM      1  C   UNL     1       2.175   5.569  19.275  0.00  0.00    +0.000 A 
ATOM      2  C   UNL     1       1.838   5.740  20.624  0.00  0.00    +0.000 A 
ATOM      3  C   UNL     1       1.524   7.004  21.118  0.00  0.00    +0.000 A 
ATOM      4  C   UNL     1       1.561   8.135  20.285  0.00  0.00    +0.000 A 
ATOM      5  C   UNL     1       2.063   8.016  18.991  0.00  0.00    +0.000 A 
ATOM      6  C   UNL     1       2.319   6.718  18.482  0.00  0.00    +0.000 A 
ATOM      7  S   UNL     1       2.750   9.356  18.024  0.00  0.00    +0.000 S 
ATOM      8  C   UNL     1       1.370  10.510  17.900  0.00  0.00    +0.000 C 
ATOM      9  C   UNL     1       1.051  11.254  19.209  0.00  0.00    +0.000 C 
ATOM     10  C   UNL     1       0.209  12.507  18.932  0.00  0.00    +0.000 C 
ATOM     11  C   UNL     1      -1.047  12.145  18.145  0.00  0.00    +0.000 C 
ATOM     12  C   UNL     1      -1.857  11.009  18.793  0.00  0.00    +0.000 C 
ATOM     13  C   UNL     1      -1.081   9.908  19.550  0.00  0.00    +0.000 C 
ATOM     14  C   UNL     1       0.240  10.404  20.187  0.00  0.00    +0.000 C 
ATOM     15  C   UNL     1       1.125   9.404  20.915  0.00  0.00    +0.000 C 
ATOM     16  O   UNL     1       1.490   9.628  22.075  0.00  0.00    +0.000 OA
ENDROOT
BRANCH   1  18
ATOM     17  C   UNL     1       1.605   3.987  17.400  0.00  0.00    +0.000 C 
ATOM     18  C   UNL     1       2.415   4.181  18.690  0.00  0.00    +0.000 C 
BRANCH  18  19
ATOM     19  C   UNL     1       3.891   3.898  18.400  0.00  0.00    +0.000 C 
ATOM     20  O   UNL     1       4.791   3.793  19.224  0.00  0.00    +0.000 OA
BRANCH  19  21
ATOM     21  O   UNL     1       4.102   3.862  17.051  0.00  0.00    +0.000 OA
BRANCH  21  22
ATOM     22  C   UNL     1       5.277   4.566  16.641  0.00  0.00    +0.000 C 
BRANCH  22  23
ATOM     23  C   UNL     1       5.103   6.075  16.585  0.00  0.00    +0.000 C 
BRANCH  23  24
ATOM     24  O   UNL     1       6.021   6.638  17.529  0.00  0.00    +0.000 OA
BRANCH  24  25
ATOM     25  C   UNL     1       7.287   5.974  17.525  0.00  0.00    +0.000 C 
BRANCH  25  26
ATOM     26  C   UNL     1       7.870   6.053  18.935  0.00  0.00    +0.000 C 
BRANCH  26  27
ATOM     27  O   UNL     1       6.990   5.432  19.871  0.00  0.00    +0.000 OA
ATOM     28  H   UNL     1       7.540   4.779  20.348  0.00  0.00    +0.000 HD
ENDBRANCH  26  27
ENDBRANCH  25  26
ENDBRANCH  24  25
ENDBRANCH  23  24
ENDBRANCH  22  23
ENDBRANCH  21  22
ENDBRANCH  19  21
ENDBRANCH  18  19
ENDBRANCH   1  18
TORSDOF 9
ENDMDL
MODEL 3
REMARK VINA RESULT:      -6.3      0.968      1.034
REMARK  Name = 
REMARK  10 active torsions:
REMARK  status: ('A' for Active; 'I' for Inactive)
REMARK    1  A    between atoms: C_1  and  C_2
REMARK    2  A    between atoms: C_2  and  C_3
REMARK    3  A    between atoms: C_2  and  C_12
REMARK    4  A    between atoms: C_3  and  O_5
REMARK    5  A    between atoms: O_5  and  C_6
REMARK    6  A    between atoms: C_6  and  C_7
REMARK    7  A    between atoms: C_7  and  O_8
REMARK    8  A    between atoms: O_8  and  C_9
REMARK    9  A    between atoms: C_9  and  C_10
REMARK   10  A    between atoms: C_10  and  O_11
REMARK                            x       y       z     vdW  Elec       q    Type
REMARK                         _______ _______ _______ _____ _____    ______ ____
ROOT
ATOM      1  C   UNL     1       2.367   7.623  19.166  0.00  0.00    +0.000 A 
ATOM      2  C   UNL     1       2.005   8.215  17.949  0.00  0.00    +0.000 A 
ATOM      3  C   UNL     1       1.105   9.278  17.921  0.00  0.00    +0.000 A 
ATOM      4  C   UNL     1       0.524   9.763  19.106  0.00  0.00    +0.000 A 
ATOM      5  C   UNL     1       0.731   9.077  20.301  0.00  0.00    +0.000 A 
ATOM      6  C   UNL     1       1.695   8.038  20.325  0.00  0.00    +0.000 A 
ATOM      7  S   UNL     1      -0.349   9.141  21.726  0.00  0.00    +0.000 S 
ATOM      8  C   UNL     1      -0.332  10.890  22.166  0.00  0.00    +0.000 C 
ATOM      9  C   UNL     1      -1.112  11.792  21.192  0.00  0.00    +0.000 C 
ATOM     10  C   UNL     1      -1.438  13.142  21.845  0.00  0.00    +0.000 C 
ATOM     11  C   UNL     1      -0.168  13.806  22.366  0.00  0.00    +0.000 C 
ATOM     12  C   UNL     1       0.939  13.906  21.302  0.00  0.00    +0.000 C 
ATOM     13  C   UNL     1       1.038  12.776  20.253  0.00  0.00    +0.000 C 
ATOM     14  C   UNL     1      -0.321  12.112  19.924  0.00  0.00    +0.000 C 
ATOM     15  C   UNL     1      -0.352  10.948  18.945  0.00  0.00    +0.000 C 
ATOM     16  O   UNL     1      -1.110  10.979  17.969  0.00  0.00    +0.000 OA
ENDROOT
BRANCH   1  18
ATOM     17  C   UNL     1       2.835   5.222  19.765  0.00  0.00    +0.000 C 
ATOM     18  C   UNL     1       3.431   6.532  19.228  0.00  0.00    +0.000 C 
BRANCH  18  19
ATOM     19  C   UNL     1       4.095   6.261  17.876  0.00  0.00    +0.000 C 
ATOM     20  O   UNL     1       3.883   5.310  17.135  0.00  0.00    +0.000 OA
BRANCH  19  21
ATOM     21  O   UNL     1       5.053   7.203  17.630  0.00  0.00    +0.000 OA
BRANCH  21  22
ATOM     22  C   UNL     1       6.081   6.751  16.745  0.00  0.00    +0.000 C 
BRANCH  22  23
ATOM     23  C   UNL     1       7.206   6.000  17.439  0.00  0.00    +0.000 C 
BRANCH  23  24
ATOM     24  O   UNL     1       7.531   4.876  16.614  0.00  0.00    +0.000 OA
BRANCH  24  25
ATOM     25  C   UNL     1       6.980   4.984  15.299  0.00  0.00    +0.000 C 
BRANCH  25  26
ATOM     26  C   UNL     1       6.175   3.718  15.016  0.00  0.00    +0.000 C 
BRANCH  26  27
ATOM     27  O   UNL     1       5.665   3.172  16.232  0.00  0.00    +0.000 OA
ATOM     28  H   UNL     1       4.987   3.807  16.535  0.00  0.00    +0.000 HD
ENDBRANCH  26  27
ENDBRANCH  25  26
ENDBRANCH  24  25
ENDBRANCH  23  24
ENDBRANCH  22  23
ENDBRANCH  21  22
ENDBRANCH  19  21
ENDBRANCH  18  19
ENDBRANCH   1  18
TORSDOF 9
ENDMDL
MODEL 4
REMARK VINA RESULT:      -6.2      2.688      8.314
REMARK  Name = 
REMARK  10 active torsions:
REMARK  status: ('A' for Active; 'I' for Inactive)
REMARK    1  A    between atoms: C_1  and  C_2
REMARK    2  A    between atoms: C_2  and  C_3
REMARK    3  A    between atoms: C_2  and  C_12
REMARK    4  A    between atoms: C_3  and  O_5
REMARK    5  A    between atoms: O_5  and  C_6
REMARK    6  A    between atoms: C_6  and  C_7
REMARK    7  A    between atoms: C_7  and  O_8
REMARK    8  A    between atoms: O_8  and  C_9
REMARK    9  A    between atoms: C_9  and  C_10
REMARK   10  A    between atoms: C_10  and  O_11
REMARK                            x       y       z     vdW  Elec       q    Type
REMARK                         _______ _______ _______ _____ _____    ______ ____
ROOT
ATOM      1  C   UNL     1       1.313   7.727  20.706  0.00  0.00    +0.000 A 
ATOM      2  C   UNL     1       1.213   6.397  21.135  0.00  0.00    +0.000 A 
ATOM      3  C   UNL     1       1.928   5.391  20.487  0.00  0.00    +0.000 A 
ATOM      4  C   UNL     1       2.742   5.683  19.380  0.00  0.00    +0.000 A 
ATOM      5  C   UNL     1       2.717   6.962  18.829  0.00  0.00    +0.000 A 
ATOM      6  C   UNL     1       2.036   7.987  19.532  0.00  0.00    +0.000 A 
ATOM      7  S   UNL     1       3.161   7.367  17.143  0.00  0.00    +0.000 S 
ATOM      8  C   UNL     1       4.881   6.834  17.041  0.00  0.00    +0.000 C 
ATOM      9  C   UNL     1       5.066   5.306  17.012  0.00  0.00    +0.000 C 
ATOM     10  C   UNL     1       6.456   4.937  16.477  0.00  0.00    +0.000 C 
ATOM     11  C   UNL     1       7.543   5.642  17.282  0.00  0.00    +0.000 C 
ATOM     12  C   UNL     1       7.407   5.424  18.798  0.00  0.00    +0.000 C 
ATOM     13  C   UNL     1       5.984   5.290  19.384  0.00  0.00    +0.000 C 
ATOM     14  C   UNL     1       4.961   4.673  18.400  0.00  0.00    +0.000 C 
ATOM     15  C   UNL     1       3.510   4.538  18.837  0.00  0.00    +0.000 C 
ATOM     16  O   UNL     1       2.941   3.442  18.762  0.00  0.00    +0.000 OA
ENDROOT
BRANCH   1  18
ATOM     17  C   UNL     1       1.463   9.279  22.683  0.00  0.00    +0.000 C 
ATOM     18  C   UNL     1       0.625   8.856  21.467  0.00  0.00    +0.000 C 
BRANCH  18  19
ATOM     19  C   UNL     1       0.349  10.086  20.599  0.00  0.00    +0.000 C 
ATOM     20  O   UNL     1       1.030  11.101  20.532  0.00  0.00    +0.000 OA
BRANCH  19  21
ATOM     21  O   UNL     1      -0.843   9.939  19.949  0.00  0.00    +0.000 OA
BRANCH  21  22
ATOM     22  C   UNL     1      -0.793  10.329  18.574  0.00  0.00    +0.000 C 
BRANCH  22  23
ATOM     23  C   UNL     1      -2.160  10.502  17.932  0.00  0.00    +0.000 C 
BRANCH  23  24
ATOM     24  O   UNL     1      -1.997  10.262  16.530  0.00  0.00    +0.000 OA
BRANCH  24  25
ATOM     25  C   UNL     1      -3.006  10.902  15.744  0.00  0.00    +0.000 C 
BRANCH  25  26
ATOM     26  C   UNL     1      -4.279  10.986  16.583  0.00  0.00    +0.000 C 
BRANCH  26  27
ATOM     27  O   UNL     1      -4.722  12.339  16.678  0.00  0.00    +0.000 OA
ATOM     28  H   UNL     1      -3.969  12.879  16.370  0.00  0.00    +0.000 HD
ENDBRANCH  26  27
ENDBRANCH  25  26
ENDBRANCH  24  25
ENDBRANCH  23  24
ENDBRANCH  22  23
ENDBRANCH  21  22
ENDBRANCH  19  21
ENDBRANCH  18  19
ENDBRANCH   1  18
TORSDOF 9
ENDMDL
MODEL 5
REMARK VINA RESULT:      -6.1      3.036      9.269
REMARK  Name = 
REMARK  10 active torsions:
REMARK  status: ('A' for Active; 'I' for Inactive)
REMARK    1  A    between atoms: C_1  and  C_2
REMARK    2  A    between atoms: C_2  and  C_3
REMARK    3  A    between atoms: C_2  and  C_12
REMARK    4  A    between atoms: C_3  and  O_5
REMARK    5  A    between atoms: O_5  and  C_6
REMARK    6  A    between atoms: C_6  and  C_7
REMARK    7  A    between atoms: C_7  and  O_8
REMARK    8  A    between atoms: O_8  and  C_9
REMARK    9  A    between atoms: C_9  and  C_10
REMARK   10  A    between atoms: C_10  and  O_11
REMARK                            x       y       z     vdW  Elec       q    Type
REMARK                         _______ _______ _______ _____ _____    ______ ____
ROOT
ATOM      1  C   UNL     1       1.091   9.629  19.011  0.00  0.00    +0.000 A 
ATOM      2  C   UNL     1       1.931   9.549  17.893  0.00  0.00    +0.000 A 
ATOM      3  C   UNL     1       2.696   8.407  17.665  0.00  0.00    +0.000 A 
ATOM      4  C   UNL     1       2.659   7.323  18.560  0.00  0.00    +0.000 A 
ATOM      5  C   UNL     1       1.971   7.453  19.764  0.00  0.00    +0.000 A 
ATOM      6  C   UNL     1       1.150   8.592  19.955  0.00  0.00    +0.000 A 
ATOM      7  S   UNL     1       2.292   6.496  21.242  0.00  0.00    +0.000 S 
ATOM      8  C   UNL     1       1.995   4.803  20.698  0.00  0.00    +0.000 C 
ATOM      9  C   UNL     1       3.084   4.240  19.767  0.00  0.00    +0.000 C 
ATOM     10  C   UNL     1       3.017   2.708  19.716  0.00  0.00    +0.000 C 
ATOM     11  C   UNL     1       1.617   2.246  19.324  0.00  0.00    +0.000 C 
ATOM     12  C   UNL     1       1.102   2.911  18.037  0.00  0.00    +0.000 C 
ATOM     13  C   UNL     1       1.539   4.365  17.750  0.00  0.00    +0.000 C 
ATOM     14  C   UNL     1       2.932   4.721  18.324  0.00  0.00    +0.000 C 
ATOM     15  C   UNL     1       3.455   6.139  18.157  0.00  0.00    +0.000 C 
ATOM     16  O   UNL     1       4.568   6.334  17.655  0.00  0.00    +0.000 OA
ENDROOT
BRANCH   1  18
ATOM     17  C   UNL     1      -1.283  10.457  18.870  0.00  0.00    +0.000 C 
ATOM     18  C   UNL     1       0.166  10.824  19.221  0.00  0.00    +0.000 C 
BRANCH  18  19
ATOM     19  C   UNL     1       0.210  11.376  20.647  0.00  0.00    +0.000 C 
ATOM     20  O   UNL     1       1.175  11.883  21.206  0.00  0.00    +0.000 OA
BRANCH  19  21
ATOM     21  O   UNL     1      -0.983  11.146  21.273  0.00  0.00    +0.000 OA
BRANCH  21  22
ATOM     22  C   UNL     1      -0.966  11.474  22.665  0.00  0.00    +0.000 C 
BRANCH  22  23
ATOM     23  C   UNL     1      -1.991  12.525  23.061  0.00  0.00    +0.000 C 
BRANCH  23  24
ATOM     24  O   UNL     1      -3.194  11.828  23.403  0.00  0.00    +0.000 OA
BRANCH  24  25
ATOM     25  C   UNL     1      -3.995  12.546  24.346  0.00  0.00    +0.000 C 
BRANCH  25  26
ATOM     26  C   UNL     1      -3.545  14.005  24.336  0.00  0.00    +0.000 C 
BRANCH  26  27
ATOM     27  O   UNL     1      -3.448  14.503  25.670  0.00  0.00    +0.000 OA
ATOM     28  H   UNL     1      -3.641  13.737  26.246  0.00  0.00    +0.000 HD
ENDBRANCH  26  27
ENDBRANCH  25  26
ENDBRANCH  24  25
ENDBRANCH  23  24
ENDBRANCH  22  23
ENDBRANCH  21  22
ENDBRANCH  19  21
ENDBRANCH  18  19
ENDBRANCH   1  18
TORSDOF 9
ENDMDL
MODEL 6
REMARK VINA RESULT:      -6.1      1.677      2.351
REMARK  Name = 
REMARK  10 active torsions:
REMARK  status: ('A' for Active; 'I' for Inactive)
REMARK    1  A    between atoms: C_1  and  C_2
REMARK    2  A    between atoms: C_2  and  C_3
REMARK    3  A    between atoms: C_2  and  C_12
REMARK    4  A    between atoms: C_3  and  O_5
REMARK    5  A    between atoms: O_5  and  C_6
REMARK    6  A    between atoms: C_6  and  C_7
REMARK    7  A    between atoms: C_7  and  O_8
REMARK    8  A    between atoms: O_8  and  C_9
REMARK    9  A    between atoms: C_9  and  C_10
REMARK   10  A    between atoms: C_10  and  O_11
REMARK                            x       y       z     vdW  Elec       q    Type
REMARK                         _______ _______ _______ _____ _____    ______ ____
ROOT
ATOM      1  C   UNL     1       1.778   7.865  19.470  0.00  0.00    +0.000 A 
ATOM      2  C   UNL     1       1.599   8.427  18.199  0.00  0.00    +0.000 A 
ATOM      3  C   UNL     1       0.964   9.660  18.057  0.00  0.00    +0.000 A 
ATOM      4  C   UNL     1       0.471  10.352  19.177  0.00  0.00    +0.000 A 
ATOM      5  C   UNL     1       0.480   9.731  20.424  0.00  0.00    +0.000 A 
ATOM      6  C   UNL     1       1.182   8.508  20.565  0.00  0.00    +0.000 A 
ATOM      7  S   UNL     1      -0.601  10.144  21.789  0.00  0.00    +0.000 S 
ATOM      8  C   UNL     1      -0.201  11.873  22.109  0.00  0.00    +0.000 C 
ATOM      9  C   UNL     1      -0.725  12.850  21.041  0.00  0.00    +0.000 C 
ATOM     10  C   UNL     1      -0.757  14.284  21.585  0.00  0.00    +0.000 C 
ATOM     11  C   UNL     1       0.614  14.685  22.120  0.00  0.00    +0.000 C 
ATOM     12  C   UNL     1       1.747  14.453  21.106  0.00  0.00    +0.000 C 
ATOM     13  C   UNL     1       1.620  13.252  20.141  0.00  0.00    +0.000 C 
ATOM     14  C   UNL     1       0.157  12.886  19.793  0.00  0.00    +0.000 C 
ATOM     15  C   UNL     1      -0.107  11.687  18.895  0.00  0.00    +0.000 C 
ATOM     16  O   UNL     1      -0.808  11.812  17.884  0.00  0.00    +0.000 OA
ENDROOT
BRANCH   1  18
ATOM     17  C   UNL     1       1.848   5.637  20.642  0.00  0.00    +0.000 C 
ATOM     18  C   UNL     1       2.565   6.571  19.656  0.00  0.00    +0.000 C 
BRANCH  18  19
ATOM     19  C   UNL     1       2.808   5.821  18.345  0.00  0.00    +0.000 C 
ATOM     20  O   UNL     1       2.017   5.087  17.765  0.00  0.00    +0.000 OA
BRANCH  19  21
ATOM     21  O   UNL     1       4.096   6.009  17.932  0.00  0.00    +0.000 OA
BRANCH  21  22
ATOM     22  C   UNL     1       5.062   5.378  18.777  0.00  0.00    +0.000 C 
BRANCH  22  23
ATOM     23  C   UNL     1       5.351   3.931  18.409  0.00  0.00    +0.000 C 
BRANCH  23  24
ATOM     24  O   UNL     1       5.112   3.145  19.582  0.00  0.00    +0.000 OA
BRANCH  24  25
ATOM     25  C   UNL     1       3.775   2.640  19.640  0.00  0.00    +0.000 C 
BRANCH  25  26
ATOM     26  C   UNL     1       3.545   1.764  18.410  0.00  0.00    +0.000 C 
BRANCH  26  27
ATOM     27  O   UNL     1       2.211   1.922  17.931  0.00  0.00    +0.000 OA
ATOM     28  H   UNL     1       1.643   1.492  18.601  0.00  0.00    +0.000 HD
ENDBRANCH  26  27
ENDBRANCH  25  26
ENDBRANCH  24  25
ENDBRANCH  23  24
ENDBRANCH  22  23
ENDBRANCH  21  22
ENDBRANCH  19  21
ENDBRANCH  18  19
ENDBRANCH   1  18
TORSDOF 9
ENDMDL
MODEL 7
REMARK VINA RESULT:      -6.1      2.326      3.490
REMARK  Name = 
REMARK  10 active torsions:
REMARK  status: ('A' for Active; 'I' for Inactive)
REMARK    1  A    between atoms: C_1  and  C_2
REMARK    2  A    between atoms: C_2  and  C_3
REMARK    3  A    between atoms: C_2  and  C_12
REMARK    4  A    between atoms: C_3  and  O_5
REMARK    5  A    between atoms: O_5  and  C_6
REMARK    6  A    between atoms: C_6  and  C_7
REMARK    7  A    between atoms: C_7  and  O_8
REMARK    8  A    between atoms: O_8  and  C_9
REMARK    9  A    between atoms: C_9  and  C_10
REMARK   10  A    between atoms: C_10  and  O_11
REMARK                            x       y       z     vdW  Elec       q    Type
REMARK                         _______ _______ _______ _____ _____    ______ ____
ROOT
ATOM      1  C   UNL     1       2.014   5.530  19.671  0.00  0.00    +0.000 A 
ATOM      2  C   UNL     1       1.685   5.853  20.994  0.00  0.00    +0.000 A 
ATOM      3  C   UNL     1       1.397   7.169  21.349  0.00  0.00    +0.000 A 
ATOM      4  C   UNL     1       1.452   8.201  20.397  0.00  0.00    +0.000 A 
ATOM      5  C   UNL     1       1.947   7.933  19.123  0.00  0.00    +0.000 A 
ATOM      6  C   UNL     1       2.178   6.582  18.758  0.00  0.00    +0.000 A 
ATOM      7  S   UNL     1       2.656   9.147  18.015  0.00  0.00    +0.000 S 
ATOM      8  C   UNL     1       1.297  10.306  17.767  0.00  0.00    +0.000 C 
ATOM      9  C   UNL     1       0.996  11.194  18.988  0.00  0.00    +0.000 C 
ATOM     10  C   UNL     1       0.177  12.425  18.577  0.00  0.00    +0.000 C 
ATOM     11  C   UNL     1      -1.088  12.003  17.836  0.00  0.00    +0.000 C 
ATOM     12  C   UNL     1      -1.916  10.960  18.605  0.00  0.00    +0.000 C 
ATOM     13  C   UNL     1      -1.159   9.934  19.477  0.00  0.00    +0.000 C 
ATOM     14  C   UNL     1       0.173  10.471  20.055  0.00  0.00    +0.000 C 
ATOM     15  C   UNL     1       1.042   9.539  20.885  0.00  0.00    +0.000 C 
ATOM     16  O   UNL     1       1.414   9.882  22.014  0.00  0.00    +0.000 OA
ENDROOT
BRANCH   1  18
ATOM     17  C   UNL     1       1.148   3.172  19.847  0.00  0.00    +0.000 C 
ATOM     18  C   UNL     1       2.227   4.082  19.241  0.00  0.00    +0.000 C 
BRANCH  18  19
ATOM     19  C   UNL     1       2.238   3.901  17.722  0.00  0.00    +0.000 C 
ATOM     20  O   UNL     1       1.288   4.040  16.962  0.00  0.00    +0.000 OA
BRANCH  19  21
ATOM     21  O   UNL     1       3.466   3.463  17.314  0.00  0.00    +0.000 OA
BRANCH  21  22
ATOM     22  C   UNL     1       4.114   4.356  16.404  0.00  0.00    +0.000 C 
BRANCH  22  23
ATOM     23  C   UNL     1       5.278   5.120  17.015  0.00  0.00    +0.000 C 
BRANCH  23  24
ATOM     24  O   UNL     1       5.700   4.385  18.170  0.00  0.00    +0.000 OA
BRANCH  24  25
ATOM     25  C   UNL     1       5.967   5.232  19.291  0.00  0.00    +0.000 C 
BRANCH  25  26
ATOM     26  C   UNL     1       7.445   5.616  19.254  0.00  0.00    +0.000 C 
BRANCH  26  27
ATOM     27  O   UNL     1       8.033   5.445  20.543  0.00  0.00    +0.000 OA
ATOM     28  H   UNL     1       7.406   5.856  21.170  0.00  0.00    +0.000 HD
ENDBRANCH  26  27
ENDBRANCH  25  26
ENDBRANCH  24  25
ENDBRANCH  23  24
ENDBRANCH  22  23
ENDBRANCH  21  22
ENDBRANCH  19  21
ENDBRANCH  18  19
ENDBRANCH   1  18
TORSDOF 9
ENDMDL
MODEL 8
REMARK VINA RESULT:      -6.1      3.036      8.221
REMARK  Name = 
REMARK  10 active torsions:
REMARK  status: ('A' for Active; 'I' for Inactive)
REMARK    1  A    between atoms: C_1  and  C_2
REMARK    2  A    between atoms: C_2  and  C_3
REMARK    3  A    between atoms: C_2  and  C_12
REMARK    4  A    between atoms: C_3  and  O_5
REMARK    5  A    between atoms: O_5  and  C_6
REMARK    6  A    between atoms: C_6  and  C_7
REMARK    7  A    between atoms: C_7  and  O_8
REMARK    8  A    between atoms: O_8  and  C_9
REMARK    9  A    between atoms: C_9  and  C_10
REMARK   10  A    between atoms: C_10  and  O_11
REMARK                            x       y       z     vdW  Elec       q    Type
REMARK                         _______ _______ _______ _____ _____    ______ ____
ROOT
ATOM      1  C   UNL     1       0.830   9.504  19.239  0.00  0.00    +0.000 A 
ATOM      2  C   UNL     1       1.624   9.554  18.085  0.00  0.00    +0.000 A 
ATOM      3  C   UNL     1       2.461   8.488  17.759  0.00  0.00    +0.000 A 
ATOM      4  C   UNL     1       2.546   7.357  18.587  0.00  0.00    +0.000 A 
ATOM      5  C   UNL     1       1.905   7.364  19.824  0.00  0.00    +0.000 A 
ATOM      6  C   UNL     1       1.010   8.424  20.115  0.00  0.00    +0.000 A 
ATOM      7  S   UNL     1       2.362   6.353  21.228  0.00  0.00    +0.000 S 
ATOM      8  C   UNL     1       2.169   4.675  20.596  0.00  0.00    +0.000 C 
ATOM      9  C   UNL     1       3.255   4.252  19.590  0.00  0.00    +0.000 C 
ATOM     10  C   UNL     1       3.301   2.725  19.451  0.00  0.00    +0.000 C 
ATOM     11  C   UNL     1       1.924   2.178  19.088  0.00  0.00    +0.000 C 
ATOM     12  C   UNL     1       1.304   2.874  17.864  0.00  0.00    +0.000 C 
ATOM     13  C   UNL     1       1.617   4.371  17.648  0.00  0.00    +0.000 C 
ATOM     14  C   UNL     1       3.003   4.801  18.186  0.00  0.00    +0.000 C 
ATOM     15  C   UNL     1       3.410   6.263  18.083  0.00  0.00    +0.000 C 
ATOM     16  O   UNL     1       4.482   6.572  17.550  0.00  0.00    +0.000 OA
ENDROOT
BRANCH   1  18
ATOM     17  C   UNL     1       0.493  11.725  20.378  0.00  0.00    +0.000 C 
ATOM     18  C   UNL     1      -0.171  10.610  19.556  0.00  0.00    +0.000 C 
BRANCH  18  19
ATOM     19  C   UNL     1      -0.807  11.222  18.306  0.00  0.00    +0.000 C 
ATOM     20  O   UNL     1      -1.061  12.406  18.120  0.00  0.00    +0.000 OA
BRANCH  19  21
ATOM     21  O   UNL     1      -1.149  10.236  17.426  0.00  0.00    +0.000 OA
BRANCH  21  22
ATOM     22  C   UNL     1      -2.544  10.212  17.112  0.00  0.00    +0.000 C 
BRANCH  22  23
ATOM     23  C   UNL     1      -2.907  10.998  15.862  0.00  0.00    +0.000 C 
BRANCH  23  24
ATOM     24  O   UNL     1      -3.660  10.118  15.019  0.00  0.00    +0.000 OA
BRANCH  24  25
ATOM     25  C   UNL     1      -3.044   9.923  13.743  0.00  0.00    +0.000 C 
BRANCH  25  26
ATOM     26  C   UNL     1      -4.149   9.762  12.702  0.00  0.00    +0.000 C 
BRANCH  26  27
ATOM     27  O   UNL     1      -3.589   9.689  11.391  0.00  0.00    +0.000 OA
ATOM     28  H   UNL     1      -4.107  10.320  10.854  0.00  0.00    +0.000 HD
ENDBRANCH  26  27
ENDBRANCH  25  26
ENDBRANCH  24  25
ENDBRANCH  23  24
ENDBRANCH  22  23
ENDBRANCH  21  22
ENDBRANCH  19  21
ENDBRANCH  18  19
ENDBRANCH   1  18
TORSDOF 9
ENDMDL
MODEL 9
REMARK VINA RESULT:      -6.0      2.220      8.542
REMARK  Name = 
REMARK  10 active torsions:
REMARK  status: ('A' for Active; 'I' for Inactive)
REMARK    1  A    between atoms: C_1  and  C_2
REMARK    2  A    between atoms: C_2  and  C_3
REMARK    3  A    between atoms: C_2  and  C_12
REMARK    4  A    between atoms: C_3  and  O_5
REMARK    5  A    between atoms: O_5  and  C_6
REMARK    6  A    between atoms: C_6  and  C_7
REMARK    7  A    between atoms: C_7  and  O_8
REMARK    8  A    between atoms: O_8  and  C_9
REMARK    9  A    between atoms: C_9  and  C_10
REMARK   10  A    between atoms: C_10  and  O_11
REMARK                            x       y       z     vdW  Elec       q    Type
REMARK                         _______ _______ _______ _____ _____    ______ ____
ROOT
ATOM      1  C   UNL     1       1.016   9.747  18.629  0.00  0.00    +0.000 A 
ATOM      2  C   UNL     1       1.985   9.591  17.629  0.00  0.00    +0.000 A 
ATOM      3  C   UNL     1       2.777   8.445  17.587  0.00  0.00    +0.000 A 
ATOM      4  C   UNL     1       2.639   7.436  18.555  0.00  0.00    +0.000 A 
ATOM      5  C   UNL     1       1.810   7.650  19.655  0.00  0.00    +0.000 A 
ATOM      6  C   UNL     1       0.967   8.790  19.653  0.00  0.00    +0.000 A 
ATOM      7  S   UNL     1       1.956   6.819  21.233  0.00  0.00    +0.000 S 
ATOM      8  C   UNL     1       1.734   5.084  20.795  0.00  0.00    +0.000 C 
ATOM      9  C   UNL     1       2.930   4.464  20.049  0.00  0.00    +0.000 C 
ATOM     10  C   UNL     1       2.878   2.932  20.114  0.00  0.00    +0.000 C 
ATOM     11  C   UNL     1       1.538   2.420  19.596  0.00  0.00    +0.000 C 
ATOM     12  C   UNL     1       1.178   2.974  18.207  0.00  0.00    +0.000 C 
ATOM     13  C   UNL     1       1.639   4.407  17.858  0.00  0.00    +0.000 C 
ATOM     14  C   UNL     1       2.951   4.828  18.564  0.00  0.00    +0.000 C 
ATOM     15  C   UNL     1       3.483   6.236  18.347  0.00  0.00    +0.000 C 
ATOM     16  O   UNL     1       4.648   6.406  17.968  0.00  0.00    +0.000 OA
ENDROOT
BRANCH   1  18
ATOM     17  C   UNL     1      -1.378  10.486  18.885  0.00  0.00    +0.000 C 
ATOM     18  C   UNL     1       0.067  10.941  18.629  0.00  0.00    +0.000 C 
BRANCH  18  19
ATOM     19  C   UNL     1       0.444  12.009  19.659  0.00  0.00    +0.000 C 
ATOM     20  O   UNL     1       1.445  12.024  20.364  0.00  0.00    +0.000 OA
BRANCH  19  21
ATOM     21  O   UNL     1      -0.557  12.934  19.759  0.00  0.00    +0.000 OA
BRANCH  21  22
ATOM     22  C   UNL     1      -0.283  13.966  20.710  0.00  0.00    +0.000 C 
BRANCH  22  23
ATOM     23  C   UNL     1      -1.417  14.215  21.692  0.00  0.00    +0.000 C 
BRANCH  23  24
ATOM     24  O   UNL     1      -1.997  12.940  21.993  0.00  0.00    +0.000 OA
BRANCH  24  25
ATOM     25  C   UNL     1      -1.514  12.395  23.224  0.00  0.00    +0.000 C 
BRANCH  25  26
ATOM     26  C   UNL     1      -1.214  10.914  23.002  0.00  0.00    +0.000 C 
BRANCH  26  27
ATOM     27  O   UNL     1       0.184  10.717  22.793  0.00  0.00    +0.000 OA
ATOM     28  H   UNL     1       0.419   9.942  23.339  0.00  0.00    +0.000 HD
ENDBRANCH  26  27
ENDBRANCH  25  26
ENDBRANCH  24  25
ENDBRANCH  23  24
ENDBRANCH  22  23
ENDBRANCH  21  22
ENDBRANCH  19  21
ENDBRANCH  18  19
ENDBRANCH   1  18
TORSDOF 9
ENDMDL
