MODEL 1
REMARK VINA RESULT:     -10.4      0.000      0.000
REMARK  Name = 
REMARK  5 active torsions:
REMARK  status: ('A' for Active; 'I' for Inactive)
REMARK    1  A    between atoms: C_4  and  C_5
REMARK    2  A    between atoms: C_8  and  N_9
REMARK    3  A    between atoms: N_9  and  C_10
REMARK    4  A    between atoms: C_24  and  C_25
REMARK    5  A    between atoms: C_30  and  O_31
REMARK                            x       y       z     vdW  Elec       q    Type
REMARK                         _______ _______ _______ _____ _____    ______ ____
ROOT
ATOM      1  C   UNL     1       2.904   6.672  18.468  0.00  0.00    +0.000 A 
ATOM      2  C   UNL     1       2.417   6.690  19.798  0.00  0.00    +0.000 A 
ATOM      3  C   UNL     1       1.690   7.788  20.363  0.00  0.00    +0.000 A 
ATOM      4  C   UNL     1       1.409   8.920  19.619  0.00  0.00    +0.000 A 
ATOM      5  C   UNL     1       1.901   8.913  18.288  0.00  0.00    +0.000 A 
ATOM      6  C   UNL     1       2.611   7.823  17.726  0.00  0.00    +0.000 A 
ENDROOT
BRANCH   1  10
ATOM      7  N   UNL     1       4.312   2.093  18.668  0.00  0.00    +0.000 N 
ATOM      8  C   UNL     1       4.322   3.311  18.010  0.00  0.00    +0.000 A 
ATOM      9  N   UNL     1       3.637   4.341  18.535  0.00  0.00    +0.000 NA
ATOM     10  C   UNL     1       3.678   5.523  17.869  0.00  0.00    +0.000 A 
ATOM     11  C   UNL     1       4.390   5.630  16.678  0.00  0.00    +0.000 A 
ATOM     12  C   UNL     1       5.019   4.499  16.173  0.00  0.00    +0.000 A 
ATOM     13  N   UNL     1       4.991   3.337  16.859  0.00  0.00    +0.000 NA
ATOM     14  H   UNL     1       3.484   1.999  19.234  0.00  0.00    +0.000 HD
ATOM     15  H   UNL     1       4.501   1.358  17.996  0.00  0.00    +0.000 HD
BRANCH  12  16
ATOM     16  C   UNL     1       5.769   4.443  14.878  0.00  0.00    +0.000 A 
ATOM     17  C   UNL     1       5.238   3.746  13.766  0.00  0.00    +0.000 A 
ATOM     18  C   UNL     1       5.913   3.646  12.541  0.00  0.00    +0.000 A 
ATOM     19  C   UNL     1       7.148   4.260  12.384  0.00  0.00    +0.000 A 
ATOM     20  C   UNL     1       7.691   4.986  13.433  0.00  0.00    +0.000 A 
ATOM     21  C   UNL     1       7.004   5.087  14.664  0.00  0.00    +0.000 A 
BRANCH  21  22
ATOM     22  O   UNL     1       7.556   5.869  15.638  0.00  0.00    +0.000 OA
ATOM     23  H   UNL     1       6.940   5.913  16.391  0.00  0.00    +0.000 HD
ENDBRANCH  21  22
ENDBRANCH  12  16
ENDBRANCH   1  10
BRANCH   4  24
ATOM     24  N   UNL     1       0.629  10.044  20.000  0.00  0.00    +0.000 N 
ATOM     25  H   UNL     1       1.264  10.571  20.606  0.00  0.00    +0.000 HD
BRANCH  24  26
ATOM     26  C   UNL     1      -0.369  10.928  19.554  0.00  0.00    +0.000 A 
ATOM     27  C   UNL     1      -0.479  12.103  20.215  0.00  0.00    +0.000 A 
ATOM     28  C   UNL     1      -1.512  13.069  19.817  0.00  0.00    +0.000 A 
ATOM     29  O   UNL     1      -1.299  14.258  19.645  0.00  0.00    +0.000 OA
ATOM     30  O   UNL     1      -2.738  12.474  19.796  0.00  0.00    +0.000 OA
ATOM     31  C   UNL     1      -2.658  11.545  18.758  0.00  0.00    +0.000 A 
ATOM     32  C   UNL     1      -3.765  11.580  17.900  0.00  0.00    +0.000 A 
ATOM     33  C   UNL     1      -3.714  10.838  16.737  0.00  0.00    +0.000 A 
ATOM     34  C   UNL     1      -2.587  10.047  16.489  0.00  0.00    +0.000 A 
ATOM     35  C   UNL     1      -1.501   9.977  17.400  0.00  0.00    +0.000 A 
ATOM     36  C   UNL     1      -1.489  10.743  18.563  0.00  0.00    +0.000 A 
ENDBRANCH  24  26
ENDBRANCH   4  24
TORSDOF 5
ENDMDL
MODEL 2
REMARK VINA RESULT:     -10.2      1.325      1.423
REMARK  Name = 
REMARK  5 active torsions:
REMARK  status: ('A' for Active; 'I' for Inactive)
REMARK    1  A    between atoms: C_4  and  C_5
REMARK    2  A    between atoms: C_8  and  N_9
REMARK    3  A    between atoms: N_9  and  C_10
REMARK    4  A    between atoms: C_24  and  C_25
REMARK    5  A    between atoms: C_30  and  O_31
REMARK                            x       y       z     vdW  Elec       q    Type
REMARK                         _______ _______ _______ _____ _____    ______ ____
ROOT
ATOM      1  C   UNL     1       3.772   6.979  18.077  0.00  0.00    +0.000 A 
ATOM      2  C   UNL     1       3.119   6.636  19.285  0.00  0.00    +0.000 A 
ATOM      3  C   UNL     1       2.038   7.391  19.847  0.00  0.00    +0.000 A 
ATOM      4  C   UNL     1       1.554   8.525  19.219  0.00  0.00    +0.000 A 
ATOM      5  C   UNL     1       2.210   8.880  18.011  0.00  0.00    +0.000 A 
ATOM      6  C   UNL     1       3.272   8.128  17.451  0.00  0.00    +0.000 A 
ENDROOT
BRANCH   1  10
ATOM      7  N   UNL     1       7.942   4.684  18.657  0.00  0.00    +0.000 N 
ATOM      8  C   UNL     1       6.919   5.097  17.820  0.00  0.00    +0.000 A 
ATOM      9  N   UNL     1       5.896   5.797  18.336  0.00  0.00    +0.000 NA
ATOM     10  C   UNL     1       4.916   6.194  17.484  0.00  0.00    +0.000 A 
ATOM     11  C   UNL     1       4.983   5.854  16.136  0.00  0.00    +0.000 A 
ATOM     12  C   UNL     1       6.045   5.074  15.697  0.00  0.00    +0.000 A 
ATOM     13  N   UNL     1       7.025   4.708  16.550  0.00  0.00    +0.000 NA
ATOM     14  H   UNL     1       7.615   4.602  19.607  0.00  0.00    +0.000 HD
ATOM     15  H   UNL     1       8.390   3.872  18.249  0.00  0.00    +0.000 HD
BRANCH  12  16
ATOM     16  C   UNL     1       6.221   4.579  14.294  0.00  0.00    +0.000 A 
ATOM     17  C   UNL     1       5.225   3.784  13.679  0.00  0.00    +0.000 A 
ATOM     18  C   UNL     1       5.354   3.278  12.377  0.00  0.00    +0.000 A 
ATOM     19  C   UNL     1       6.492   3.568  11.637  0.00  0.00    +0.000 A 
ATOM     20  C   UNL     1       7.478   4.376  12.183  0.00  0.00    +0.000 A 
ATOM     21  C   UNL     1       7.339   4.886  13.493  0.00  0.00    +0.000 A 
BRANCH  21  22
ATOM     22  O   UNL     1       8.312   5.729  13.954  0.00  0.00    +0.000 OA
ATOM     23  H   UNL     1       7.936   6.282  14.662  0.00  0.00    +0.000 HD
ENDBRANCH  21  22
ENDBRANCH  12  16
ENDBRANCH   1  10
BRANCH   4  24
ATOM     24  N   UNL     1       0.442   9.324  19.594  0.00  0.00    +0.000 N 
ATOM     25  H   UNL     1       0.558   9.419  20.607  0.00  0.00    +0.000 HD
BRANCH  24  26
ATOM     26  C   UNL     1      -0.398  10.363  19.160  0.00  0.00    +0.000 A 
ATOM     27  C   UNL     1      -0.321  11.532  19.838  0.00  0.00    +0.000 A 
ATOM     28  C   UNL     1      -1.182  12.658  19.452  0.00  0.00    +0.000 A 
ATOM     29  O   UNL     1      -0.778  13.798  19.298  0.00  0.00    +0.000 OA
ATOM     30  O   UNL     1      -2.488  12.269  19.420  0.00  0.00    +0.000 OA
ATOM     31  C   UNL     1      -2.555  11.354  18.369  0.00  0.00    +0.000 A 
ATOM     32  C   UNL     1      -3.638  11.579  17.509  0.00  0.00    +0.000 A 
ATOM     33  C   UNL     1      -3.702  10.856  16.335  0.00  0.00    +0.000 A 
ATOM     34  C   UNL     1      -2.716   9.897  16.078  0.00  0.00    +0.000 A 
ATOM     35  C   UNL     1      -1.660   9.639  16.990  0.00  0.00    +0.000 A 
ATOM     36  C   UNL     1      -1.529  10.377  18.164  0.00  0.00    +0.000 A 
ENDBRANCH  24  26
ENDBRANCH   4  24
TORSDOF 5
ENDMDL
MODEL 3
REMARK VINA RESULT:     -10.1      0.613      1.038
REMARK  Name = 
REMARK  5 active torsions:
REMARK  status: ('A' for Active; 'I' for Inactive)
REMARK    1  A    between atoms: C_4  and  C_5
REMARK    2  A    between atoms: C_8  and  N_9
REMARK    3  A    between atoms: N_9  and  C_10
REMARK    4  A    between atoms: C_24  and  C_25
REMARK    5  A    between atoms: C_30  and  O_31
REMARK                            x       y       z     vdW  Elec       q    Type
REMARK                         _______ _______ _______ _____ _____    ______ ____
ROOT
ATOM      1  C   UNL     1       2.925   7.114  18.402  0.00  0.00    +0.000 A 
ATOM      2  C   UNL     1       2.571   8.213  17.582  0.00  0.00    +0.000 A 
ATOM      3  C   UNL     1       1.694   9.266  18.000  0.00  0.00    +0.000 A 
ATOM      4  C   UNL     1       1.132   9.271  19.265  0.00  0.00    +0.000 A 
ATOM      5  C   UNL     1       1.475   8.168  20.089  0.00  0.00    +0.000 A 
ATOM      6  C   UNL     1       2.351   7.132  19.679  0.00  0.00    +0.000 A 
ENDROOT
BRANCH   1  10
ATOM      7  N   UNL     1       5.195   3.009  19.396  0.00  0.00    +0.000 N 
ATOM      8  C   UNL     1       4.907   4.019  18.494  0.00  0.00    +0.000 A 
ATOM      9  N   UNL     1       4.093   5.019  18.872  0.00  0.00    +0.000 NA
ATOM     10  C   UNL     1       3.841   5.997  17.965  0.00  0.00    +0.000 A 
ATOM     11  C   UNL     1       4.399   5.929  16.691  0.00  0.00    +0.000 A 
ATOM     12  C   UNL     1       5.179   4.828  16.363  0.00  0.00    +0.000 A 
ATOM     13  N   UNL     1       5.442   3.876  17.283  0.00  0.00    +0.000 NA
ATOM     14  H   UNL     1       4.460   2.920  20.080  0.00  0.00    +0.000 HD
ATOM     15  H   UNL     1       5.454   2.176  18.881  0.00  0.00    +0.000 HD
BRANCH  12  16
ATOM     16  C   UNL     1       5.794   4.586  15.018  0.00  0.00    +0.000 A 
ATOM     17  C   UNL     1       5.114   3.821  14.041  0.00  0.00    +0.000 A 
ATOM     18  C   UNL     1       5.658   3.547  12.777  0.00  0.00    +0.000 A 
ATOM     19  C   UNL     1       6.909   4.049  12.445  0.00  0.00    +0.000 A 
ATOM     20  C   UNL     1       7.597   4.837  13.355  0.00  0.00    +0.000 A 
ATOM     21  C   UNL     1       7.040   5.112  14.625  0.00  0.00    +0.000 A 
BRANCH  21  22
ATOM     22  O   UNL     1       7.734   5.947  15.456  0.00  0.00    +0.000 OA
ATOM     23  H   UNL     1       7.356   5.882  16.351  0.00  0.00    +0.000 HD
ENDBRANCH  21  22
ENDBRANCH  12  16
ENDBRANCH   1  10
BRANCH   4  24
ATOM     24  N   UNL     1       0.324  10.277  19.858  0.00  0.00    +0.000 N 
ATOM     25  H   UNL     1       0.973  10.751  20.493  0.00  0.00    +0.000 HD
BRANCH  24  26
ATOM     26  C   UNL     1      -0.749  11.151  19.613  0.00  0.00    +0.000 A 
ATOM     27  C   UNL     1      -0.904  12.181  20.477  0.00  0.00    +0.000 A 
ATOM     28  C   UNL     1      -2.015  13.125  20.296  0.00  0.00    +0.000 A 
ATOM     29  O   UNL     1      -1.887  14.337  20.332  0.00  0.00    +0.000 OA
ATOM     30  O   UNL     1      -3.199  12.456  20.212  0.00  0.00    +0.000 OA
ATOM     31  C   UNL     1      -3.109  11.733  19.022  0.00  0.00    +0.000 A 
ATOM     32  C   UNL     1      -4.255  11.838  18.223  0.00  0.00    +0.000 A 
ATOM     33  C   UNL     1      -4.211  11.319  16.945  0.00  0.00    +0.000 A 
ATOM     34  C   UNL     1      -3.048  10.667  16.520  0.00  0.00    +0.000 A 
ATOM     35  C   UNL     1      -1.918  10.516  17.365  0.00  0.00    +0.000 A 
ATOM     36  C   UNL     1      -1.901  11.064  18.645  0.00  0.00    +0.000 A 
ENDBRANCH  24  26
ENDBRANCH   4  24
TORSDOF 5
ENDMDL
MODEL 4
REMARK VINA RESULT:     -10.0      2.724      3.416
REMARK  Name = 
REMARK  5 active torsions:
REMARK  status: ('A' for Active; 'I' for Inactive)
REMARK    1  A    between atoms: C_4  and  C_5
REMARK    2  A    between atoms: C_8  and  N_9
REMARK    3  A    between atoms: N_9  and  C_10
REMARK    4  A    between atoms: C_24  and  C_25
REMARK    5  A    between atoms: C_30  and  O_31
REMARK                            x       y       z     vdW  Elec       q    Type
REMARK                         _______ _______ _______ _____ _____    ______ ____
ROOT
ATOM      1  C   UNL     1       3.918   6.918  17.884  0.00  0.00    +0.000 A 
ATOM      2  C   UNL     1       3.391   8.092  17.294  0.00  0.00    +0.000 A 
ATOM      3  C   UNL     1       2.302   8.841  17.849  0.00  0.00    +0.000 A 
ATOM      4  C   UNL     1       1.692   8.450  19.028  0.00  0.00    +0.000 A 
ATOM      5  C   UNL     1       2.210   7.269  19.621  0.00  0.00    +0.000 A 
ATOM      6  C   UNL     1       3.293   6.536  19.077  0.00  0.00    +0.000 A 
ENDROOT
BRANCH   1  10
ATOM      7  N   UNL     1       8.050   4.564  18.501  0.00  0.00    +0.000 N 
ATOM      8  C   UNL     1       7.043   4.995  17.654  0.00  0.00    +0.000 A 
ATOM      9  N   UNL     1       6.023   5.706  18.162  0.00  0.00    +0.000 NA
ATOM     10  C   UNL     1       5.059   6.121  17.301  0.00  0.00    +0.000 A 
ATOM     11  C   UNL     1       5.137   5.787  15.952  0.00  0.00    +0.000 A 
ATOM     12  C   UNL     1       6.194   4.995  15.521  0.00  0.00    +0.000 A 
ATOM     13  N   UNL     1       7.158   4.611  16.384  0.00  0.00    +0.000 NA
ATOM     14  H   UNL     1       7.710   4.482  19.447  0.00  0.00    +0.000 HD
ATOM     15  H   UNL     1       8.492   3.748  18.094  0.00  0.00    +0.000 HD
BRANCH  12  16
ATOM     16  C   UNL     1       6.379   4.505  14.118  0.00  0.00    +0.000 A 
ATOM     17  C   UNL     1       5.426   3.647  13.521  0.00  0.00    +0.000 A 
ATOM     18  C   UNL     1       5.567   3.144  12.219  0.00  0.00    +0.000 A 
ATOM     19  C   UNL     1       6.674   3.500  11.461  0.00  0.00    +0.000 A 
ATOM     20  C   UNL     1       7.616   4.369  11.989  0.00  0.00    +0.000 A 
ATOM     21  C   UNL     1       7.466   4.876  13.300  0.00  0.00    +0.000 A 
BRANCH  21  22
ATOM     22  O   UNL     1       8.391   5.779  13.743  0.00  0.00    +0.000 OA
ATOM     23  H   UNL     1       8.019   6.675  13.659  0.00  0.00    +0.000 HD
ENDBRANCH  21  22
ENDBRANCH  12  16
ENDBRANCH   1  10
BRANCH   4  24
ATOM     24  N   UNL     1       0.672   9.126  19.749  0.00  0.00    +0.000 N 
ATOM     25  H   UNL     1      -0.177   8.627  19.470  0.00  0.00    +0.000 HD
BRANCH  24  26
ATOM     26  C   UNL     1       0.398   9.799  20.952  0.00  0.00    +0.000 A 
ATOM     27  C   UNL     1       0.233   9.033  22.054  0.00  0.00    +0.000 A 
ATOM     28  C   UNL     1      -0.074   9.665  23.344  0.00  0.00    +0.000 A 
ATOM     29  O   UNL     1       0.501   9.396  24.385  0.00  0.00    +0.000 OA
ATOM     30  O   UNL     1      -1.158  10.482  23.227  0.00  0.00    +0.000 OA
ATOM     31  C   UNL     1      -0.732  11.510  22.385  0.00  0.00    +0.000 A 
ATOM     32  C   UNL     1      -1.071  12.786  22.856  0.00  0.00    +0.000 A 
ATOM     33  C   UNL     1      -0.544  13.883  22.205  0.00  0.00    +0.000 A 
ATOM     34  C   UNL     1       0.259  13.680  21.078  0.00  0.00    +0.000 A 
ATOM     35  C   UNL     1       0.541  12.381  20.579  0.00  0.00    +0.000 A 
ATOM     36  C   UNL     1       0.070  11.244  21.230  0.00  0.00    +0.000 A 
ENDBRANCH  24  26
ENDBRANCH   4  24
TORSDOF 5
ENDMDL
MODEL 5
REMARK VINA RESULT:      -9.8      1.178      2.315
REMARK  Name = 
REMARK  5 active torsions:
REMARK  status: ('A' for Active; 'I' for Inactive)
REMARK    1  A    between atoms: C_4  and  C_5
REMARK    2  A    between atoms: C_8  and  N_9
REMARK    3  A    between atoms: N_9  and  C_10
REMARK    4  A    between atoms: C_24  and  C_25
REMARK    5  A    between atoms: C_30  and  O_31
REMARK                            x       y       z     vdW  Elec       q    Type
REMARK                         _______ _______ _______ _____ _____    ______ ____
ROOT
ATOM      1  C   UNL     1       2.997   6.696  18.346  0.00  0.00    +0.000 A 
ATOM      2  C   UNL     1       2.477   6.703  19.663  0.00  0.00    +0.000 A 
ATOM      3  C   UNL     1       1.791   7.821  20.241  0.00  0.00    +0.000 A 
ATOM      4  C   UNL     1       1.587   8.985  19.522  0.00  0.00    +0.000 A 
ATOM      5  C   UNL     1       2.112   8.989  18.204  0.00  0.00    +0.000 A 
ATOM      6  C   UNL     1       2.782   7.880  17.629  0.00  0.00    +0.000 A 
ENDROOT
BRANCH   1  10
ATOM      7  N   UNL     1       4.223   2.063  18.486  0.00  0.00    +0.000 N 
ATOM      8  C   UNL     1       4.284   3.289  17.846  0.00  0.00    +0.000 A 
ATOM      9  N   UNL     1       3.638   4.337  18.382  0.00  0.00    +0.000 NA
ATOM     10  C   UNL     1       3.728   5.527  17.734  0.00  0.00    +0.000 A 
ATOM     11  C   UNL     1       4.450   5.622  16.547  0.00  0.00    +0.000 A 
ATOM     12  C   UNL     1       5.036   4.474  16.030  0.00  0.00    +0.000 A 
ATOM     13  N   UNL     1       4.959   3.304  16.699  0.00  0.00    +0.000 NA
ATOM     14  H   UNL     1       3.389   1.994  19.047  0.00  0.00    +0.000 HD
ATOM     15  H   UNL     1       4.386   1.331  17.805  0.00  0.00    +0.000 HD
BRANCH  12  16
ATOM     16  C   UNL     1       5.789   4.407  14.736  0.00  0.00    +0.000 A 
ATOM     17  C   UNL     1       5.263   3.699  13.630  0.00  0.00    +0.000 A 
ATOM     18  C   UNL     1       5.941   3.588  12.407  0.00  0.00    +0.000 A 
ATOM     19  C   UNL     1       7.176   4.202  12.249  0.00  0.00    +0.000 A 
ATOM     20  C   UNL     1       7.715   4.939  13.292  0.00  0.00    +0.000 A 
ATOM     21  C   UNL     1       7.024   5.050  14.519  0.00  0.00    +0.000 A 
BRANCH  21  22
ATOM     22  O   UNL     1       7.573   5.843  15.488  0.00  0.00    +0.000 OA
ATOM     23  H   UNL     1       7.245   6.752  15.372  0.00  0.00    +0.000 HD
ENDBRANCH  21  22
ENDBRANCH  12  16
ENDBRANCH   1  10
BRANCH   4  24
ATOM     24  N   UNL     1       0.854  10.137  19.915  0.00  0.00    +0.000 N 
ATOM     25  H   UNL     1       1.530  10.895  19.789  0.00  0.00    +0.000 HD
BRANCH  24  26
ATOM     26  C   UNL     1      -0.431  10.706  19.927  0.00  0.00    +0.000 A 
ATOM     27  C   UNL     1      -1.070  10.791  18.737  0.00  0.00    +0.000 A 
ATOM     28  C   UNL     1      -2.408  11.391  18.669  0.00  0.00    +0.000 A 
ATOM     29  O   UNL     1      -3.349  10.886  18.079  0.00  0.00    +0.000 OA
ATOM     30  O   UNL     1      -2.405  12.628  19.240  0.00  0.00    +0.000 OA
ATOM     31  C   UNL     1      -2.159  12.389  20.593  0.00  0.00    +0.000 A 
ATOM     32  C   UNL     1      -3.020  13.092  21.444  0.00  0.00    +0.000 A 
ATOM     33  C   UNL     1      -2.993  12.795  22.792  0.00  0.00    +0.000 A 
ATOM     34  C   UNL     1      -2.076  11.845  23.257  0.00  0.00    +0.000 A 
ATOM     35  C   UNL     1      -1.168  11.187  22.386  0.00  0.00    +0.000 A 
ATOM     36  C   UNL     1      -1.191  11.421  21.014  0.00  0.00    +0.000 A 
ENDBRANCH  24  26
ENDBRANCH   4  24
TORSDOF 5
ENDMDL
MODEL 6
REMARK VINA RESULT:      -9.8      1.648      2.871
REMARK  Name = 
REMARK  5 active torsions:
REMARK  status: ('A' for Active; 'I' for Inactive)
REMARK    1  A    between atoms: C_4  and  C_5
REMARK    2  A    between atoms: C_8  and  N_9
REMARK    3  A    between atoms: N_9  and  C_10
REMARK    4  A    between atoms: C_24  and  C_25
REMARK    5  A    between atoms: C_30  and  O_31
REMARK                            x       y       z     vdW  Elec       q    Type
REMARK                         _______ _______ _______ _____ _____    ______ ____
ROOT
ATOM      1  C   UNL     1       3.939   6.861  17.985  0.00  0.00    +0.000 A 
ATOM      2  C   UNL     1       3.394   8.041  17.423  0.00  0.00    +0.000 A 
ATOM      3  C   UNL     1       2.308   8.772  18.008  0.00  0.00    +0.000 A 
ATOM      4  C   UNL     1       1.720   8.357  19.189  0.00  0.00    +0.000 A 
ATOM      5  C   UNL     1       2.255   7.170  19.754  0.00  0.00    +0.000 A 
ATOM      6  C   UNL     1       3.335   6.454  19.181  0.00  0.00    +0.000 A 
ENDROOT
BRANCH   1  10
ATOM      7  N   UNL     1       8.106   4.545  18.495  0.00  0.00    +0.000 N 
ATOM      8  C   UNL     1       7.078   4.974  17.673  0.00  0.00    +0.000 A 
ATOM      9  N   UNL     1       6.061   5.669  18.208  0.00  0.00    +0.000 NA
ATOM     10  C   UNL     1       5.076   6.082  17.371  0.00  0.00    +0.000 A 
ATOM     11  C   UNL     1       5.131   5.763  16.017  0.00  0.00    +0.000 A 
ATOM     12  C   UNL     1       6.187   4.987  15.557  0.00  0.00    +0.000 A 
ATOM     13  N   UNL     1       7.172   4.605  16.397  0.00  0.00    +0.000 NA
ATOM     14  H   UNL     1       7.787   4.449  19.446  0.00  0.00    +0.000 HD
ATOM     15  H   UNL     1       8.549   3.738  18.071  0.00  0.00    +0.000 HD
BRANCH  12  16
ATOM     16  C   UNL     1       6.350   4.513  14.145  0.00  0.00    +0.000 A 
ATOM     17  C   UNL     1       5.378   3.676  13.548  0.00  0.00    +0.000 A 
ATOM     18  C   UNL     1       5.498   3.189  12.238  0.00  0.00    +0.000 A 
ATOM     19  C   UNL     1       6.600   3.540  11.472  0.00  0.00    +0.000 A 
ATOM     20  C   UNL     1       7.560   4.391  12.001  0.00  0.00    +0.000 A 
ATOM     21  C   UNL     1       7.431   4.881  13.319  0.00  0.00    +0.000 A 
BRANCH  21  22
ATOM     22  O   UNL     1       8.373   5.767  13.763  0.00  0.00    +0.000 OA
ATOM     23  H   UNL     1       8.908   6.060  13.005  0.00  0.00    +0.000 HD
ENDBRANCH  21  22
ENDBRANCH  12  16
ENDBRANCH   1  10
BRANCH   4  24
ATOM     24  N   UNL     1       0.706   9.013  19.937  0.00  0.00    +0.000 N 
ATOM     25  H   UNL     1       1.081   9.006  20.890  0.00  0.00    +0.000 HD
BRANCH  24  26
ATOM     26  C   UNL     1      -0.272  10.020  19.870  0.00  0.00    +0.000 A 
ATOM     27  C   UNL     1      -0.821  10.254  18.656  0.00  0.00    +0.000 A 
ATOM     28  C   UNL     1      -1.838  11.304  18.504  0.00  0.00    +0.000 A 
ATOM     29  O   UNL     1      -2.893  11.146  17.914  0.00  0.00    +0.000 OA
ATOM     30  O   UNL     1      -1.377  12.487  19.000  0.00  0.00    +0.000 OA
ATOM     31  C   UNL     1      -1.251  12.266  20.372  0.00  0.00    +0.000 A 
ATOM     32  C   UNL     1      -1.795  13.297  21.149  0.00  0.00    +0.000 A 
ATOM     33  C   UNL     1      -1.894  13.105  22.513  0.00  0.00    +0.000 A 
ATOM     34  C   UNL     1      -1.403  11.917  23.065  0.00  0.00    +0.000 A 
ATOM     35  C   UNL     1      -0.799  10.910  22.269  0.00  0.00    +0.000 A 
ATOM     36  C   UNL     1      -0.720  11.040  20.885  0.00  0.00    +0.000 A 
ENDBRANCH  24  26
ENDBRANCH   4  24
TORSDOF 5
ENDMDL
MODEL 7
REMARK VINA RESULT:      -9.8      2.152      2.685
REMARK  Name = 
REMARK  5 active torsions:
REMARK  status: ('A' for Active; 'I' for Inactive)
REMARK    1  A    between atoms: C_4  and  C_5
REMARK    2  A    between atoms: C_8  and  N_9
REMARK    3  A    between atoms: N_9  and  C_10
REMARK    4  A    between atoms: C_24  and  C_25
REMARK    5  A    between atoms: C_30  and  O_31
REMARK                            x       y       z     vdW  Elec       q    Type
REMARK                         _______ _______ _______ _____ _____    ______ ____
ROOT
ATOM      1  C   UNL     1       4.010   6.676  18.024  0.00  0.00    +0.000 A 
ATOM      2  C   UNL     1       3.421   7.842  17.477  0.00  0.00    +0.000 A 
ATOM      3  C   UNL     1       2.342   8.552  18.096  0.00  0.00    +0.000 A 
ATOM      4  C   UNL     1       1.804   8.130  19.299  0.00  0.00    +0.000 A 
ATOM      5  C   UNL     1       2.383   6.957  19.849  0.00  0.00    +0.000 A 
ATOM      6  C   UNL     1       3.457   6.261  19.241  0.00  0.00    +0.000 A 
ENDROOT
BRANCH   1  10
ATOM      7  N   UNL     1       8.184   4.348  18.416  0.00  0.00    +0.000 N 
ATOM      8  C   UNL     1       7.147   4.802  17.618  0.00  0.00    +0.000 A 
ATOM      9  N   UNL     1       6.135   5.479  18.186  0.00  0.00    +0.000 NA
ATOM     10  C   UNL     1       5.141   5.918  17.373  0.00  0.00    +0.000 A 
ATOM     11  C   UNL     1       5.183   5.643  16.009  0.00  0.00    +0.000 A 
ATOM     12  C   UNL     1       6.235   4.883  15.513  0.00  0.00    +0.000 A 
ATOM     13  N   UNL     1       7.229   4.475  16.330  0.00  0.00    +0.000 NA
ATOM     14  H   UNL     1       7.874   4.221  19.366  0.00  0.00    +0.000 HD
ATOM     15  H   UNL     1       8.623   3.556  17.960  0.00  0.00    +0.000 HD
BRANCH  12  16
ATOM     16  C   UNL     1       6.383   4.456  14.085  0.00  0.00    +0.000 A 
ATOM     17  C   UNL     1       5.423   3.609  13.481  0.00  0.00    +0.000 A 
ATOM     18  C   UNL     1       5.531   3.164  12.156  0.00  0.00    +0.000 A 
ATOM     19  C   UNL     1       6.609   3.569  11.380  0.00  0.00    +0.000 A 
ATOM     20  C   UNL     1       7.554   4.430  11.916  0.00  0.00    +0.000 A 
ATOM     21  C   UNL     1       7.437   4.878  13.251  0.00  0.00    +0.000 A 
BRANCH  21  22
ATOM     22  O   UNL     1       8.363   5.776  13.703  0.00  0.00    +0.000 OA
ATOM     23  H   UNL     1       9.252   5.400  13.576  0.00  0.00    +0.000 HD
ENDBRANCH  21  22
ENDBRANCH  12  16
ENDBRANCH   1  10
BRANCH   4  24
ATOM     24  N   UNL     1       0.803   8.768  20.080  0.00  0.00    +0.000 N 
ATOM     25  H   UNL     1       0.647   8.104  20.843  0.00  0.00    +0.000 HD
BRANCH  24  26
ATOM     26  C   UNL     1       0.331  10.023  20.501  0.00  0.00    +0.000 A 
ATOM     27  C   UNL     1      -0.357  10.054  21.665  0.00  0.00    +0.000 A 
ATOM     28  C   UNL     1      -0.898  11.328  22.159  0.00  0.00    +0.000 A 
ATOM     29  O   UNL     1      -0.769  11.719  23.307  0.00  0.00    +0.000 OA
ATOM     30  O   UNL     1      -1.655  11.928  21.199  0.00  0.00    +0.000 OA
ATOM     31  C   UNL     1      -0.747  12.259  20.193  0.00  0.00    +0.000 A 
ATOM     32  C   UNL     1      -0.898  13.569  19.721  0.00  0.00    +0.000 A 
ATOM     33  C   UNL     1       0.058  14.068  18.859  0.00  0.00    +0.000 A 
ATOM     34  C   UNL     1       1.104  13.233  18.454  0.00  0.00    +0.000 A 
ATOM     35  C   UNL     1       1.207  11.888  18.895  0.00  0.00    +0.000 A 
ATOM     36  C   UNL     1       0.292  11.357  19.800  0.00  0.00    +0.000 A 
ENDBRANCH  24  26
ENDBRANCH   4  24
TORSDOF 5
ENDMDL
MODEL 8
REMARK VINA RESULT:      -9.7      2.999     11.090
REMARK  Name = 
REMARK  5 active torsions:
REMARK  status: ('A' for Active; 'I' for Inactive)
REMARK    1  A    between atoms: C_4  and  C_5
REMARK    2  A    between atoms: C_8  and  N_9
REMARK    3  A    between atoms: N_9  and  C_10
REMARK    4  A    between atoms: C_24  and  C_25
REMARK    5  A    between atoms: C_30  and  O_31
REMARK                            x       y       z     vdW  Elec       q    Type
REMARK                         _______ _______ _______ _____ _____    ______ ____
ROOT
ATOM      1  C   UNL     1       0.073  10.024  19.478  0.00  0.00    +0.000 A 
ATOM      2  C   UNL     1       0.695   9.146  20.398  0.00  0.00    +0.000 A 
ATOM      3  C   UNL     1       1.719   8.211  20.036  0.00  0.00    +0.000 A 
ATOM      4  C   UNL     1       2.173   8.115  18.732  0.00  0.00    +0.000 A 
ATOM      5  C   UNL     1       1.547   8.986  17.803  0.00  0.00    +0.000 A 
ATOM      6  C   UNL     1       0.543   9.918  18.163  0.00  0.00    +0.000 A 
ENDROOT
BRANCH   1  10
ATOM      7  N   UNL     1      -4.005  12.289  18.367  0.00  0.00    +0.000 N 
ATOM      8  C   UNL     1      -2.978  12.064  19.268  0.00  0.00    +0.000 A 
ATOM      9  N   UNL     1      -2.007  11.193  18.947  0.00  0.00    +0.000 NA
ATOM     10  C   UNL     1      -1.012  11.005  19.850  0.00  0.00    +0.000 A 
ATOM     11  C   UNL     1      -1.033  11.685  21.065  0.00  0.00    +0.000 A 
ATOM     12  C   UNL     1      -2.108  12.520  21.343  0.00  0.00    +0.000 A 
ATOM     13  N   UNL     1      -3.077  12.717  20.425  0.00  0.00    +0.000 NA
ATOM     14  H   UNL     1      -4.128  11.494  17.760  0.00  0.00    +0.000 HD
ATOM     15  H   UNL     1      -4.818  12.617  18.874  0.00  0.00    +0.000 HD
BRANCH  12  16
ATOM     16  C   UNL     1      -2.301  13.267  22.627  0.00  0.00    +0.000 A 
ATOM     17  C   UNL     1      -1.309  14.159  23.100  0.00  0.00    +0.000 A 
ATOM     18  C   UNL     1      -1.434  14.862  24.307  0.00  0.00    +0.000 A 
ATOM     19  C   UNL     1      -2.576  14.703  25.080  0.00  0.00    +0.000 A 
ATOM     20  C   UNL     1      -3.592  13.870  24.639  0.00  0.00    +0.000 A 
ATOM     21  C   UNL     1      -3.462  13.167  23.420  0.00  0.00    +0.000 A 
BRANCH  21  22
ATOM     22  O   UNL     1      -4.523  12.412  23.005  0.00  0.00    +0.000 OA
ATOM     23  H   UNL     1      -5.301  12.990  22.912  0.00  0.00    +0.000 HD
ENDBRANCH  21  22
ENDBRANCH  12  16
ENDBRANCH   1  10
BRANCH   4  24
ATOM     24  N   UNL     1       3.233   7.311  18.234  0.00  0.00    +0.000 N 
ATOM     25  H   UNL     1       4.027   7.958  18.223  0.00  0.00    +0.000 HD
BRANCH  24  26
ATOM     26  C   UNL     1       3.746   6.004  18.219  0.00  0.00    +0.000 A 
ATOM     27  C   UNL     1       5.049   5.865  17.884  0.00  0.00    +0.000 A 
ATOM     28  C   UNL     1       5.651   4.525  17.830  0.00  0.00    +0.000 A 
ATOM     29  O   UNL     1       6.719   4.241  18.344  0.00  0.00    +0.000 OA
ATOM     30  O   UNL     1       4.914   3.705  17.029  0.00  0.00    +0.000 OA
ATOM     31  C   UNL     1       3.701   3.556  17.702  0.00  0.00    +0.000 A 
ATOM     32  C   UNL     1       3.267   2.226  17.772  0.00  0.00    +0.000 A 
ATOM     33  C   UNL     1       2.179   1.934  18.569  0.00  0.00    +0.000 A 
ATOM     34  C   UNL     1       1.525   2.980  19.230  0.00  0.00    +0.000 A 
ATOM     35  C   UNL     1       1.941   4.331  19.097  0.00  0.00    +0.000 A 
ATOM     36  C   UNL     1       3.061   4.666  18.342  0.00  0.00    +0.000 A 
ENDBRANCH  24  26
ENDBRANCH   4  24
TORSDOF 5
ENDMDL
MODEL 9
REMARK VINA RESULT:      -9.7      3.311     11.150
REMARK  Name = 
REMARK  5 active torsions:
REMARK  status: ('A' for Active; 'I' for Inactive)
REMARK    1  A    between atoms: C_4  and  C_5
REMARK    2  A    between atoms: C_8  and  N_9
REMARK    3  A    between atoms: N_9  and  C_10
REMARK    4  A    between atoms: C_24  and  C_25
REMARK    5  A    between atoms: C_30  and  O_31
REMARK                            x       y       z     vdW  Elec       q    Type
REMARK                         _______ _______ _______ _____ _____    ______ ____
ROOT
ATOM      1  C   UNL     1       0.394  10.485  19.609  0.00  0.00    +0.000 A 
ATOM      2  C   UNL     1       0.749   9.414  20.464  0.00  0.00    +0.000 A 
ATOM      3  C   UNL     1       1.548   8.299  20.051  0.00  0.00    +0.000 A 
ATOM      4  C   UNL     1       2.036   8.207  18.759  0.00  0.00    +0.000 A 
ATOM      5  C   UNL     1       1.677   9.273  17.894  0.00  0.00    +0.000 A 
ATOM      6  C   UNL     1       0.895  10.381  18.306  0.00  0.00    +0.000 A 
ENDROOT
BRANCH   1  10
ATOM      7  N   UNL     1      -0.757  15.120  19.177  0.00  0.00    +0.000 N 
ATOM      8  C   UNL     1      -0.972  13.894  19.783  0.00  0.00    +0.000 A 
ATOM      9  N   UNL     1      -0.223  12.843  19.413  0.00  0.00    +0.000 NA
ATOM     10  C   UNL     1      -0.454  11.659  20.035  0.00  0.00    +0.000 A 
ATOM     11  C   UNL     1      -1.452  11.561  21.001  0.00  0.00    +0.000 A 
ATOM     12  C   UNL     1      -2.223  12.682  21.279  0.00  0.00    +0.000 A 
ATOM     13  N   UNL     1      -1.965  13.859  20.671  0.00  0.00    +0.000 NA
ATOM     14  H   UNL     1      -0.354  15.000  18.261  0.00  0.00    +0.000 HD
ATOM     15  H   UNL     1      -1.606  15.670  19.243  0.00  0.00    +0.000 HD
BRANCH  12  16
ATOM     16  C   UNL     1      -3.368  12.715  22.244  0.00  0.00    +0.000 A 
ATOM     17  C   UNL     1      -3.161  12.452  23.619  0.00  0.00    +0.000 A 
ATOM     18  C   UNL     1      -4.205  12.448  24.557  0.00  0.00    +0.000 A 
ATOM     19  C   UNL     1      -5.501  12.724  24.143  0.00  0.00    +0.000 A 
ATOM     20  C   UNL     1      -5.747  13.027  22.813  0.00  0.00    +0.000 A 
ATOM     21  C   UNL     1      -4.690  13.033  21.875  0.00  0.00    +0.000 A 
BRANCH  21  22
ATOM     22  O   UNL     1      -4.982  13.402  20.591  0.00  0.00    +0.000 OA
ATOM     23  H   UNL     1      -4.154  13.438  20.080  0.00  0.00    +0.000 HD
ENDBRANCH  21  22
ENDBRANCH  12  16
ENDBRANCH   1  10
BRANCH   4  24
ATOM     24  N   UNL     1       2.908   7.222  18.223  0.00  0.00    +0.000 N 
ATOM     25  H   UNL     1       3.668   7.780  17.824  0.00  0.00    +0.000 HD
BRANCH  24  26
ATOM     26  C   UNL     1       3.391   5.917  18.419  0.00  0.00    +0.000 A 
ATOM     27  C   UNL     1       4.716   5.724  18.226  0.00  0.00    +0.000 A 
ATOM     28  C   UNL     1       5.290   4.382  18.394  0.00  0.00    +0.000 A 
ATOM     29  O   UNL     1       6.301   4.152  19.037  0.00  0.00    +0.000 OA
ATOM     30  O   UNL     1       4.612   3.476  17.636  0.00  0.00    +0.000 OA
ATOM     31  C   UNL     1       3.339   3.425  18.206  0.00  0.00    +0.000 A 
ATOM     32  C   UNL     1       2.872   2.119  18.399  0.00  0.00    +0.000 A 
ATOM     33  C   UNL     1       1.709   1.940  19.121  0.00  0.00    +0.000 A 
ATOM     34  C   UNL     1       1.021   3.068  19.584  0.00  0.00    +0.000 A 
ATOM     35  C   UNL     1       1.477   4.386  19.325  0.00  0.00    +0.000 A 
ATOM     36  C   UNL     1       2.669   4.613  18.641  0.00  0.00    +0.000 A 
ENDBRANCH  24  26
ENDBRANCH   4  24
TORSDOF 5
ENDMDL
