MODEL 1
REMARK VINA RESULT:      -9.1      0.000      0.000
REMARK  Name = 
REMARK  8 active torsions:
REMARK  status: ('A' for Active; 'I' for Inactive)
REMARK    1  A    between atoms: C_2  and  C_3
REMARK    2  A    between atoms: C_2  and  C_4
REMARK    3  A    between atoms: C_4  and  N_5
REMARK    4  A    between atoms: C_6  and  C_8
REMARK    5  A    between atoms: C_13  and  N_14
REMARK    6  A    between atoms: N_14  and  C_15
REMARK    7  A    between atoms: C_19  and  C_20
REMARK    8  A    between atoms: C_21  and  C_22
REMARK                            x       y       z     vdW  Elec       q    Type
REMARK                         _______ _______ _______ _____ _____    ______ ____
ROOT
ATOM      1  C   UNL     1       1.516   8.110  20.227  0.00  0.00    +0.000 A 
ATOM      2  C   UNL     1       0.642   8.310  21.310  0.00  0.00    +0.000 A 
ATOM      3  C   UNL     1      -0.198   9.436  21.416  0.00  0.00    +0.000 A 
ATOM      4  C   UNL     1      -0.126  10.433  20.425  0.00  0.00    +0.000 A 
ATOM      5  C   UNL     1      -0.606  11.764  20.220  0.00  0.00    +0.000 A 
ATOM      6  N   UNL     1      -0.251  12.234  19.014  0.00  0.00    +0.000 NA
ATOM      7  N   UNL     1       0.490  11.252  18.488  0.00  0.00    +0.000 N 
ATOM      8  C   UNL     1       0.662  10.181  19.317  0.00  0.00    +0.000 A 
ATOM      9  C   UNL     1       1.473   9.047  19.188  0.00  0.00    +0.000 A 
ATOM     10  H   UNL     1       0.895  11.395  17.570  0.00  0.00    +0.000 HD
ENDROOT
BRANCH   1  11
ATOM     11  N   UNL     1       2.377   6.975  20.295  0.00  0.00    +0.000 N 
ATOM     12  H   UNL     1       3.324   7.301  20.074  0.00  0.00    +0.000 HD
BRANCH  11  18
ATOM     13  C   UNL     1       3.080   5.094  18.838  0.00  0.00    +0.000 A 
ATOM     14  C   UNL     1       2.914   3.748  18.430  0.00  0.00    +0.000 A 
ATOM     15  C   UNL     1       2.000   2.895  19.046  0.00  0.00    +0.000 A 
ATOM     16  C   UNL     1       1.244   3.383  20.091  0.00  0.00    +0.000 A 
ATOM     17  C   UNL     1       1.396   4.715  20.493  0.00  0.00    +0.000 A 
ATOM     18  C   UNL     1       2.272   5.615  19.886  0.00  0.00    +0.000 A 
BRANCH  13  20
ATOM     19  N   UNL     1       5.348   5.143  17.844  0.00  0.00    +0.000 N 
ATOM     20  C   UNL     1       4.165   5.809  18.105  0.00  0.00    +0.000 C 
ATOM     21  O   UNL     1       3.958   6.951  17.690  0.00  0.00    +0.000 OA
ATOM     22  H   UNL     1       5.557   4.290  18.349  0.00  0.00    +0.000 HD
BRANCH  19  23
ATOM     23  C   UNL     1       6.363   5.804  17.054  0.00  0.00    +0.000 C 
BRANCH  23  25
ATOM     24  C   UNL     1       7.871   5.920  19.019  0.00  0.00    +0.000 C 
ATOM     25  C   UNL     1       7.380   6.507  17.913  0.00  0.00    +0.000 C 
ATOM     26  C   UNL     1       7.733   7.935  17.588  0.00  0.00    +0.000 C 
ENDBRANCH  23  25
ENDBRANCH  19  23
ENDBRANCH  13  20
ENDBRANCH  11  18
ENDBRANCH   1  11
BRANCH   5  27
ATOM     27  C   UNL     1      -1.313  12.540  21.197  0.00  0.00    +0.000 C 
ATOM     28  C   UNL     1      -0.752  12.989  22.336  0.00  0.00    +0.000 C 
BRANCH  28  29
ATOM     29  C   UNL     1      -1.425  13.798  23.354  0.00  0.00    +0.000 A 
ATOM     30  C   UNL     1      -2.765  13.549  23.661  0.00  0.00    +0.000 A 
ATOM     31  C   UNL     1      -3.355  14.238  24.716  0.00  0.00    +0.000 A 
ATOM     32  C   UNL     1      -2.604  15.167  25.423  0.00  0.00    +0.000 A 
ATOM     33  C   UNL     1      -1.294  15.383  25.030  0.00  0.00    +0.000 A 
ATOM     34  N   UNL     1      -0.691  14.724  24.014  0.00  0.00    +0.000 NA
ENDBRANCH  28  29
ENDBRANCH   5  27
TORSDOF 7
ENDMDL
MODEL 2
REMARK VINA RESULT:      -8.9      1.541      1.847
REMARK  Name = 
REMARK  8 active torsions:
REMARK  status: ('A' for Active; 'I' for Inactive)
REMARK    1  A    between atoms: C_2  and  C_3
REMARK    2  A    between atoms: C_2  and  C_4
REMARK    3  A    between atoms: C_4  and  N_5
REMARK    4  A    between atoms: C_6  and  C_8
REMARK    5  A    between atoms: C_13  and  N_14
REMARK    6  A    between atoms: N_14  and  C_15
REMARK    7  A    between atoms: C_19  and  C_20
REMARK    8  A    between atoms: C_21  and  C_22
REMARK                            x       y       z     vdW  Elec       q    Type
REMARK                         _______ _______ _______ _____ _____    ______ ____
ROOT
ATOM      1  C   UNL     1       1.982   7.573  19.992  0.00  0.00    +0.000 A 
ATOM      2  C   UNL     1       1.286   7.855  21.181  0.00  0.00    +0.000 A 
ATOM      3  C   UNL     1       0.546   9.039  21.369  0.00  0.00    +0.000 A 
ATOM      4  C   UNL     1       0.544  10.009  20.349  0.00  0.00    +0.000 A 
ATOM      5  C   UNL     1       0.129  11.366  20.175  0.00  0.00    +0.000 A 
ATOM      6  N   UNL     1       0.340  11.786  18.917  0.00  0.00    +0.000 NA
ATOM      7  N   UNL     1       0.932  10.744  18.322  0.00  0.00    +0.000 N 
ATOM      8  C   UNL     1       1.148   9.680  19.150  0.00  0.00    +0.000 A 
ATOM      9  C   UNL     1       1.855   8.489  18.942  0.00  0.00    +0.000 A 
ATOM     10  H   UNL     1       1.212  10.839  17.353  0.00  0.00    +0.000 HD
ENDROOT
BRANCH   1  11
ATOM     11  N   UNL     1       2.766   6.381  19.972  0.00  0.00    +0.000 N 
ATOM     12  H   UNL     1       3.595   6.575  19.401  0.00  0.00    +0.000 HD
BRANCH  11  18
ATOM     13  C   UNL     1       3.347   4.101  19.185  0.00  0.00    +0.000 A 
ATOM     14  C   UNL     1       2.996   2.735  19.061  0.00  0.00    +0.000 A 
ATOM     15  C   UNL     1       1.826   2.218  19.613  0.00  0.00    +0.000 A 
ATOM     16  C   UNL     1       0.994   3.069  20.310  0.00  0.00    +0.000 A 
ATOM     17  C   UNL     1       1.330   4.422  20.429  0.00  0.00    +0.000 A 
ATOM     18  C   UNL     1       2.471   4.992  19.864  0.00  0.00    +0.000 A 
BRANCH  13  20
ATOM     19  N   UNL     1       5.041   3.843  17.397  0.00  0.00    +0.000 N 
ATOM     20  C   UNL     1       4.677   4.431  18.594  0.00  0.00    +0.000 C 
ATOM     21  O   UNL     1       5.390   5.268  19.149  0.00  0.00    +0.000 OA
ATOM     22  H   UNL     1       4.529   3.035  17.067  0.00  0.00    +0.000 HD
BRANCH  19  23
ATOM     23  C   UNL     1       6.289   4.233  16.778  0.00  0.00    +0.000 C 
BRANCH  23  25
ATOM     24  C   UNL     1       6.655   4.563  14.347  0.00  0.00    +0.000 C 
ATOM     25  C   UNL     1       6.071   4.976  15.487  0.00  0.00    +0.000 C 
ATOM     26  C   UNL     1       5.298   6.269  15.522  0.00  0.00    +0.000 C 
ENDBRANCH  23  25
ENDBRANCH  19  23
ENDBRANCH  13  20
ENDBRANCH  11  18
ENDBRANCH   1  11
BRANCH   5  27
ATOM     27  C   UNL     1      -0.379  12.209  21.217  0.00  0.00    +0.000 C 
ATOM     28  C   UNL     1      -1.517  11.954  21.890  0.00  0.00    +0.000 C 
BRANCH  28  29
ATOM     29  C   UNL     1      -2.066  12.773  22.973  0.00  0.00    +0.000 A 
ATOM     30  C   UNL     1      -1.375  13.909  23.399  0.00  0.00    +0.000 A 
ATOM     31  C   UNL     1      -1.968  14.748  24.338  0.00  0.00    +0.000 A 
ATOM     32  C   UNL     1      -3.221  14.424  24.839  0.00  0.00    +0.000 A 
ATOM     33  C   UNL     1      -3.822  13.259  24.394  0.00  0.00    +0.000 A 
ATOM     34  N   UNL     1      -3.274  12.428  23.477  0.00  0.00    +0.000 NA
ENDBRANCH  28  29
ENDBRANCH   5  27
TORSDOF 7
ENDMDL
MODEL 3
REMARK VINA RESULT:      -8.8      1.159      1.370
REMARK  Name = 
REMARK  8 active torsions:
REMARK  status: ('A' for Active; 'I' for Inactive)
REMARK    1  A    between atoms: C_2  and  C_3
REMARK    2  A    between atoms: C_2  and  C_4
REMARK    3  A    between atoms: C_4  and  N_5
REMARK    4  A    between atoms: C_6  and  C_8
REMARK    5  A    between atoms: C_13  and  N_14
REMARK    6  A    between atoms: N_14  and  C_15
REMARK    7  A    between atoms: C_19  and  C_20
REMARK    8  A    between atoms: C_21  and  C_22
REMARK                            x       y       z     vdW  Elec       q    Type
REMARK                         _______ _______ _______ _____ _____    ______ ____
ROOT
ATOM      1  C   UNL     1       1.974   7.627  20.059  0.00  0.00    +0.000 A 
ATOM      2  C   UNL     1       1.288   7.971  21.238  0.00  0.00    +0.000 A 
ATOM      3  C   UNL     1       0.517   9.144  21.357  0.00  0.00    +0.000 A 
ATOM      4  C   UNL     1       0.470  10.040  20.273  0.00  0.00    +0.000 A 
ATOM      5  C   UNL     1       0.013  11.369  20.012  0.00  0.00    +0.000 A 
ATOM      6  N   UNL     1       0.192  11.707  18.725  0.00  0.00    +0.000 NA
ATOM      7  N   UNL     1       0.806  10.643  18.193  0.00  0.00    +0.000 N 
ATOM      8  C   UNL     1       1.065   9.646  19.089  0.00  0.00    +0.000 A 
ATOM      9  C   UNL     1       1.804   8.464  18.951  0.00  0.00    +0.000 A 
ATOM     10  H   UNL     1       1.068  10.679  17.215  0.00  0.00    +0.000 HD
ENDROOT
BRANCH   1  11
ATOM     11  N   UNL     1       2.792   6.459  20.109  0.00  0.00    +0.000 N 
ATOM     12  H   UNL     1       3.655   6.674  19.598  0.00  0.00    +0.000 HD
BRANCH  11  18
ATOM     13  C   UNL     1       3.545   4.174  19.503  0.00  0.00    +0.000 A 
ATOM     14  C   UNL     1       3.248   2.798  19.361  0.00  0.00    +0.000 A 
ATOM     15  C   UNL     1       2.010   2.266  19.716  0.00  0.00    +0.000 A 
ATOM     16  C   UNL     1       1.053   3.115  20.232  0.00  0.00    +0.000 A 
ATOM     17  C   UNL     1       1.337   4.479  20.366  0.00  0.00    +0.000 A 
ATOM     18  C   UNL     1       2.547   5.061  19.992  0.00  0.00    +0.000 A 
BRANCH  13  20
ATOM     19  N   UNL     1       5.505   3.969  18.002  0.00  0.00    +0.000 N 
ATOM     20  C   UNL     1       4.952   4.521  19.142  0.00  0.00    +0.000 C 
ATOM     21  O   UNL     1       5.564   5.339  19.830  0.00  0.00    +0.000 OA
ATOM     22  H   UNL     1       5.055   3.172  17.569  0.00  0.00    +0.000 HD
BRANCH  19  23
ATOM     23  C   UNL     1       6.834   4.377  17.602  0.00  0.00    +0.000 C 
BRANCH  23  25
ATOM     24  C   UNL     1       6.382   5.444  15.410  0.00  0.00    +0.000 C 
ATOM     25  C   UNL     1       6.807   5.567  16.681  0.00  0.00    +0.000 C 
ATOM     26  C   UNL     1       7.395   6.866  17.166  0.00  0.00    +0.000 C 
ENDBRANCH  23  25
ENDBRANCH  19  23
ENDBRANCH  13  20
ENDBRANCH  11  18
ENDBRANCH   1  11
BRANCH   5  27
ATOM     27  C   UNL     1      -0.503  12.268  21.002  0.00  0.00    +0.000 C 
ATOM     28  C   UNL     1      -1.588  12.001  21.755  0.00  0.00    +0.000 C 
BRANCH  28  29
ATOM     29  C   UNL     1      -2.142  12.877  22.789  0.00  0.00    +0.000 A 
ATOM     30  C   UNL     1      -3.414  12.618  23.305  0.00  0.00    +0.000 A 
ATOM     31  C   UNL     1      -3.876  13.380  24.374  0.00  0.00    +0.000 A 
ATOM     32  C   UNL     1      -3.070  14.387  24.887  0.00  0.00    +0.000 A 
ATOM     33  C   UNL     1      -1.839  14.604  24.293  0.00  0.00    +0.000 A 
ATOM     34  N   UNL     1      -1.359  13.876  23.257  0.00  0.00    +0.000 NA
ENDBRANCH  28  29
ENDBRANCH   5  27
TORSDOF 7
ENDMDL
MODEL 4
REMARK VINA RESULT:      -8.7      1.814      3.904
REMARK  Name = 
REMARK  8 active torsions:
REMARK  status: ('A' for Active; 'I' for Inactive)
REMARK    1  A    between atoms: C_2  and  C_3
REMARK    2  A    between atoms: C_2  and  C_4
REMARK    3  A    between atoms: C_4  and  N_5
REMARK    4  A    between atoms: C_6  and  C_8
REMARK    5  A    between atoms: C_13  and  N_14
REMARK    6  A    between atoms: N_14  and  C_15
REMARK    7  A    between atoms: C_19  and  C_20
REMARK    8  A    between atoms: C_21  and  C_22
REMARK                            x       y       z     vdW  Elec       q    Type
REMARK                         _______ _______ _______ _____ _____    ______ ____
ROOT
ATOM      1  C   UNL     1       2.584   7.408  18.994  0.00  0.00    +0.000 A 
ATOM      2  C   UNL     1       2.040   7.449  20.290  0.00  0.00    +0.000 A 
ATOM      3  C   UNL     1       1.144   8.452  20.711  0.00  0.00    +0.000 A 
ATOM      4  C   UNL     1       0.820   9.491  19.819  0.00  0.00    +0.000 A 
ATOM      5  C   UNL     1       0.156  10.757  19.859  0.00  0.00    +0.000 A 
ATOM      6  N   UNL     1       0.098  11.319  18.641  0.00  0.00    +0.000 NA
ATOM      7  N   UNL     1       0.763  10.464  17.856  0.00  0.00    +0.000 N 
ATOM      8  C   UNL     1       1.282   9.389  18.520  0.00  0.00    +0.000 A 
ATOM      9  C   UNL     1       2.143   8.375  18.083  0.00  0.00    +0.000 A 
ATOM     10  H   UNL     1       0.871  10.696  16.876  0.00  0.00    +0.000 HD
ENDROOT
BRANCH   1  11
ATOM     11  N   UNL     1       3.549   6.391  18.733  0.00  0.00    +0.000 N 
ATOM     12  H   UNL     1       4.235   6.423  19.494  0.00  0.00    +0.000 HD
BRANCH  11  18
ATOM     13  C   UNL     1       4.020   4.586  17.097  0.00  0.00    +0.000 A 
ATOM     14  C   UNL     1       4.729   4.138  15.957  0.00  0.00    +0.000 A 
ATOM     15  C   UNL     1       5.591   4.970  15.246  0.00  0.00    +0.000 A 
ATOM     16  C   UNL     1       5.745   6.274  15.669  0.00  0.00    +0.000 A 
ATOM     17  C   UNL     1       5.055   6.721  16.801  0.00  0.00    +0.000 A 
ATOM     18  C   UNL     1       4.209   5.916  17.564  0.00  0.00    +0.000 A 
BRANCH  13  20
ATOM     19  N   UNL     1       3.308   3.096  18.943  0.00  0.00    +0.000 N 
ATOM     20  C   UNL     1       3.091   3.563  17.661  0.00  0.00    +0.000 C 
ATOM     21  O   UNL     1       2.115   3.208  16.997  0.00  0.00    +0.000 OA
ATOM     22  H   UNL     1       4.204   3.260  19.384  0.00  0.00    +0.000 HD
BRANCH  19  23
ATOM     23  C   UNL     1       2.355   2.175  19.523  0.00  0.00    +0.000 C 
BRANCH  23  25
ATOM     24  C   UNL     1       0.732   3.911  20.230  0.00  0.00    +0.000 C 
ATOM     25  C   UNL     1       1.480   2.840  20.551  0.00  0.00    +0.000 C 
ATOM     26  C   UNL     1       1.563   2.369  21.980  0.00  0.00    +0.000 C 
ENDBRANCH  23  25
ENDBRANCH  19  23
ENDBRANCH  13  20
ENDBRANCH  11  18
ENDBRANCH   1  11
BRANCH   5  27
ATOM     27  C   UNL     1      -0.324  11.395  21.050  0.00  0.00    +0.000 C 
ATOM     28  C   UNL     1      -1.556  11.925  21.163  0.00  0.00    +0.000 C 
BRANCH  28  29
ATOM     29  C   UNL     1      -2.098  12.570  22.361  0.00  0.00    +0.000 A 
ATOM     30  C   UNL     1      -1.361  13.568  23.002  0.00  0.00    +0.000 A 
ATOM     31  C   UNL     1      -1.940  14.259  24.062  0.00  0.00    +0.000 A 
ATOM     32  C   UNL     1      -3.226  13.927  24.466  0.00  0.00    +0.000 A 
ATOM     33  C   UNL     1      -3.873  12.898  23.802  0.00  0.00    +0.000 A 
ATOM     34  N   UNL     1      -3.339  12.213  22.764  0.00  0.00    +0.000 NA
ENDBRANCH  28  29
ENDBRANCH   5  27
TORSDOF 7
ENDMDL
MODEL 5
REMARK VINA RESULT:      -8.7      1.219      1.568
REMARK  Name = 
REMARK  8 active torsions:
REMARK  status: ('A' for Active; 'I' for Inactive)
REMARK    1  A    between atoms: C_2  and  C_3
REMARK    2  A    between atoms: C_2  and  C_4
REMARK    3  A    between atoms: C_4  and  N_5
REMARK    4  A    between atoms: C_6  and  C_8
REMARK    5  A    between atoms: C_13  and  N_14
REMARK    6  A    between atoms: N_14  and  C_15
REMARK    7  A    between atoms: C_19  and  C_20
REMARK    8  A    between atoms: C_21  and  C_22
REMARK                            x       y       z     vdW  Elec       q    Type
REMARK                         _______ _______ _______ _____ _____    ______ ____
ROOT
ATOM      1  C   UNL     1       2.040   7.504  19.731  0.00  0.00    +0.000 A 
ATOM      2  C   UNL     1       1.308   7.708  20.914  0.00  0.00    +0.000 A 
ATOM      3  C   UNL     1       0.567   8.881  21.160  0.00  0.00    +0.000 A 
ATOM      4  C   UNL     1       0.601   9.918  20.210  0.00  0.00    +0.000 A 
ATOM      5  C   UNL     1       0.197  11.287  20.116  0.00  0.00    +0.000 A 
ATOM      6  N   UNL     1       0.450  11.791  18.898  0.00  0.00    +0.000 NA
ATOM      7  N   UNL     1       1.057  10.789  18.251  0.00  0.00    +0.000 N 
ATOM      8  C   UNL     1       1.241   9.669  19.010  0.00  0.00    +0.000 A 
ATOM      9  C   UNL     1       1.950   8.492  18.743  0.00  0.00    +0.000 A 
ATOM     10  H   UNL     1       1.367  10.949  17.300  0.00  0.00    +0.000 HD
ENDROOT
BRANCH   1  11
ATOM     11  N   UNL     1       2.820   6.312  19.654  0.00  0.00    +0.000 N 
ATOM     12  H   UNL     1       3.726   6.570  19.249  0.00  0.00    +0.000 HD
BRANCH  11  18
ATOM     13  C   UNL     1       3.186   4.344  18.187  0.00  0.00    +0.000 A 
ATOM     14  C   UNL     1       2.854   3.013  17.840  0.00  0.00    +0.000 A 
ATOM     15  C   UNL     1       1.937   2.262  18.572  0.00  0.00    +0.000 A 
ATOM     16  C   UNL     1       1.346   2.840  19.677  0.00  0.00    +0.000 A 
ATOM     17  C   UNL     1       1.662   4.159  20.021  0.00  0.00    +0.000 A 
ATOM     18  C   UNL     1       2.546   4.960  19.298  0.00  0.00    +0.000 A 
BRANCH  13  20
ATOM     19  N   UNL     1       4.883   6.092  17.742  0.00  0.00    +0.000 N 
ATOM     20  C   UNL     1       4.247   4.939  17.323  0.00  0.00    +0.000 C 
ATOM     21  O   UNL     1       4.579   4.354  16.291  0.00  0.00    +0.000 OA
ATOM     22  H   UNL     1       4.470   6.643  18.485  0.00  0.00    +0.000 HD
BRANCH  19  23
ATOM     23  C   UNL     1       5.974   6.616  16.951  0.00  0.00    +0.000 C 
BRANCH  23  25
ATOM     24  C   UNL     1       7.861   8.076  17.630  0.00  0.00    +0.000 C 
ATOM     25  C   UNL     1       7.185   6.924  17.791  0.00  0.00    +0.000 C 
ATOM     26  C   UNL     1       7.707   5.857  18.719  0.00  0.00    +0.000 C 
ENDBRANCH  23  25
ENDBRANCH  19  23
ENDBRANCH  13  20
ENDBRANCH  11  18
ENDBRANCH   1  11
BRANCH   5  27
ATOM     27  C   UNL     1      -0.340  12.059  21.198  0.00  0.00    +0.000 C 
ATOM     28  C   UNL     1      -1.553  11.836  21.739  0.00  0.00    +0.000 C 
BRANCH  28  29
ATOM     29  C   UNL     1      -2.137  12.584  22.854  0.00  0.00    +0.000 A 
ATOM     30  C   UNL     1      -1.525  13.760  23.294  0.00  0.00    +0.000 A 
ATOM     31  C   UNL     1      -2.157  14.527  24.267  0.00  0.00    +0.000 A 
ATOM     32  C   UNL     1      -3.370  14.096  24.787  0.00  0.00    +0.000 A 
ATOM     33  C   UNL     1      -3.891  12.900  24.325  0.00  0.00    +0.000 A 
ATOM     34  N   UNL     1      -3.303  12.136  23.375  0.00  0.00    +0.000 NA
ENDBRANCH  28  29
ENDBRANCH   5  27
TORSDOF 7
ENDMDL
MODEL 6
REMARK VINA RESULT:      -8.6      1.472      1.854
REMARK  Name = 
REMARK  8 active torsions:
REMARK  status: ('A' for Active; 'I' for Inactive)
REMARK    1  A    between atoms: C_2  and  C_3
REMARK    2  A    between atoms: C_2  and  C_4
REMARK    3  A    between atoms: C_4  and  N_5
REMARK    4  A    between atoms: C_6  and  C_8
REMARK    5  A    between atoms: C_13  and  N_14
REMARK    6  A    between atoms: N_14  and  C_15
REMARK    7  A    between atoms: C_19  and  C_20
REMARK    8  A    between atoms: C_21  and  C_22
REMARK                            x       y       z     vdW  Elec       q    Type
REMARK                         _______ _______ _______ _____ _____    ______ ____
ROOT
ATOM      1  C   UNL     1       1.964   7.497  20.098  0.00  0.00    +0.000 A 
ATOM      2  C   UNL     1       1.169   7.928  21.174  0.00  0.00    +0.000 A 
ATOM      3  C   UNL     1       0.442   9.135  21.152  0.00  0.00    +0.000 A 
ATOM      4  C   UNL     1       0.556   9.975  20.029  0.00  0.00    +0.000 A 
ATOM      5  C   UNL     1       0.189  11.306  19.657  0.00  0.00    +0.000 A 
ATOM      6  N   UNL     1       0.524  11.570  18.384  0.00  0.00    +0.000 NA
ATOM      7  N   UNL     1       1.144  10.458  17.974  0.00  0.00    +0.000 N 
ATOM      8  C   UNL     1       1.259   9.498  18.939  0.00  0.00    +0.000 A 
ATOM      9  C   UNL     1       1.955   8.283  18.939  0.00  0.00    +0.000 A 
ATOM     10  H   UNL     1       1.513  10.433  17.031  0.00  0.00    +0.000 HD
ENDROOT
BRANCH   1  11
ATOM     11  N   UNL     1       2.720   6.303  20.292  0.00  0.00    +0.000 N 
ATOM     12  H   UNL     1       3.680   6.501  19.991  0.00  0.00    +0.000 HD
BRANCH  11  18
ATOM     13  C   UNL     1       3.328   4.123  19.275  0.00  0.00    +0.000 A 
ATOM     14  C   UNL     1       3.020   2.759  19.056  0.00  0.00    +0.000 A 
ATOM     15  C   UNL     1       1.911   2.148  19.637  0.00  0.00    +0.000 A 
ATOM     16  C   UNL     1       1.097   2.902  20.457  0.00  0.00    +0.000 A 
ATOM     17  C   UNL     1       1.391   4.254  20.670  0.00  0.00    +0.000 A 
ATOM     18  C   UNL     1       2.469   4.916  20.084  0.00  0.00    +0.000 A 
BRANCH  13  20
ATOM     19  N   UNL     1       5.097   3.824  17.567  0.00  0.00    +0.000 N 
ATOM     20  C   UNL     1       4.601   4.557  18.629  0.00  0.00    +0.000 C 
ATOM     21  O   UNL     1       5.146   5.594  19.012  0.00  0.00    +0.000 OA
ATOM     22  H   UNL     1       4.738   2.893  17.399  0.00  0.00    +0.000 HD
BRANCH  19  23
ATOM     23  C   UNL     1       6.280   4.297  16.882  0.00  0.00    +0.000 C 
BRANCH  23  25
ATOM     24  C   UNL     1       5.359   6.009  15.342  0.00  0.00    +0.000 C 
ATOM     25  C   UNL     1       5.965   4.819  15.505  0.00  0.00    +0.000 C 
ATOM     26  C   UNL     1       6.216   3.922  14.321  0.00  0.00    +0.000 C 
ENDBRANCH  23  25
ENDBRANCH  19  23
ENDBRANCH  13  20
ENDBRANCH  11  18
ENDBRANCH   1  11
BRANCH   5  27
ATOM     27  C   UNL     1      -0.392  12.274  20.541  0.00  0.00    +0.000 C 
ATOM     28  C   UNL     1       0.293  12.889  21.524  0.00  0.00    +0.000 C 
BRANCH  28  29
ATOM     29  C   UNL     1      -0.250  13.895  22.438  0.00  0.00    +0.000 A 
ATOM     30  C   UNL     1      -1.319  13.564  23.274  0.00  0.00    +0.000 A 
ATOM     31  C   UNL     1      -1.743  14.487  24.225  0.00  0.00    +0.000 A 
ATOM     32  C   UNL     1      -1.104  15.717  24.308  0.00  0.00    +0.000 A 
ATOM     33  C   UNL     1      -0.078  15.981  23.417  0.00  0.00    +0.000 A 
ATOM     34  N   UNL     1       0.360  15.102  22.485  0.00  0.00    +0.000 NA
ENDBRANCH  28  29
ENDBRANCH   5  27
TORSDOF 7
ENDMDL
MODEL 7
REMARK VINA RESULT:      -8.6      0.983      1.235
REMARK  Name = 
REMARK  8 active torsions:
REMARK  status: ('A' for Active; 'I' for Inactive)
REMARK    1  A    between atoms: C_2  and  C_3
REMARK    2  A    between atoms: C_2  and  C_4
REMARK    3  A    between atoms: C_4  and  N_5
REMARK    4  A    between atoms: C_6  and  C_8
REMARK    5  A    between atoms: C_13  and  N_14
REMARK    6  A    between atoms: N_14  and  C_15
REMARK    7  A    between atoms: C_19  and  C_20
REMARK    8  A    between atoms: C_21  and  C_22
REMARK                            x       y       z     vdW  Elec       q    Type
REMARK                         _______ _______ _______ _____ _____    ______ ____
ROOT
ATOM      1  C   UNL     1       1.603   8.095  20.434  0.00  0.00    +0.000 A 
ATOM      2  C   UNL     1       1.075   8.521  21.665  0.00  0.00    +0.000 A 
ATOM      3  C   UNL     1       0.451   9.774  21.837  0.00  0.00    +0.000 A 
ATOM      4  C   UNL     1       0.401  10.662  20.747  0.00  0.00    +0.000 A 
ATOM      5  C   UNL     1       0.070  12.033  20.508  0.00  0.00    +0.000 A 
ATOM      6  N   UNL     1       0.163  12.340  19.204  0.00  0.00    +0.000 NA
ATOM      7  N   UNL     1       0.602  11.212  18.635  0.00  0.00    +0.000 N 
ATOM      8  C   UNL     1       0.834  10.197  19.519  0.00  0.00    +0.000 A 
ATOM      9  C   UNL     1       1.422   8.940  19.332  0.00  0.00    +0.000 A 
ATOM     10  H   UNL     1       0.772  11.212  17.636  0.00  0.00    +0.000 HD
ENDROOT
BRANCH   1  11
ATOM     11  N   UNL     1       2.289   6.845  20.426  0.00  0.00    +0.000 N 
ATOM     12  H   UNL     1       3.280   7.046  20.254  0.00  0.00    +0.000 HD
BRANCH  11  18
ATOM     13  C   UNL     1       2.556   5.117  18.666  0.00  0.00    +0.000 A 
ATOM     14  C   UNL     1       2.212   3.841  18.157  0.00  0.00    +0.000 A 
ATOM     15  C   UNL     1       1.369   2.972  18.845  0.00  0.00    +0.000 A 
ATOM     16  C   UNL     1       0.865   3.371  20.065  0.00  0.00    +0.000 A 
ATOM     17  C   UNL     1       1.192   4.635  20.570  0.00  0.00    +0.000 A 
ATOM     18  C   UNL     1       2.004   5.552  19.902  0.00  0.00    +0.000 A 
BRANCH  13  20
ATOM     19  N   UNL     1       4.629   5.176  17.312  0.00  0.00    +0.000 N 
ATOM     20  C   UNL     1       3.534   5.854  17.814  0.00  0.00    +0.000 C 
ATOM     21  O   UNL     1       3.310   7.030  17.522  0.00  0.00    +0.000 OA
ATOM     22  H   UNL     1       4.883   4.282  17.712  0.00  0.00    +0.000 HD
BRANCH  19  23
ATOM     23  C   UNL     1       5.527   5.866  16.412  0.00  0.00    +0.000 C 
BRANCH  23  25
ATOM     24  C   UNL     1       7.012   4.679  14.820  0.00  0.00    +0.000 C 
ATOM     25  C   UNL     1       6.745   5.042  16.087  0.00  0.00    +0.000 C 
ATOM     26  C   UNL     1       7.582   4.517  17.224  0.00  0.00    +0.000 C 
ENDBRANCH  23  25
ENDBRANCH  19  23
ENDBRANCH  13  20
ENDBRANCH  11  18
ENDBRANCH   1  11
BRANCH   5  27
ATOM     27  C   UNL     1      -0.248  12.989  21.527  0.00  0.00    +0.000 C 
ATOM     28  C   UNL     1      -1.295  12.863  22.364  0.00  0.00    +0.000 C 
BRANCH  28  29
ATOM     29  C   UNL     1      -1.650  13.801  23.430  0.00  0.00    +0.000 A 
ATOM     30  C   UNL     1      -2.908  13.721  24.032  0.00  0.00    +0.000 A 
ATOM     31  C   UNL     1      -3.186  14.533  25.127  0.00  0.00    +0.000 A 
ATOM     32  C   UNL     1      -2.214  15.414  25.581  0.00  0.00    +0.000 A 
ATOM     33  C   UNL     1      -1.007  15.460  24.904  0.00  0.00    +0.000 A 
ATOM     34  N   UNL     1      -0.705  14.678  23.841  0.00  0.00    +0.000 NA
ENDBRANCH  28  29
ENDBRANCH   5  27
TORSDOF 7
ENDMDL
MODEL 8
REMARK VINA RESULT:      -8.5      3.864      8.613
REMARK  Name = 
REMARK  8 active torsions:
REMARK  status: ('A' for Active; 'I' for Inactive)
REMARK    1  A    between atoms: C_2  and  C_3
REMARK    2  A    between atoms: C_2  and  C_4
REMARK    3  A    between atoms: C_4  and  N_5
REMARK    4  A    between atoms: C_6  and  C_8
REMARK    5  A    between atoms: C_13  and  N_14
REMARK    6  A    between atoms: N_14  and  C_15
REMARK    7  A    between atoms: C_19  and  C_20
REMARK    8  A    between atoms: C_21  and  C_22
REMARK                            x       y       z     vdW  Elec       q    Type
REMARK                         _______ _______ _______ _____ _____    ______ ____
ROOT
ATOM      1  C   UNL     1       4.806   5.152  17.391  0.00  0.00    +0.000 A 
ATOM      2  C   UNL     1       4.964   6.227  16.499  0.00  0.00    +0.000 A 
ATOM      3  C   UNL     1       6.037   7.137  16.583  0.00  0.00    +0.000 A 
ATOM      4  C   UNL     1       6.963   7.001  17.634  0.00  0.00    +0.000 A 
ATOM      5  C   UNL     1       8.033   7.753  18.211  0.00  0.00    +0.000 A 
ATOM      6  N   UNL     1       8.622   7.080  19.212  0.00  0.00    +0.000 NA
ATOM      7  N   UNL     1       7.905   5.955  19.313  0.00  0.00    +0.000 N 
ATOM      8  C   UNL     1       6.854   5.886  18.445  0.00  0.00    +0.000 A 
ATOM      9  C   UNL     1       5.811   4.957  18.346  0.00  0.00    +0.000 A 
ATOM     10  H   UNL     1       8.157   5.288  20.034  0.00  0.00    +0.000 HD
ENDROOT
BRANCH   1  11
ATOM     11  N   UNL     1       3.624   4.366  17.248  0.00  0.00    +0.000 N 
ATOM     12  H   UNL     1       3.092   4.760  16.465  0.00  0.00    +0.000 HD
BRANCH  11  18
ATOM     13  C   UNL     1       1.957   4.570  19.074  0.00  0.00    +0.000 A 
ATOM     14  C   UNL     1       1.081   3.943  19.992  0.00  0.00    +0.000 A 
ATOM     15  C   UNL     1       0.892   2.562  20.010  0.00  0.00    +0.000 A 
ATOM     16  C   UNL     1       1.577   1.791  19.094  0.00  0.00    +0.000 A 
ATOM     17  C   UNL     1       2.452   2.404  18.190  0.00  0.00    +0.000 A 
ATOM     18  C   UNL     1       2.700   3.776  18.157  0.00  0.00    +0.000 A 
BRANCH  13  20
ATOM     19  N   UNL     1       1.819   6.651  20.411  0.00  0.00    +0.000 N 
ATOM     20  C   UNL     1       1.952   6.060  19.169  0.00  0.00    +0.000 C 
ATOM     21  O   UNL     1       2.132   6.727  18.148  0.00  0.00    +0.000 OA
ATOM     22  H   UNL     1       1.491   6.095  21.191  0.00  0.00    +0.000 HD
BRANCH  19  23
ATOM     23  C   UNL     1       1.907   8.091  20.513  0.00  0.00    +0.000 C 
BRANCH  23  25
ATOM     24  C   UNL     1       1.472   9.313  22.627  0.00  0.00    +0.000 C 
ATOM     25  C   UNL     1       0.984   8.640  21.569  0.00  0.00    +0.000 C 
ATOM     26  C   UNL     1      -0.482   8.302  21.490  0.00  0.00    +0.000 C 
ENDBRANCH  23  25
ENDBRANCH  19  23
ENDBRANCH  13  20
ENDBRANCH  11  18
ENDBRANCH   1  11
BRANCH   5  27
ATOM     27  C   UNL     1       8.396   9.087  17.831  0.00  0.00    +0.000 C 
ATOM     28  C   UNL     1       9.083   9.925  18.630  0.00  0.00    +0.000 C 
BRANCH  28  29
ATOM     29  C   UNL     1       9.492  11.288  18.282  0.00  0.00    +0.000 A 
ATOM     30  C   UNL     1      10.773  11.517  17.775  0.00  0.00    +0.000 A 
ATOM     31  C   UNL     1      11.105  12.793  17.331  0.00  0.00    +0.000 A 
ATOM     32  C   UNL     1      10.161  13.808  17.419  0.00  0.00    +0.000 A 
ATOM     33  C   UNL     1       8.928  13.506  17.970  0.00  0.00    +0.000 A 
ATOM     34  N   UNL     1       8.573  12.274  18.404  0.00  0.00    +0.000 NA
ENDBRANCH  28  29
ENDBRANCH   5  27
TORSDOF 7
ENDMDL
MODEL 9
REMARK VINA RESULT:      -8.5      1.725      2.279
REMARK  Name = 
REMARK  8 active torsions:
REMARK  status: ('A' for Active; 'I' for Inactive)
REMARK    1  A    between atoms: C_2  and  C_3
REMARK    2  A    between atoms: C_2  and  C_4
REMARK    3  A    between atoms: C_4  and  N_5
REMARK    4  A    between atoms: C_6  and  C_8
REMARK    5  A    between atoms: C_13  and  N_14
REMARK    6  A    between atoms: N_14  and  C_15
REMARK    7  A    between atoms: C_19  and  C_20
REMARK    8  A    between atoms: C_21  and  C_22
REMARK                            x       y       z     vdW  Elec       q    Type
REMARK                         _______ _______ _______ _____ _____    ______ ____
ROOT
ATOM      1  C   UNL     1       2.297   7.354  19.365  0.00  0.00    +0.000 A 
ATOM      2  C   UNL     1       1.628   7.362  20.602  0.00  0.00    +0.000 A 
ATOM      3  C   UNL     1       0.806   8.429  21.018  0.00  0.00    +0.000 A 
ATOM      4  C   UNL     1       0.690   9.561  20.190  0.00  0.00    +0.000 A 
ATOM      5  C   UNL     1       0.165  10.888  20.272  0.00  0.00    +0.000 A 
ATOM      6  N   UNL     1       0.294  11.540  19.106  0.00  0.00    +0.000 NA
ATOM      7  N   UNL     1       0.941  10.673  18.319  0.00  0.00    +0.000 N 
ATOM      8  C   UNL     1       1.271   9.501  18.937  0.00  0.00    +0.000 A 
ATOM      9  C   UNL     1       2.059   8.429  18.500  0.00  0.00    +0.000 A 
ATOM     10  H   UNL     1       1.175  10.962  17.376  0.00  0.00    +0.000 HD
ENDROOT
BRANCH   1  11
ATOM     11  N   UNL     1       3.170   6.254  19.113  0.00  0.00    +0.000 N 
ATOM     12  H   UNL     1       3.963   6.617  18.574  0.00  0.00    +0.000 HD
BRANCH  11  18
ATOM     13  C   UNL     1       3.821   4.251  17.802  0.00  0.00    +0.000 A 
ATOM     14  C   UNL     1       3.571   2.906  17.439  0.00  0.00    +0.000 A 
ATOM     15  C   UNL     1       2.540   2.164  18.010  0.00  0.00    +0.000 A 
ATOM     16  C   UNL     1       1.747   2.764  18.966  0.00  0.00    +0.000 A 
ATOM     17  C   UNL     1       1.982   4.097  19.322  0.00  0.00    +0.000 A 
ATOM     18  C   UNL     1       2.979   4.889  18.754  0.00  0.00    +0.000 A 
BRANCH  13  20
ATOM     19  N   UNL     1       5.865   4.002  16.426  0.00  0.00    +0.000 N 
ATOM     20  C   UNL     1       5.020   4.836  17.133  0.00  0.00    +0.000 C 
ATOM     21  O   UNL     1       5.194   6.055  17.172  0.00  0.00    +0.000 OA
ATOM     22  H   UNL     1       5.803   3.001  16.565  0.00  0.00    +0.000 HD
BRANCH  19  23
ATOM     23  C   UNL     1       6.975   4.581  15.702  0.00  0.00    +0.000 C 
BRANCH  23  25
ATOM     24  C   UNL     1       5.740   3.850  13.679  0.00  0.00    +0.000 C 
ATOM     25  C   UNL     1       6.753   4.557  14.213  0.00  0.00    +0.000 C 
ATOM     26  C   UNL     1       7.766   5.228  13.323  0.00  0.00    +0.000 C 
ENDBRANCH  23  25
ENDBRANCH  19  23
ENDBRANCH  13  20
ENDBRANCH  11  18
ENDBRANCH   1  11
BRANCH   5  27
ATOM     27  C   UNL     1      -0.366  11.488  21.461  0.00  0.00    +0.000 C 
ATOM     28  C   UNL     1      -1.559  12.110  21.510  0.00  0.00    +0.000 C 
BRANCH  28  29
ATOM     29  C   UNL     1      -2.151  12.721  22.702  0.00  0.00    +0.000 A 
ATOM     30  C   UNL     1      -1.603  13.896  23.221  0.00  0.00    +0.000 A 
ATOM     31  C   UNL     1      -2.249  14.535  24.275  0.00  0.00    +0.000 A 
ATOM     32  C   UNL     1      -3.411  13.979  24.794  0.00  0.00    +0.000 A 
ATOM     33  C   UNL     1      -3.867  12.791  24.247  0.00  0.00    +0.000 A 
ATOM     34  N   UNL     1      -3.265  12.151  23.218  0.00  0.00    +0.000 NA
ENDBRANCH  28  29
ENDBRANCH   5  27
TORSDOF 7
ENDMDL
