MODEL 1
REMARK VINA RESULT:      -8.1      0.000      0.000
REMARK  Name = 
REMARK  5 active torsions:
REMARK  status: ('A' for Active; 'I' for Inactive)
REMARK    1  A    between atoms: C_2  and  C_3
REMARK    2  A    between atoms: C_6  and  O_7
REMARK    3  A    between atoms: O_7  and  C_8
REMARK    4  A    between atoms: C_8  and  C_9
REMARK    5  A    between atoms: C_8  and  C_15
REMARK                            x       y       z     vdW  Elec       q    Type
REMARK                         _______ _______ _______ _____ _____    ______ ____
ROOT
ATOM      1  C   UNL     1       3.453   4.635  18.382  0.00  0.00    +0.000 C 
ENDROOT
BRANCH   1   2
ATOM      2  C   UNL     1       2.781   3.273  18.727  0.00  0.00    +0.000 C 
ATOM      3  C   UNL     1       1.244   3.392  18.744  0.00  0.00    +0.000 C 
ATOM      4  C   UNL     1       0.686   3.797  20.103  0.00  0.00    +0.000 C 
ATOM      5  N   UNL     1       1.109   2.851  21.132  0.00  0.00    +0.000 NA
ATOM      6  C   UNL     1       2.565   2.868  21.268  0.00  0.00    +0.000 C 
ATOM      7  C   UNL     1       3.279   2.515  19.968  0.00  0.00    +0.000 C 
ATOM      8  H   UNL     1       0.803   1.913  20.870  0.00  0.00    +0.000 HD
ENDBRANCH   1   2
BRANCH   1   9
ATOM      9  C   UNL     1       4.770   4.487  17.627  0.00  0.00    +0.000 A 
ATOM     10  C   UNL     1       6.010   4.734  18.236  0.00  0.00    +0.000 A 
ATOM     11  C   UNL     1       7.185   4.719  17.482  0.00  0.00    +0.000 A 
ATOM     12  C   UNL     1       7.134   4.436  16.118  0.00  0.00    +0.000 A 
ATOM     13  C   UNL     1       5.914   4.151  15.510  0.00  0.00    +0.000 A 
ATOM     14  C   UNL     1       4.738   4.174  16.261  0.00  0.00    +0.000 A 
ENDBRANCH   1   9
BRANCH   1  15
ATOM     15  O   UNL     1       3.573   5.556  19.486  0.00  0.00    +0.000 OA
BRANCH  15  19
ATOM     16  C   UNL     1       1.314   9.074  18.976  0.00  0.00    +0.000 A 
ATOM     17  C   UNL     1       2.111   8.547  17.950  0.00  0.00    +0.000 A 
ATOM     18  C   UNL     1       2.864   7.379  18.157  0.00  0.00    +0.000 A 
ATOM     19  C   UNL     1       2.828   6.719  19.389  0.00  0.00    +0.000 A 
ATOM     20  C   UNL     1       2.049   7.265  20.415  0.00  0.00    +0.000 A 
ATOM     21  C   UNL     1       1.291   8.425  20.209  0.00  0.00    +0.000 A 
ATOM     22 CL   UNL     1       0.340   8.998  21.537  0.00  0.00    +0.000 Cl
BRANCH  16  24
ATOM     23  N   UNL     1      -0.072  11.229  18.548  0.00  0.00    +0.000 NA
ATOM     24  C   UNL     1       0.554  10.271  18.732  0.00  0.00    +0.000 C 
ENDBRANCH  16  24
ENDBRANCH  15  19
ENDBRANCH   1  15
TORSDOF 5
ENDMDL
MODEL 2
REMARK VINA RESULT:      -8.0      1.485      1.729
REMARK  Name = 
REMARK  5 active torsions:
REMARK  status: ('A' for Active; 'I' for Inactive)
REMARK    1  A    between atoms: C_2  and  C_3
REMARK    2  A    between atoms: C_6  and  O_7
REMARK    3  A    between atoms: O_7  and  C_8
REMARK    4  A    between atoms: C_8  and  C_9
REMARK    5  A    between atoms: C_8  and  C_15
REMARK                            x       y       z     vdW  Elec       q    Type
REMARK                         _______ _______ _______ _____ _____    ______ ____
ROOT
ATOM      1  C   UNL     1       3.421   5.621  18.152  0.00  0.00    +0.000 C 
ENDROOT
BRANCH   1   2
ATOM      2  C   UNL     1       2.896   4.335  17.445  0.00  0.00    +0.000 C 
ATOM      3  C   UNL     1       1.457   3.999  17.883  0.00  0.00    +0.000 C 
ATOM      4  C   UNL     1       1.396   3.115  19.124  0.00  0.00    +0.000 C 
ATOM      5  N   UNL     1       2.136   1.876  18.906  0.00  0.00    +0.000 NA
ATOM      6  C   UNL     1       3.553   2.165  18.682  0.00  0.00    +0.000 C 
ATOM      7  C   UNL     1       3.782   3.079  17.482  0.00  0.00    +0.000 C 
ATOM      8  H   UNL     1       1.754   1.397  18.090  0.00  0.00    +0.000 HD
ENDBRANCH   1   2
BRANCH   1   9
ATOM      9  C   UNL     1       4.942   5.720  18.179  0.00  0.00    +0.000 A 
ATOM     10  C   UNL     1       5.698   5.282  19.278  0.00  0.00    +0.000 A 
ATOM     11  C   UNL     1       7.075   5.509  19.326  0.00  0.00    +0.000 A 
ATOM     12  C   UNL     1       7.712   6.155  18.269  0.00  0.00    +0.000 A 
ATOM     13  C   UNL     1       6.980   6.559  17.155  0.00  0.00    +0.000 A 
ATOM     14  C   UNL     1       5.602   6.341  17.110  0.00  0.00    +0.000 A 
ENDBRANCH   1   9
BRANCH   1  15
ATOM     15  O   UNL     1       2.847   5.885  19.448  0.00  0.00    +0.000 OA
BRANCH  15  19
ATOM     16  C   UNL     1       0.914   9.620  19.680  0.00  0.00    +0.000 A 
ATOM     17  C   UNL     1       1.557   9.187  18.512  0.00  0.00    +0.000 A 
ATOM     18  C   UNL     1       2.206   7.941  18.472  0.00  0.00    +0.000 A 
ATOM     19  C   UNL     1       2.216   7.109  19.595  0.00  0.00    +0.000 A 
ATOM     20  C   UNL     1       1.592   7.559  20.763  0.00  0.00    +0.000 A 
ATOM     21  C   UNL     1       0.938   8.797  20.804  0.00  0.00    +0.000 A 
ATOM     22 CL   UNL     1       0.173   9.243  22.292  0.00  0.00    +0.000 Cl
BRANCH  16  24
ATOM     23  N   UNL     1      -0.270  11.933  19.674  0.00  0.00    +0.000 NA
ATOM     24  C   UNL     1       0.258  10.900  19.688  0.00  0.00    +0.000 C 
ENDBRANCH  16  24
ENDBRANCH  15  19
ENDBRANCH   1  15
TORSDOF 5
ENDMDL
MODEL 3
REMARK VINA RESULT:      -8.0      0.206      1.026
REMARK  Name = 
REMARK  5 active torsions:
REMARK  status: ('A' for Active; 'I' for Inactive)
REMARK    1  A    between atoms: C_2  and  C_3
REMARK    2  A    between atoms: C_6  and  O_7
REMARK    3  A    between atoms: O_7  and  C_8
REMARK    4  A    between atoms: C_8  and  C_9
REMARK    5  A    between atoms: C_8  and  C_15
REMARK                            x       y       z     vdW  Elec       q    Type
REMARK                         _______ _______ _______ _____ _____    ______ ____
ROOT
ATOM      1  C   UNL     1       3.415   4.836  18.388  0.00  0.00    +0.000 C 
ENDROOT
BRANCH   1   2
ATOM      2  C   UNL     1       2.787   3.442  18.687  0.00  0.00    +0.000 C 
ATOM      3  C   UNL     1       1.248   3.514  18.723  0.00  0.00    +0.000 C 
ATOM      4  C   UNL     1       0.693   3.850  20.102  0.00  0.00    +0.000 C 
ATOM      5  N   UNL     1       1.154   2.880  21.090  0.00  0.00    +0.000 NA
ATOM      6  C   UNL     1       2.611   2.935  21.213  0.00  0.00    +0.000 C 
ATOM      7  C   UNL     1       3.322   2.653  19.893  0.00  0.00    +0.000 C 
ATOM      8  H   UNL     1       0.874   1.943  20.795  0.00  0.00    +0.000 HD
ENDBRANCH   1   2
BRANCH   1   9
ATOM      9  C   UNL     1       4.747   4.756  17.650  0.00  0.00    +0.000 A 
ATOM     10  C   UNL     1       4.827   4.419  16.290  0.00  0.00    +0.000 A 
ATOM     11  C   UNL     1       6.067   4.224  15.680  0.00  0.00    +0.000 A 
ATOM     12  C   UNL     1       7.239   4.385  16.416  0.00  0.00    +0.000 A 
ATOM     13  C   UNL     1       7.175   4.758  17.756  0.00  0.00    +0.000 A 
ATOM     14  C   UNL     1       5.935   4.944  18.370  0.00  0.00    +0.000 A 
ENDBRANCH   1   9
BRANCH   1  15
ATOM     15  O   UNL     1       3.485   5.731  19.516  0.00  0.00    +0.000 OA
BRANCH  15  19
ATOM     16  C   UNL     1       1.187   9.225  19.018  0.00  0.00    +0.000 A 
ATOM     17  C   UNL     1       1.993   8.713  17.992  0.00  0.00    +0.000 A 
ATOM     18  C   UNL     1       2.760   7.554  18.196  0.00  0.00    +0.000 A 
ATOM     19  C   UNL     1       2.727   6.886  19.423  0.00  0.00    +0.000 A 
ATOM     20  C   UNL     1       1.938   7.417  20.449  0.00  0.00    +0.000 A 
ATOM     21  C   UNL     1       1.166   8.569  20.247  0.00  0.00    +0.000 A 
ATOM     22 CL   UNL     1       0.203   9.123  21.574  0.00  0.00    +0.000 Cl
BRANCH  16  24
ATOM     23  N   UNL     1      -0.200  11.382  18.599  0.00  0.00    +0.000 NA
ATOM     24  C   UNL     1       0.413  10.415  18.777  0.00  0.00    +0.000 C 
ENDBRANCH  16  24
ENDBRANCH  15  19
ENDBRANCH   1  15
TORSDOF 5
ENDMDL
MODEL 4
REMARK VINA RESULT:      -7.8      1.457      1.886
REMARK  Name = 
REMARK  5 active torsions:
REMARK  status: ('A' for Active; 'I' for Inactive)
REMARK    1  A    between atoms: C_2  and  C_3
REMARK    2  A    between atoms: C_6  and  O_7
REMARK    3  A    between atoms: O_7  and  C_8
REMARK    4  A    between atoms: C_8  and  C_9
REMARK    5  A    between atoms: C_8  and  C_15
REMARK                            x       y       z     vdW  Elec       q    Type
REMARK                         _______ _______ _______ _____ _____    ______ ____
ROOT
ATOM      1  C   UNL     1       3.475   5.651  17.990  0.00  0.00    +0.000 C 
ENDROOT
BRANCH   1   2
ATOM      2  C   UNL     1       3.065   4.296  17.342  0.00  0.00    +0.000 C 
ATOM      3  C   UNL     1       1.591   3.954  17.636  0.00  0.00    +0.000 C 
ATOM      4  C   UNL     1       1.400   3.176  18.933  0.00  0.00    +0.000 C 
ATOM      5  N   UNL     1       2.187   1.946  18.912  0.00  0.00    +0.000 NA
ATOM      6  C   UNL     1       3.613   2.258  18.830  0.00  0.00    +0.000 C 
ATOM      7  C   UNL     1       3.965   3.075  17.591  0.00  0.00    +0.000 C 
ATOM      8  H   UNL     1       1.914   1.389  18.101  0.00  0.00    +0.000 HD
ENDBRANCH   1   2
BRANCH   1   9
ATOM      9  C   UNL     1       4.984   5.835  18.108  0.00  0.00    +0.000 A 
ATOM     10  C   UNL     1       5.762   6.319  17.044  0.00  0.00    +0.000 A 
ATOM     11  C   UNL     1       7.154   6.349  17.141  0.00  0.00    +0.000 A 
ATOM     12  C   UNL     1       7.781   5.917  18.308  0.00  0.00    +0.000 A 
ATOM     13  C   UNL     1       7.019   5.471  19.385  0.00  0.00    +0.000 A 
ATOM     14  C   UNL     1       5.628   5.432  19.287  0.00  0.00    +0.000 A 
ENDBRANCH   1   9
BRANCH   1  15
ATOM     15  O   UNL     1       2.802   5.968  19.226  0.00  0.00    +0.000 OA
BRANCH  15  19
ATOM     16  C   UNL     1       1.008   9.779  19.225  0.00  0.00    +0.000 A 
ATOM     17  C   UNL     1       1.582   9.227  18.071  0.00  0.00    +0.000 A 
ATOM     18  C   UNL     1       2.186   7.959  18.109  0.00  0.00    +0.000 A 
ATOM     19  C   UNL     1       2.220   7.223  19.296  0.00  0.00    +0.000 A 
ATOM     20  C   UNL     1       1.666   7.790  20.448  0.00  0.00    +0.000 A 
ATOM     21  C   UNL     1       1.056   9.052  20.413  0.00  0.00    +0.000 A 
ATOM     22 CL   UNL     1       0.377   9.646  21.889  0.00  0.00    +0.000 Cl
BRANCH  16  24
ATOM     23  N   UNL     1      -0.078  12.135  19.090  0.00  0.00    +0.000 NA
ATOM     24  C   UNL     1       0.397  11.079  19.154  0.00  0.00    +0.000 C 
ENDBRANCH  16  24
ENDBRANCH  15  19
ENDBRANCH   1  15
TORSDOF 5
ENDMDL
MODEL 5
REMARK VINA RESULT:      -7.7      1.812      2.238
REMARK  Name = 
REMARK  5 active torsions:
REMARK  status: ('A' for Active; 'I' for Inactive)
REMARK    1  A    between atoms: C_2  and  C_3
REMARK    2  A    between atoms: C_6  and  O_7
REMARK    3  A    between atoms: O_7  and  C_8
REMARK    4  A    between atoms: C_8  and  C_9
REMARK    5  A    between atoms: C_8  and  C_15
REMARK                            x       y       z     vdW  Elec       q    Type
REMARK                         _______ _______ _______ _____ _____    ______ ____
ROOT
ATOM      1  C   UNL     1       3.452   5.434  18.168  0.00  0.00    +0.000 C 
ENDROOT
BRANCH   1   2
ATOM      2  C   UNL     1       3.021   4.131  17.431  0.00  0.00    +0.000 C 
ATOM      3  C   UNL     1       1.519   3.844  17.625  0.00  0.00    +0.000 C 
ATOM      4  C   UNL     1       1.220   3.016  18.870  0.00  0.00    +0.000 C 
ATOM      5  N   UNL     1       1.952   1.753  18.833  0.00  0.00    +0.000 NA
ATOM      6  C   UNL     1       3.393   2.002  18.846  0.00  0.00    +0.000 C 
ATOM      7  C   UNL     1       3.851   2.859  17.670  0.00  0.00    +0.000 C 
ATOM      8  H   UNL     1       1.703   1.247  17.981  0.00  0.00    +0.000 HD
ENDBRANCH   1   2
BRANCH   1   9
ATOM      9  C   UNL     1       4.961   5.650  18.186  0.00  0.00    +0.000 A 
ATOM     10  C   UNL     1       5.758   5.255  19.273  0.00  0.00    +0.000 A 
ATOM     11  C   UNL     1       7.113   5.588  19.315  0.00  0.00    +0.000 A 
ATOM     12  C   UNL     1       7.690   6.297  18.263  0.00  0.00    +0.000 A 
ATOM     13  C   UNL     1       6.920   6.660  17.161  0.00  0.00    +0.000 A 
ATOM     14  C   UNL     1       5.562   6.337  17.122  0.00  0.00    +0.000 A 
ENDBRANCH   1   9
BRANCH   1  15
ATOM     15  O   UNL     1       2.871   5.620  19.475  0.00  0.00    +0.000 OA
BRANCH  15  19
ATOM     16  C   UNL     1       0.924   9.252  20.339  0.00  0.00    +0.000 A 
ATOM     17  C   UNL     1       0.902   8.168  21.227  0.00  0.00    +0.000 A 
ATOM     18  C   UNL     1       1.549   6.964  20.901  0.00  0.00    +0.000 A 
ATOM     19  C   UNL     1       2.232   6.829  19.689  0.00  0.00    +0.000 A 
ATOM     20  C   UNL     1       2.229   7.908  18.799  0.00  0.00    +0.000 A 
ATOM     21  C   UNL     1       1.591   9.112  19.124  0.00  0.00    +0.000 A 
ATOM     22 CL   UNL     1       1.674  10.393  17.962  0.00  0.00    +0.000 Cl
BRANCH  16  24
ATOM     23  N   UNL     1      -0.309  11.444  20.994  0.00  0.00    +0.000 NA
ATOM     24  C   UNL     1       0.251  10.472  20.701  0.00  0.00    +0.000 C 
ENDBRANCH  16  24
ENDBRANCH  15  19
ENDBRANCH   1  15
TORSDOF 5
ENDMDL
MODEL 6
REMARK VINA RESULT:      -7.7      1.171      1.823
REMARK  Name = 
REMARK  5 active torsions:
REMARK  status: ('A' for Active; 'I' for Inactive)
REMARK    1  A    between atoms: C_2  and  C_3
REMARK    2  A    between atoms: C_6  and  O_7
REMARK    3  A    between atoms: O_7  and  C_8
REMARK    4  A    between atoms: C_8  and  C_9
REMARK    5  A    between atoms: C_8  and  C_15
REMARK                            x       y       z     vdW  Elec       q    Type
REMARK                         _______ _______ _______ _____ _____    ______ ____
ROOT
ATOM      1  C   UNL     1       3.057   5.754  18.054  0.00  0.00    +0.000 C 
ENDROOT
BRANCH   1   2
ATOM      2  C   UNL     1       2.138   4.502  17.939  0.00  0.00    +0.000 C 
ATOM      3  C   UNL     1       1.616   4.058  19.321  0.00  0.00    +0.000 C 
ATOM      4  C   UNL     1       2.545   3.079  20.029  0.00  0.00    +0.000 C 
ATOM      5  N   UNL     1       2.776   1.900  19.199  0.00  0.00    +0.000 NA
ATOM      6  C   UNL     1       3.453   2.279  17.959  0.00  0.00    +0.000 C 
ATOM      7  C   UNL     1       2.659   3.294  17.143  0.00  0.00    +0.000 C 
ATOM      8  H   UNL     1       1.879   1.467  18.976  0.00  0.00    +0.000 HD
ENDBRANCH   1   2
BRANCH   1   9
ATOM      9  C   UNL     1       4.505   5.482  17.659  0.00  0.00    +0.000 A 
ATOM     10  C   UNL     1       4.925   5.479  16.320  0.00  0.00    +0.000 A 
ATOM     11  C   UNL     1       6.225   5.096  15.986  0.00  0.00    +0.000 A 
ATOM     12  C   UNL     1       7.124   4.733  16.987  0.00  0.00    +0.000 A 
ATOM     13  C   UNL     1       6.731   4.769  18.323  0.00  0.00    +0.000 A 
ATOM     14  C   UNL     1       5.429   5.143  18.658  0.00  0.00    +0.000 A 
ENDBRANCH   1   9
BRANCH   1  15
ATOM     15  O   UNL     1       2.971   6.465  19.306  0.00  0.00    +0.000 OA
BRANCH  15  19
ATOM     16  C   UNL     1       0.696  10.000  19.046  0.00  0.00    +0.000 A 
ATOM     17  C   UNL     1       1.373   9.469  17.939  0.00  0.00    +0.000 A 
ATOM     18  C   UNL     1       2.137   8.295  18.063  0.00  0.00    +0.000 A 
ATOM     19  C   UNL     1       2.229   7.634  19.291  0.00  0.00    +0.000 A 
ATOM     20  C   UNL     1       1.569   8.183  20.395  0.00  0.00    +0.000 A 
ATOM     21  C   UNL     1       0.801   9.349  20.273  0.00  0.00    +0.000 A 
ATOM     22 CL   UNL     1       0.002   9.926  21.696  0.00  0.00    +0.000 Cl
BRANCH  16  24
ATOM     23  N   UNL     1      -0.715  12.164  18.769  0.00  0.00    +0.000 NA
ATOM     24  C   UNL     1      -0.078  11.202  18.886  0.00  0.00    +0.000 C 
ENDBRANCH  16  24
ENDBRANCH  15  19
ENDBRANCH   1  15
TORSDOF 5
ENDMDL
MODEL 7
REMARK VINA RESULT:      -7.7      2.060      4.362
REMARK  Name = 
REMARK  5 active torsions:
REMARK  status: ('A' for Active; 'I' for Inactive)
REMARK    1  A    between atoms: C_2  and  C_3
REMARK    2  A    between atoms: C_6  and  O_7
REMARK    3  A    between atoms: O_7  and  C_8
REMARK    4  A    between atoms: C_8  and  C_9
REMARK    5  A    between atoms: C_8  and  C_15
REMARK                            x       y       z     vdW  Elec       q    Type
REMARK                         _______ _______ _______ _____ _____    ______ ____
ROOT
ATOM      1  C   UNL     1       3.962   5.399  18.680  0.00  0.00    +0.000 C 
ENDROOT
BRANCH   1   2
ATOM      2  C   UNL     1       5.308   4.753  18.237  0.00  0.00    +0.000 C 
ATOM      3  C   UNL     1       6.516   5.565  18.746  0.00  0.00    +0.000 C 
ATOM      4  C   UNL     1       6.946   6.669  17.786  0.00  0.00    +0.000 C 
ATOM      5  N   UNL     1       7.257   6.112  16.472  0.00  0.00    +0.000 NA
ATOM      6  C   UNL     1       6.063   5.505  15.885  0.00  0.00    +0.000 C 
ATOM      7  C   UNL     1       5.483   4.393  16.753  0.00  0.00    +0.000 C 
ATOM      8  H   UNL     1       7.984   5.403  16.573  0.00  0.00    +0.000 HD
ENDBRANCH   1   2
BRANCH   1   9
ATOM      9  C   UNL     1       2.906   4.379  19.093  0.00  0.00    +0.000 A 
ATOM     10  C   UNL     1       2.071   3.749  18.157  0.00  0.00    +0.000 A 
ATOM     11  C   UNL     1       1.029   2.922  18.581  0.00  0.00    +0.000 A 
ATOM     12  C   UNL     1       0.825   2.699  19.941  0.00  0.00    +0.000 A 
ATOM     13  C   UNL     1       1.672   3.286  20.879  0.00  0.00    +0.000 A 
ATOM     14  C   UNL     1       2.708   4.121  20.457  0.00  0.00    +0.000 A 
ENDBRANCH   1   9
BRANCH   1  15
ATOM     15  O   UNL     1       3.425   6.381  17.770  0.00  0.00    +0.000 OA
BRANCH  15  19
ATOM     16  C   UNL     1       1.148   9.566  19.324  0.00  0.00    +0.000 A 
ATOM     17  C   UNL     1       1.590   9.547  17.993  0.00  0.00    +0.000 A 
ATOM     18  C   UNL     1       2.361   8.476  17.510  0.00  0.00    +0.000 A 
ATOM     19  C   UNL     1       2.696   7.408  18.346  0.00  0.00    +0.000 A 
ATOM     20  C   UNL     1       2.272   7.446  19.678  0.00  0.00    +0.000 A 
ATOM     21  C   UNL     1       1.497   8.509  20.162  0.00  0.00    +0.000 A 
ATOM     22 CL   UNL     1       1.001   8.441  21.819  0.00  0.00    +0.000 Cl
BRANCH  16  24
ATOM     23  N   UNL     1      -0.258  11.584  20.162  0.00  0.00    +0.000 NA
ATOM     24  C   UNL     1       0.360  10.677  19.787  0.00  0.00    +0.000 C 
ENDBRANCH  16  24
ENDBRANCH  15  19
ENDBRANCH   1  15
TORSDOF 5
ENDMDL
MODEL 8
REMARK VINA RESULT:      -7.6      2.063      4.234
REMARK  Name = 
REMARK  5 active torsions:
REMARK  status: ('A' for Active; 'I' for Inactive)
REMARK    1  A    between atoms: C_2  and  C_3
REMARK    2  A    between atoms: C_6  and  O_7
REMARK    3  A    between atoms: O_7  and  C_8
REMARK    4  A    between atoms: C_8  and  C_9
REMARK    5  A    between atoms: C_8  and  C_15
REMARK                            x       y       z     vdW  Elec       q    Type
REMARK                         _______ _______ _______ _____ _____    ______ ____
ROOT
ATOM      1  C   UNL     1       3.857   5.476  18.690  0.00  0.00    +0.000 C 
ENDROOT
BRANCH   1   2
ATOM      2  C   UNL     1       5.159   4.767  18.213  0.00  0.00    +0.000 C 
ATOM      3  C   UNL     1       6.417   5.487  18.739  0.00  0.00    +0.000 C 
ATOM      4  C   UNL     1       6.906   6.595  17.814  0.00  0.00    +0.000 C 
ATOM      5  N   UNL     1       7.174   6.068  16.479  0.00  0.00    +0.000 NA
ATOM      6  C   UNL     1       5.941   5.554  15.882  0.00  0.00    +0.000 C 
ATOM      7  C   UNL     1       5.301   4.449  16.716  0.00  0.00    +0.000 C 
ATOM      8  H   UNL     1       7.858   5.313  16.549  0.00  0.00    +0.000 HD
ENDBRANCH   1   2
BRANCH   1   9
ATOM      9  C   UNL     1       2.773   4.508  19.153  0.00  0.00    +0.000 A 
ATOM     10  C   UNL     1       2.625   4.144  20.500  0.00  0.00    +0.000 A 
ATOM     11  C   UNL     1       1.711   3.156  20.870  0.00  0.00    +0.000 A 
ATOM     12  C   UNL     1       0.922   2.538  19.902  0.00  0.00    +0.000 A 
ATOM     13  C   UNL     1       1.031   2.918  18.566  0.00  0.00    +0.000 A 
ATOM     14  C   UNL     1       1.951   3.900  18.194  0.00  0.00    +0.000 A 
ENDBRANCH   1   9
BRANCH   1  15
ATOM     15  O   UNL     1       3.332   6.469  17.784  0.00  0.00    +0.000 OA
BRANCH  15  19
ATOM     16  C   UNL     1       1.085   9.669  19.348  0.00  0.00    +0.000 A 
ATOM     17  C   UNL     1       1.523   9.649  18.016  0.00  0.00    +0.000 A 
ATOM     18  C   UNL     1       2.284   8.572  17.529  0.00  0.00    +0.000 A 
ATOM     19  C   UNL     1       2.613   7.500  18.363  0.00  0.00    +0.000 A 
ATOM     20  C   UNL     1       2.192   7.539  19.696  0.00  0.00    +0.000 A 
ATOM     21  C   UNL     1       1.426   8.608  20.183  0.00  0.00    +0.000 A 
ATOM     22 CL   UNL     1       0.934   8.541  21.841  0.00  0.00    +0.000 Cl
BRANCH  16  24
ATOM     23  N   UNL     1      -0.338  11.673  20.191  0.00  0.00    +0.000 NA
ATOM     24  C   UNL     1       0.307  10.785  19.815  0.00  0.00    +0.000 C 
ENDBRANCH  16  24
ENDBRANCH  15  19
ENDBRANCH   1  15
TORSDOF 5
ENDMDL
MODEL 9
REMARK VINA RESULT:      -7.6      1.824      2.409
REMARK  Name = 
REMARK  5 active torsions:
REMARK  status: ('A' for Active; 'I' for Inactive)
REMARK    1  A    between atoms: C_2  and  C_3
REMARK    2  A    between atoms: C_6  and  O_7
REMARK    3  A    between atoms: O_7  and  C_8
REMARK    4  A    between atoms: C_8  and  C_9
REMARK    5  A    between atoms: C_8  and  C_15
REMARK                            x       y       z     vdW  Elec       q    Type
REMARK                         _______ _______ _______ _____ _____    ______ ____
ROOT
ATOM      1  C   UNL     1       3.511   5.501  18.152  0.00  0.00    +0.000 C 
ENDROOT
BRANCH   1   2
ATOM      2  C   UNL     1       3.197   4.167  17.411  0.00  0.00    +0.000 C 
ATOM      3  C   UNL     1       1.690   3.845  17.445  0.00  0.00    +0.000 C 
ATOM      4  C   UNL     1       1.273   3.043  18.672  0.00  0.00    +0.000 C 
ATOM      5  N   UNL     1       2.035   1.800  18.754  0.00  0.00    +0.000 NA
ATOM      6  C   UNL     1       3.459   2.088  18.920  0.00  0.00    +0.000 C 
ATOM      7  C   UNL     1       4.025   2.926  17.778  0.00  0.00    +0.000 C 
ATOM      8  H   UNL     1       1.895   1.265  17.895  0.00  0.00    +0.000 HD
ENDBRANCH   1   2
BRANCH   1   9
ATOM      9  C   UNL     1       4.999   5.831  18.204  0.00  0.00    +0.000 A 
ATOM     10  C   UNL     1       5.652   6.498  17.156  0.00  0.00    +0.000 A 
ATOM     11  C   UNL     1       7.037   6.665  17.177  0.00  0.00    +0.000 A 
ATOM     12  C   UNL     1       7.781   6.187  18.254  0.00  0.00    +0.000 A 
ATOM     13  C   UNL     1       7.141   5.558  19.319  0.00  0.00    +0.000 A 
ATOM     14  C   UNL     1       5.757   5.382  19.295  0.00  0.00    +0.000 A 
ENDBRANCH   1   9
BRANCH   1  15
ATOM     15  O   UNL     1       2.888   5.645  19.445  0.00  0.00    +0.000 OA
BRANCH  15  19
ATOM     16  C   UNL     1       0.931   9.258  20.366  0.00  0.00    +0.000 A 
ATOM     17  C   UNL     1       0.940   8.171  21.251  0.00  0.00    +0.000 A 
ATOM     18  C   UNL     1       1.590   6.974  20.907  0.00  0.00    +0.000 A 
ATOM     19  C   UNL     1       2.244   6.848  19.678  0.00  0.00    +0.000 A 
ATOM     20  C   UNL     1       2.210   7.929  18.792  0.00  0.00    +0.000 A 
ATOM     21  C   UNL     1       1.569   9.127  19.135  0.00  0.00    +0.000 A 
ATOM     22 CL   UNL     1       1.613  10.411  17.975  0.00  0.00    +0.000 Cl
BRANCH  16  24
ATOM     23  N   UNL     1      -0.270  11.453  21.068  0.00  0.00    +0.000 NA
ATOM     24  C   UNL     1       0.257  10.471  20.749  0.00  0.00    +0.000 C 
ENDBRANCH  16  24
ENDBRANCH  15  19
ENDBRANCH   1  15
TORSDOF 5
ENDMDL
