MODEL 1
REMARK VINA RESULT:      -7.0      0.000      0.000
REMARK  Name = 
REMARK  11 active torsions:
REMARK  status: ('A' for Active; 'I' for Inactive)
REMARK    1  A    between atoms: C_1  and  C_2
REMARK    2  A    between atoms: C_2  and  C_3
REMARK    3  A    between atoms: C_3  and  C_4
REMARK    4  A    between atoms: C_4  and  C_5
REMARK    5  A    between atoms: C_5  and  C_6
REMARK    6  A    between atoms: C_6  and  C_7
REMARK    7  A    between atoms: C_7  and  O_9
REMARK    8  A    between atoms: O_9  and  C_10
REMARK    9  A    between atoms: C_10  and  C_11
REMARK   10  A    between atoms: C_11  and  N_12
REMARK   11  A    between atoms: N_15  and  C_16
REMARK                            x       y       z     vdW  Elec       q    Type
REMARK                         _______ _______ _______ _____ _____    ______ ____
ROOT
ATOM      1  N   UNL     1       6.945   5.075  19.040  0.00  0.00    +0.000 N 
ATOM      2  C   UNL     1       5.601   4.801  19.064  0.00  0.00    +0.000 C 
ATOM      3  O   UNL     1       4.786   5.718  18.973  0.00  0.00    +0.000 OA
ATOM      4  N   UNL     1       5.304   3.465  19.233  0.00  0.00    +0.000 N 
ATOM      5  H   UNL     1       7.615   4.335  18.893  0.00  0.00    +0.000 HD
ATOM      6  H   UNL     1       6.051   2.870  19.564  0.00  0.00    +0.000 HD
ENDROOT
BRANCH   4   7
ATOM      7  C   UNL     1       3.981   2.946  19.302  0.00  0.00    +0.000 A 
ATOM      8  C   UNL     1       3.311   2.466  18.168  0.00  0.00    +0.000 A 
ATOM      9  C   UNL     1       1.985   2.041  18.230  0.00  0.00    +0.000 A 
ATOM     10  C   UNL     1       1.306   2.071  19.441  0.00  0.00    +0.000 A 
ATOM     11  C   UNL     1       1.971   2.507  20.586  0.00  0.00    +0.000 A 
ATOM     12 CL   UNL     1       1.114   2.557  22.079  0.00  0.00    +0.000 Cl
ATOM     13  C   UNL     1       3.308   2.932  20.528  0.00  0.00    +0.000 A 
ENDBRANCH   4   7
BRANCH   1  14
ATOM     14  C   UNL     1       7.392   6.460  18.959  0.00  0.00    +0.000 C 
BRANCH  14  15
ATOM     15  C   UNL     1       7.905   6.881  17.575  0.00  0.00    +0.000 C 
BRANCH  15  16
ATOM     16  O   UNL     1       6.897   6.661  16.566  0.00  0.00    +0.000 OA
BRANCH  16  17
ATOM     17  C   UNL     1       6.926   5.436  15.976  0.00  0.00    +0.000 C 
ATOM     18  O   UNL     1       7.849   4.639  16.070  0.00  0.00    +0.000 OA
BRANCH  17  19
ATOM     19  C   UNL     1       5.673   5.167  15.180  0.00  0.00    +0.000 C 
BRANCH  19  20
ATOM     20  C   UNL     1       5.734   3.860  14.393  0.00  0.00    +0.000 C 
BRANCH  20  21
ATOM     21  C   UNL     1       6.318   4.041  12.987  0.00  0.00    +0.000 C 
BRANCH  21  22
ATOM     22  C   UNL     1       5.740   3.008  12.019  0.00  0.00    +0.000 C 
BRANCH  22  24
ATOM     23  C   UNL     1       6.244   0.785  10.953  0.00  0.00    +0.000 C 
ATOM     24  C   UNL     1       6.828   2.098  11.452  0.00  0.00    +0.000 C 
ENDBRANCH  22  24
ENDBRANCH  21  22
ENDBRANCH  20  21
ENDBRANCH  19  20
ENDBRANCH  17  19
ENDBRANCH  16  17
ENDBRANCH  15  16
ENDBRANCH  14  15
ENDBRANCH   1  14
TORSDOF 10
ENDMDL
MODEL 2
REMARK VINA RESULT:      -6.6      4.666      8.454
REMARK  Name = 
REMARK  11 active torsions:
REMARK  status: ('A' for Active; 'I' for Inactive)
REMARK    1  A    between atoms: C_1  and  C_2
REMARK    2  A    between atoms: C_2  and  C_3
REMARK    3  A    between atoms: C_3  and  C_4
REMARK    4  A    between atoms: C_4  and  C_5
REMARK    5  A    between atoms: C_5  and  C_6
REMARK    6  A    between atoms: C_6  and  C_7
REMARK    7  A    between atoms: C_7  and  O_9
REMARK    8  A    between atoms: O_9  and  C_10
REMARK    9  A    between atoms: C_10  and  C_11
REMARK   10  A    between atoms: C_11  and  N_12
REMARK   11  A    between atoms: N_15  and  C_16
REMARK                            x       y       z     vdW  Elec       q    Type
REMARK                         _______ _______ _______ _____ _____    ______ ____
ROOT
ATOM      1  N   UNL     1       8.217   7.240  18.638  0.00  0.00    +0.000 N 
ATOM      2  C   UNL     1       8.317   8.592  18.430  0.00  0.00    +0.000 C 
ATOM      3  O   UNL     1       7.629   9.132  17.564  0.00  0.00    +0.000 OA
ATOM      4  N   UNL     1       9.252   9.216  19.229  0.00  0.00    +0.000 N 
ATOM      5  H   UNL     1       8.600   6.822  19.474  0.00  0.00    +0.000 HD
ATOM      6  H   UNL     1       9.925   8.621  19.692  0.00  0.00    +0.000 HD
ENDROOT
BRANCH   4   7
ATOM      7  C   UNL     1       9.539  10.608  19.181  0.00  0.00    +0.000 A 
ATOM      8  C   UNL     1       9.942  11.243  17.998  0.00  0.00    +0.000 A 
ATOM      9  C   UNL     1      10.304  12.589  17.979  0.00  0.00    +0.000 A 
ATOM     10  C   UNL     1      10.252  13.334  19.149  0.00  0.00    +0.000 A 
ATOM     11  C   UNL     1       9.815  12.727  20.326  0.00  0.00    +0.000 A 
ATOM     12 CL   UNL     1       9.771  13.656  21.776  0.00  0.00    +0.000 Cl
ATOM     13  C   UNL     1       9.444  11.373  20.348  0.00  0.00    +0.000 A 
ENDBRANCH   4   7
BRANCH   1  14
ATOM     14  C   UNL     1       7.331   6.448  17.793  0.00  0.00    +0.000 C 
BRANCH  14  15
ATOM     15  C   UNL     1       7.595   4.937  17.839  0.00  0.00    +0.000 C 
BRANCH  15  16
ATOM     16  O   UNL     1       6.497   4.206  17.252  0.00  0.00    +0.000 OA
BRANCH  16  17
ATOM     17  C   UNL     1       5.357   4.180  17.992  0.00  0.00    +0.000 C 
ATOM     18  O   UNL     1       5.311   3.949  19.192  0.00  0.00    +0.000 OA
BRANCH  17  19
ATOM     19  C   UNL     1       4.137   4.471  17.154  0.00  0.00    +0.000 C 
BRANCH  19  20
ATOM     20  C   UNL     1       2.986   5.067  17.961  0.00  0.00    +0.000 C 
BRANCH  20  21
ATOM     21  C   UNL     1       1.667   4.313  17.761  0.00  0.00    +0.000 C 
BRANCH  21  22
ATOM     22  C   UNL     1       1.701   2.957  18.467  0.00  0.00    +0.000 C 
BRANCH  22  24
ATOM     23  C   UNL     1       1.466   3.415  20.929  0.00  0.00    +0.000 C 
ATOM     24  C   UNL     1       0.763   2.926  19.672  0.00  0.00    +0.000 C 
ENDBRANCH  22  24
ENDBRANCH  21  22
ENDBRANCH  20  21
ENDBRANCH  19  20
ENDBRANCH  17  19
ENDBRANCH  16  17
ENDBRANCH  15  16
ENDBRANCH  14  15
ENDBRANCH   1  14
TORSDOF 10
ENDMDL
MODEL 3
REMARK VINA RESULT:      -6.6      4.233      6.184
REMARK  Name = 
REMARK  11 active torsions:
REMARK  status: ('A' for Active; 'I' for Inactive)
REMARK    1  A    between atoms: C_1  and  C_2
REMARK    2  A    between atoms: C_2  and  C_3
REMARK    3  A    between atoms: C_3  and  C_4
REMARK    4  A    between atoms: C_4  and  C_5
REMARK    5  A    between atoms: C_5  and  C_6
REMARK    6  A    between atoms: C_6  and  C_7
REMARK    7  A    between atoms: C_7  and  O_9
REMARK    8  A    between atoms: O_9  and  C_10
REMARK    9  A    between atoms: C_10  and  C_11
REMARK   10  A    between atoms: C_11  and  N_12
REMARK   11  A    between atoms: N_15  and  C_16
REMARK                            x       y       z     vdW  Elec       q    Type
REMARK                         _______ _______ _______ _____ _____    ______ ____
ROOT
ATOM      1  N   UNL     1       2.815   4.545  21.068  0.00  0.00    +0.000 N 
ATOM      2  C   UNL     1       2.088   5.439  20.323  0.00  0.00    +0.000 C 
ATOM      3  O   UNL     1       1.169   5.038  19.610  0.00  0.00    +0.000 OA
ATOM      4  N   UNL     1       2.517   6.745  20.436  0.00  0.00    +0.000 N 
ATOM      5  H   UNL     1       3.414   4.870  21.813  0.00  0.00    +0.000 HD
ATOM      6  H   UNL     1       3.435   6.890  20.833  0.00  0.00    +0.000 HD
ENDROOT
BRANCH   4   7
ATOM      7  C   UNL     1       1.925   7.839  19.747  0.00  0.00    +0.000 A 
ATOM      8  C   UNL     1       2.213   8.114  18.403  0.00  0.00    +0.000 A 
ATOM      9  C   UNL     1       1.697   9.239  17.762  0.00  0.00    +0.000 A 
ATOM     10  C   UNL     1       0.861  10.105  18.453  0.00  0.00    +0.000 A 
ATOM     11  C   UNL     1       0.532   9.824  19.778  0.00  0.00    +0.000 A 
ATOM     12 CL   UNL     1      -0.491  10.914  20.633  0.00  0.00    +0.000 Cl
ATOM     13  C   UNL     1       1.047   8.690  20.427  0.00  0.00    +0.000 A 
ENDBRANCH   4   7
BRANCH   1  14
ATOM     14  C   UNL     1       2.522   3.121  20.966  0.00  0.00    +0.000 C 
BRANCH  14  15
ATOM     15  C   UNL     1       3.657   2.283  20.361  0.00  0.00    +0.000 C 
BRANCH  15  16
ATOM     16  O   UNL     1       4.307   2.996  19.288  0.00  0.00    +0.000 OA
BRANCH  16  17
ATOM     17  C   UNL     1       3.831   2.727  18.043  0.00  0.00    +0.000 C 
ATOM     18  O   UNL     1       3.079   1.802  17.768  0.00  0.00    +0.000 OA
BRANCH  17  19
ATOM     19  C   UNL     1       4.343   3.713  17.022  0.00  0.00    +0.000 C 
BRANCH  19  20
ATOM     20  C   UNL     1       4.156   5.168  17.449  0.00  0.00    +0.000 C 
BRANCH  20  21
ATOM     21  C   UNL     1       5.460   5.971  17.407  0.00  0.00    +0.000 C 
BRANCH  21  22
ATOM     22  C   UNL     1       6.371   5.595  18.576  0.00  0.00    +0.000 C 
BRANCH  22  24
ATOM     23  C   UNL     1       7.622   7.539  17.583  0.00  0.00    +0.000 C 
ATOM     24  C   UNL     1       7.705   6.337  18.512  0.00  0.00    +0.000 C 
ENDBRANCH  22  24
ENDBRANCH  21  22
ENDBRANCH  20  21
ENDBRANCH  19  20
ENDBRANCH  17  19
ENDBRANCH  16  17
ENDBRANCH  15  16
ENDBRANCH  14  15
ENDBRANCH   1  14
TORSDOF 10
ENDMDL
MODEL 4
REMARK VINA RESULT:      -6.5      3.393      7.128
REMARK  Name = 
REMARK  11 active torsions:
REMARK  status: ('A' for Active; 'I' for Inactive)
REMARK    1  A    between atoms: C_1  and  C_2
REMARK    2  A    between atoms: C_2  and  C_3
REMARK    3  A    between atoms: C_3  and  C_4
REMARK    4  A    between atoms: C_4  and  C_5
REMARK    5  A    between atoms: C_5  and  C_6
REMARK    6  A    between atoms: C_6  and  C_7
REMARK    7  A    between atoms: C_7  and  O_9
REMARK    8  A    between atoms: O_9  and  C_10
REMARK    9  A    between atoms: C_10  and  C_11
REMARK   10  A    between atoms: C_11  and  N_12
REMARK   11  A    between atoms: N_15  and  C_16
REMARK                            x       y       z     vdW  Elec       q    Type
REMARK                         _______ _______ _______ _____ _____    ______ ____
ROOT
ATOM      1  N   UNL     1       2.812   1.787  18.203  0.00  0.00    +0.000 N 
ATOM      2  C   UNL     1       3.341   2.848  17.512  0.00  0.00    +0.000 C 
ATOM      3  O   UNL     1       2.593   3.674  16.992  0.00  0.00    +0.000 OA
ATOM      4  N   UNL     1       4.718   2.844  17.445  0.00  0.00    +0.000 N 
ATOM      5  H   UNL     1       3.396   1.232  18.813  0.00  0.00    +0.000 HD
ATOM      6  H   UNL     1       5.184   1.977  17.676  0.00  0.00    +0.000 HD
ENDROOT
BRANCH   4   7
ATOM      7  C   UNL     1       5.485   3.834  16.770  0.00  0.00    +0.000 A 
ATOM      8  C   UNL     1       5.754   3.757  15.397  0.00  0.00    +0.000 A 
ATOM      9  C   UNL     1       6.578   4.685  14.762  0.00  0.00    +0.000 A 
ATOM     10  C   UNL     1       7.137   5.725  15.492  0.00  0.00    +0.000 A 
ATOM     11  C   UNL     1       6.846   5.840  16.850  0.00  0.00    +0.000 A 
ATOM     12 CL   UNL     1       7.557   7.124  17.750  0.00  0.00    +0.000 Cl
ATOM     13  C   UNL     1       6.012   4.910  17.492  0.00  0.00    +0.000 A 
ENDBRANCH   4   7
BRANCH   1  14
ATOM     14  C   UNL     1       1.365   1.623  18.269  0.00  0.00    +0.000 C 
BRANCH  14  15
ATOM     15  C   UNL     1       0.689   2.406  19.403  0.00  0.00    +0.000 C 
BRANCH  15  16
ATOM     16  O   UNL     1       1.472   2.333  20.614  0.00  0.00    +0.000 OA
BRANCH  16  17
ATOM     17  C   UNL     1       1.783   3.532  21.174  0.00  0.00    +0.000 C 
ATOM     18  O   UNL     1       2.339   3.674  22.255  0.00  0.00    +0.000 OA
BRANCH  17  19
ATOM     19  C   UNL     1       1.357   4.687  20.301  0.00  0.00    +0.000 C 
BRANCH  19  20
ATOM     20  C   UNL     1       1.566   6.047  20.964  0.00  0.00    +0.000 C 
BRANCH  20  21
ATOM     21  C   UNL     1       2.141   7.093  20.004  0.00  0.00    +0.000 C 
BRANCH  21  22
ATOM     22  C   UNL     1       3.038   6.436  18.954  0.00  0.00    +0.000 C 
BRANCH  22  24
ATOM     23  C   UNL     1       2.316   8.546  17.788  0.00  0.00    +0.000 C 
ATOM     24  C   UNL     1       3.251   7.347  17.746  0.00  0.00    +0.000 C 
ENDBRANCH  22  24
ENDBRANCH  21  22
ENDBRANCH  20  21
ENDBRANCH  19  20
ENDBRANCH  17  19
ENDBRANCH  16  17
ENDBRANCH  15  16
ENDBRANCH  14  15
ENDBRANCH   1  14
TORSDOF 10
ENDMDL
MODEL 5
REMARK VINA RESULT:      -6.5      1.557      1.890
REMARK  Name = 
REMARK  11 active torsions:
REMARK  status: ('A' for Active; 'I' for Inactive)
REMARK    1  A    between atoms: C_1  and  C_2
REMARK    2  A    between atoms: C_2  and  C_3
REMARK    3  A    between atoms: C_3  and  C_4
REMARK    4  A    between atoms: C_4  and  C_5
REMARK    5  A    between atoms: C_5  and  C_6
REMARK    6  A    between atoms: C_6  and  C_7
REMARK    7  A    between atoms: C_7  and  O_9
REMARK    8  A    between atoms: O_9  and  C_10
REMARK    9  A    between atoms: C_10  and  C_11
REMARK   10  A    between atoms: C_11  and  N_12
REMARK   11  A    between atoms: N_15  and  C_16
REMARK                            x       y       z     vdW  Elec       q    Type
REMARK                         _______ _______ _______ _____ _____    ______ ____
ROOT
ATOM      1  N   UNL     1       6.777   4.175  18.542  0.00  0.00    +0.000 N 
ATOM      2  C   UNL     1       5.443   4.451  18.704  0.00  0.00    +0.000 C 
ATOM      3  O   UNL     1       4.940   5.411  18.123  0.00  0.00    +0.000 OA
ATOM      4  N   UNL     1       4.795   3.599  19.574  0.00  0.00    +0.000 N 
ATOM      5  H   UNL     1       7.153   3.282  18.827  0.00  0.00    +0.000 HD
ATOM      6  H   UNL     1       5.377   3.037  20.180  0.00  0.00    +0.000 HD
ENDROOT
BRANCH   4   7
ATOM      7  C   UNL     1       3.416   3.700  19.907  0.00  0.00    +0.000 A 
ATOM      8  C   UNL     1       2.542   2.609  19.793  0.00  0.00    +0.000 A 
ATOM      9  C   UNL     1       1.176   2.740  20.039  0.00  0.00    +0.000 A 
ATOM     10  C   UNL     1       0.659   3.969  20.424  0.00  0.00    +0.000 A 
ATOM     11  C   UNL     1       1.521   5.054  20.581  0.00  0.00    +0.000 A 
ATOM     12 CL   UNL     1       0.866   6.579  21.042  0.00  0.00    +0.000 Cl
ATOM     13  C   UNL     1       2.898   4.925  20.339  0.00  0.00    +0.000 A 
ENDBRANCH   4   7
BRANCH   1  14
ATOM     14  C   UNL     1       7.597   5.057  17.721  0.00  0.00    +0.000 C 
BRANCH  14  15
ATOM     15  C   UNL     1       7.718   4.625  16.253  0.00  0.00    +0.000 C 
BRANCH  15  16
ATOM     16  O   UNL     1       7.248   5.667  15.371  0.00  0.00    +0.000 OA
BRANCH  16  17
ATOM     17  C   UNL     1       5.948   5.559  14.988  0.00  0.00    +0.000 C 
ATOM     18  O   UNL     1       5.155   6.489  14.941  0.00  0.00    +0.000 OA
BRANCH  17  19
ATOM     19  C   UNL     1       5.586   4.140  14.625  0.00  0.00    +0.000 C 
BRANCH  19  20
ATOM     20  C   UNL     1       5.503   3.913  13.117  0.00  0.00    +0.000 C 
BRANCH  20  21
ATOM     21  C   UNL     1       6.876   3.928  12.438  0.00  0.00    +0.000 C 
BRANCH  21  22
ATOM     22  C   UNL     1       7.027   2.742  11.484  0.00  0.00    +0.000 C 
BRANCH  22  24
ATOM     23  C   UNL     1       6.146   0.411  11.136  0.00  0.00    +0.000 C 
ATOM     24  C   UNL     1       5.792   1.843  11.504  0.00  0.00    +0.000 C 
ENDBRANCH  22  24
ENDBRANCH  21  22
ENDBRANCH  20  21
ENDBRANCH  19  20
ENDBRANCH  17  19
ENDBRANCH  16  17
ENDBRANCH  15  16
ENDBRANCH  14  15
ENDBRANCH   1  14
TORSDOF 10
ENDMDL
MODEL 6
REMARK VINA RESULT:      -6.4      3.987      7.222
REMARK  Name = 
REMARK  11 active torsions:
REMARK  status: ('A' for Active; 'I' for Inactive)
REMARK    1  A    between atoms: C_1  and  C_2
REMARK    2  A    between atoms: C_2  and  C_3
REMARK    3  A    between atoms: C_3  and  C_4
REMARK    4  A    between atoms: C_4  and  C_5
REMARK    5  A    between atoms: C_5  and  C_6
REMARK    6  A    between atoms: C_6  and  C_7
REMARK    7  A    between atoms: C_7  and  O_9
REMARK    8  A    between atoms: O_9  and  C_10
REMARK    9  A    between atoms: C_10  and  C_11
REMARK   10  A    between atoms: C_11  and  N_12
REMARK   11  A    between atoms: N_15  and  C_16
REMARK                            x       y       z     vdW  Elec       q    Type
REMARK                         _______ _______ _______ _____ _____    ______ ____
ROOT
ATOM      1  N   UNL     1       2.712   3.441  17.475  0.00  0.00    +0.000 N 
ATOM      2  C   UNL     1       3.932   3.881  17.922  0.00  0.00    +0.000 C 
ATOM      3  O   UNL     1       4.580   3.195  18.711  0.00  0.00    +0.000 OA
ATOM      4  N   UNL     1       4.292   5.122  17.442  0.00  0.00    +0.000 N 
ATOM      5  H   UNL     1       2.275   3.874  16.675  0.00  0.00    +0.000 HD
ATOM      6  H   UNL     1       3.558   5.682  17.030  0.00  0.00    +0.000 HD
ENDROOT
BRANCH   4   7
ATOM      7  C   UNL     1       5.504   5.786  17.779  0.00  0.00    +0.000 A 
ATOM      8  C   UNL     1       5.956   6.911  17.075  0.00  0.00    +0.000 A 
ATOM      9  C   UNL     1       7.187   7.502  17.357  0.00  0.00    +0.000 A 
ATOM     10  C   UNL     1       7.985   6.985  18.367  0.00  0.00    +0.000 A 
ATOM     11  C   UNL     1       7.532   5.891  19.104  0.00  0.00    +0.000 A 
ATOM     12 CL   UNL     1       8.538   5.247  20.345  0.00  0.00    +0.000 Cl
ATOM     13  C   UNL     1       6.291   5.297  18.826  0.00  0.00    +0.000 A 
ENDBRANCH   4   7
BRANCH   1  14
ATOM     14  C   UNL     1       2.174   2.184  17.981  0.00  0.00    +0.000 C 
BRANCH  14  15
ATOM     15  C   UNL     1       0.883   2.331  18.798  0.00  0.00    +0.000 C 
BRANCH  15  16
ATOM     16  O   UNL     1       0.850   3.600  19.484  0.00  0.00    +0.000 OA
BRANCH  16  17
ATOM     17  C   UNL     1       1.394   3.599  20.730  0.00  0.00    +0.000 C 
ATOM     18  O   UNL     1       1.245   2.708  21.555  0.00  0.00    +0.000 OA
BRANCH  17  19
ATOM     19  C   UNL     1       2.214   4.839  20.986  0.00  0.00    +0.000 C 
BRANCH  19  20
ATOM     20  C   UNL     1       1.519   6.120  20.529  0.00  0.00    +0.000 C 
BRANCH  20  21
ATOM     21  C   UNL     1       2.466   7.084  19.807  0.00  0.00    +0.000 C 
BRANCH  21  22
ATOM     22  C   UNL     1       2.060   7.254  18.343  0.00  0.00    +0.000 C 
BRANCH  22  24
ATOM     23  C   UNL     1       1.237   9.607  18.000  0.00  0.00    +0.000 C 
ATOM     24  C   UNL     1       2.404   8.648  17.822  0.00  0.00    +0.000 C 
ENDBRANCH  22  24
ENDBRANCH  21  22
ENDBRANCH  20  21
ENDBRANCH  19  20
ENDBRANCH  17  19
ENDBRANCH  16  17
ENDBRANCH  15  16
ENDBRANCH  14  15
ENDBRANCH   1  14
TORSDOF 10
ENDMDL
MODEL 7
REMARK VINA RESULT:      -6.4      4.998      8.730
REMARK  Name = 
REMARK  11 active torsions:
REMARK  status: ('A' for Active; 'I' for Inactive)
REMARK    1  A    between atoms: C_1  and  C_2
REMARK    2  A    between atoms: C_2  and  C_3
REMARK    3  A    between atoms: C_3  and  C_4
REMARK    4  A    between atoms: C_4  and  C_5
REMARK    5  A    between atoms: C_5  and  C_6
REMARK    6  A    between atoms: C_6  and  C_7
REMARK    7  A    between atoms: C_7  and  O_9
REMARK    8  A    between atoms: O_9  and  C_10
REMARK    9  A    between atoms: C_10  and  C_11
REMARK   10  A    between atoms: C_11  and  N_12
REMARK   11  A    between atoms: N_15  and  C_16
REMARK                            x       y       z     vdW  Elec       q    Type
REMARK                         _______ _______ _______ _____ _____    ______ ____
ROOT
ATOM      1  N   UNL     1       7.260   7.783  17.025  0.00  0.00    +0.000 N 
ATOM      2  C   UNL     1       8.127   8.343  17.929  0.00  0.00    +0.000 C 
ATOM      3  O   UNL     1       8.594   7.656  18.837  0.00  0.00    +0.000 OA
ATOM      4  N   UNL     1       8.358   9.687  17.728  0.00  0.00    +0.000 N 
ATOM      5  H   UNL     1       7.044   8.260  16.161  0.00  0.00    +0.000 HD
ATOM      6  H   UNL     1       7.709  10.176  17.126  0.00  0.00    +0.000 HD
ENDROOT
BRANCH   4   7
ATOM      7  C   UNL     1       9.208  10.481  18.547  0.00  0.00    +0.000 A 
ATOM      8  C   UNL     1       9.092  10.495  19.944  0.00  0.00    +0.000 A 
ATOM      9  C   UNL     1       9.871  11.341  20.732  0.00  0.00    +0.000 A 
ATOM     10  C   UNL     1      10.801  12.180  20.133  0.00  0.00    +0.000 A 
ATOM     11  C   UNL     1      10.958  12.148  18.748  0.00  0.00    +0.000 A 
ATOM     12 CL   UNL     1      12.102  13.204  18.013  0.00  0.00    +0.000 Cl
ATOM     13  C   UNL     1      10.178  11.294  17.951  0.00  0.00    +0.000 A 
ENDBRANCH   4   7
BRANCH   1  14
ATOM     14  C   UNL     1       6.861   6.390  17.182  0.00  0.00    +0.000 C 
BRANCH  14  15
ATOM     15  C   UNL     1       5.472   6.195  17.806  0.00  0.00    +0.000 C 
BRANCH  15  16
ATOM     16  O   UNL     1       4.475   6.948  17.084  0.00  0.00    +0.000 OA
BRANCH  16  17
ATOM     17  C   UNL     1       3.345   7.234  17.785  0.00  0.00    +0.000 C 
ATOM     18  O   UNL     1       2.927   8.362  18.005  0.00  0.00    +0.000 OA
BRANCH  17  19
ATOM     19  C   UNL     1       2.656   5.982  18.272  0.00  0.00    +0.000 C 
BRANCH  19  20
ATOM     20  C   UNL     1       2.347   6.013  19.767  0.00  0.00    +0.000 C 
BRANCH  20  21
ATOM     21  C   UNL     1       2.487   4.639  20.430  0.00  0.00    +0.000 C 
BRANCH  21  22
ATOM     22  C   UNL     1       1.125   3.956  20.562  0.00  0.00    +0.000 C 
BRANCH  22  24
ATOM     23  C   UNL     1       2.207   2.238  19.076  0.00  0.00    +0.000 C 
ATOM     24  C   UNL     1       0.904   2.923  19.458  0.00  0.00    +0.000 C 
ENDBRANCH  22  24
ENDBRANCH  21  22
ENDBRANCH  20  21
ENDBRANCH  19  20
ENDBRANCH  17  19
ENDBRANCH  16  17
ENDBRANCH  15  16
ENDBRANCH  14  15
ENDBRANCH   1  14
TORSDOF 10
ENDMDL
MODEL 8
REMARK VINA RESULT:      -6.4      3.284      6.988
REMARK  Name = 
REMARK  11 active torsions:
REMARK  status: ('A' for Active; 'I' for Inactive)
REMARK    1  A    between atoms: C_1  and  C_2
REMARK    2  A    between atoms: C_2  and  C_3
REMARK    3  A    between atoms: C_3  and  C_4
REMARK    4  A    between atoms: C_4  and  C_5
REMARK    5  A    between atoms: C_5  and  C_6
REMARK    6  A    between atoms: C_6  and  C_7
REMARK    7  A    between atoms: C_7  and  O_9
REMARK    8  A    between atoms: O_9  and  C_10
REMARK    9  A    between atoms: C_10  and  C_11
REMARK   10  A    between atoms: C_11  and  N_12
REMARK   11  A    between atoms: N_15  and  C_16
REMARK                            x       y       z     vdW  Elec       q    Type
REMARK                         _______ _______ _______ _____ _____    ______ ____
ROOT
ATOM      1  N   UNL     1       4.566   5.926  17.409  0.00  0.00    +0.000 N 
ATOM      2  C   UNL     1       5.064   5.920  16.130  0.00  0.00    +0.000 C 
ATOM      3  O   UNL     1       4.929   6.912  15.415  0.00  0.00    +0.000 OA
ATOM      4  N   UNL     1       5.653   4.729  15.763  0.00  0.00    +0.000 N 
ATOM      5  H   UNL     1       4.854   5.222  18.072  0.00  0.00    +0.000 HD
ATOM      6  H   UNL     1       5.453   3.924  16.341  0.00  0.00    +0.000 HD
ENDROOT
BRANCH   4   7
ATOM      7  C   UNL     1       6.225   4.485  14.483  0.00  0.00    +0.000 A 
ATOM      8  C   UNL     1       7.322   5.216  14.008  0.00  0.00    +0.000 A 
ATOM      9  C   UNL     1       7.820   5.030  12.719  0.00  0.00    +0.000 A 
ATOM     10  C   UNL     1       7.236   4.087  11.884  0.00  0.00    +0.000 A 
ATOM     11  C   UNL     1       6.170   3.323  12.356  0.00  0.00    +0.000 A 
ATOM     12 CL   UNL     1       5.443   2.168  11.305  0.00  0.00    +0.000 Cl
ATOM     13  C   UNL     1       5.669   3.505  13.655  0.00  0.00    +0.000 A 
ENDBRANCH   4   7
BRANCH   1  14
ATOM     14  C   UNL     1       3.837   7.094  17.889  0.00  0.00    +0.000 C 
BRANCH  14  15
ATOM     15  C   UNL     1       2.569   6.765  18.689  0.00  0.00    +0.000 C 
BRANCH  15  16
ATOM     16  O   UNL     1       2.905   6.282  20.007  0.00  0.00    +0.000 OA
BRANCH  16  17
ATOM     17  C   UNL     1       2.269   5.141  20.385  0.00  0.00    +0.000 C 
ATOM     18  O   UNL     1       2.372   4.617  21.485  0.00  0.00    +0.000 OA
BRANCH  17  19
ATOM     19  C   UNL     1       1.408   4.585  19.277  0.00  0.00    +0.000 C 
BRANCH  19  20
ATOM     20  C   UNL     1       0.762   3.249  19.635  0.00  0.00    +0.000 C 
BRANCH  20  21
ATOM     21  C   UNL     1       1.081   2.145  18.622  0.00  0.00    +0.000 C 
BRANCH  21  22
ATOM     22  C   UNL     1       2.438   2.387  17.960  0.00  0.00    +0.000 C 
BRANCH  22  24
ATOM     23  C   UNL     1       4.355   2.274  19.585  0.00  0.00    +0.000 C 
ATOM     24  C   UNL     1       3.526   1.504  18.568  0.00  0.00    +0.000 C 
ENDBRANCH  22  24
ENDBRANCH  21  22
ENDBRANCH  20  21
ENDBRANCH  19  20
ENDBRANCH  17  19
ENDBRANCH  16  17
ENDBRANCH  15  16
ENDBRANCH  14  15
ENDBRANCH   1  14
TORSDOF 10
ENDMDL
MODEL 9
REMARK VINA RESULT:      -6.4      5.463      7.475
REMARK  Name = 
REMARK  11 active torsions:
REMARK  status: ('A' for Active; 'I' for Inactive)
REMARK    1  A    between atoms: C_1  and  C_2
REMARK    2  A    between atoms: C_2  and  C_3
REMARK    3  A    between atoms: C_3  and  C_4
REMARK    4  A    between atoms: C_4  and  C_5
REMARK    5  A    between atoms: C_5  and  C_6
REMARK    6  A    between atoms: C_6  and  C_7
REMARK    7  A    between atoms: C_7  and  O_9
REMARK    8  A    between atoms: O_9  and  C_10
REMARK    9  A    between atoms: C_10  and  C_11
REMARK   10  A    between atoms: C_11  and  N_12
REMARK   11  A    between atoms: N_15  and  C_16
REMARK                            x       y       z     vdW  Elec       q    Type
REMARK                         _______ _______ _______ _____ _____    ______ ____
ROOT
ATOM      1  N   UNL     1       2.679   6.641  20.176  0.00  0.00    +0.000 N 
ATOM      2  C   UNL     1       1.884   7.757  20.249  0.00  0.00    +0.000 C 
ATOM      3  O   UNL     1       1.500   8.304  19.216  0.00  0.00    +0.000 OA
ATOM      4  N   UNL     1       1.627   8.180  21.536  0.00  0.00    +0.000 N 
ATOM      5  H   UNL     1       2.819   6.060  20.990  0.00  0.00    +0.000 HD
ATOM      6  H   UNL     1       2.219   7.808  22.265  0.00  0.00    +0.000 HD
ENDROOT
BRANCH   4   7
ATOM      7  C   UNL     1       0.840   9.321  21.856  0.00  0.00    +0.000 A 
ATOM      8  C   UNL     1      -0.101   9.308  22.894  0.00  0.00    +0.000 A 
ATOM      9  C   UNL     1      -0.928  10.402  23.144  0.00  0.00    +0.000 A 
ATOM     10  C   UNL     1      -0.815  11.544  22.365  0.00  0.00    +0.000 A 
ATOM     11  C   UNL     1       0.144  11.589  21.354  0.00  0.00    +0.000 A 
ATOM     12 CL   UNL     1       0.265  13.006  20.381  0.00  0.00    +0.000 Cl
ATOM     13  C   UNL     1       0.982  10.491  21.102  0.00  0.00    +0.000 A 
ENDBRANCH   4   7
BRANCH   1  14
ATOM     14  C   UNL     1       3.102   6.145  18.873  0.00  0.00    +0.000 C 
BRANCH  14  15
ATOM     15  C   UNL     1       4.578   5.733  18.799  0.00  0.00    +0.000 C 
BRANCH  15  16
ATOM     16  O   UNL     1       4.719   4.301  18.917  0.00  0.00    +0.000 OA
BRANCH  16  17
ATOM     17  C   UNL     1       4.555   3.607  17.760  0.00  0.00    +0.000 C 
ATOM     18  O   UNL     1       5.108   3.873  16.702  0.00  0.00    +0.000 OA
BRANCH  17  19
ATOM     19  C   UNL     1       3.596   2.453  17.929  0.00  0.00    +0.000 C 
BRANCH  19  20
ATOM     20  C   UNL     1       2.141   2.845  17.682  0.00  0.00    +0.000 C 
BRANCH  20  21
ATOM     21  C   UNL     1       1.186   2.270  18.734  0.00  0.00    +0.000 C 
BRANCH  21  22
ATOM     22  C   UNL     1       0.818   3.329  19.774  0.00  0.00    +0.000 C 
BRANCH  22  24
ATOM     23  C   UNL     1       2.573   3.177  21.570  0.00  0.00    +0.000 C 
ATOM     24  C   UNL     1       1.135   2.859  21.192  0.00  0.00    +0.000 C 
ENDBRANCH  22  24
ENDBRANCH  21  22
ENDBRANCH  20  21
ENDBRANCH  19  20
ENDBRANCH  17  19
ENDBRANCH  16  17
ENDBRANCH  15  16
ENDBRANCH  14  15
ENDBRANCH   1  14
TORSDOF 10
ENDMDL
