MODEL 1
REMARK VINA RESULT:      -5.2      0.000      0.000
REMARK  Name = 
REMARK  0 active torsions:
REMARK  status: ('A' for Active; 'I' for Inactive)
REMARK                            x       y       z     vdW  Elec       q    Type
REMARK                         _______ _______ _______ _____ _____    ______ ____
ROOT
ATOM      1  O   UNL     1       7.681   4.630  18.689  0.00  0.00    +0.000 OA
ATOM      2  C   UNL     1       7.128   4.552  17.597  0.00  0.00    +0.000 A 
ATOM      3  N   UNL     1       5.889   3.975  17.490  0.00  0.00    +0.000 N 
ATOM      4  C   UNL     1       5.207   3.871  16.323  0.00  0.00    +0.000 A 
ATOM      5  C   UNL     1       5.760   4.333  15.210  0.00  0.00    +0.000 A 
ATOM      6  F   UNL     1       5.140   4.267  14.018  0.00  0.00    +0.000 F 
ATOM      7  C   UNL     1       7.095   4.933  15.258  0.00  0.00    +0.000 A 
ATOM      8  O   UNL     1       7.636   5.340  14.235  0.00  0.00    +0.000 OA
ATOM      9  O   UNL     1       7.710   5.026  16.462  0.00  0.00    +0.000 OA
ATOM     10  H   UNL     1       5.495   3.632  18.360  0.00  0.00    +0.000 HD
ENDROOT
TORSDOF 0
ENDMDL
MODEL 2
REMARK VINA RESULT:      -4.9      5.999      6.369
REMARK  Name = 
REMARK  0 active torsions:
REMARK  status: ('A' for Active; 'I' for Inactive)
REMARK                            x       y       z     vdW  Elec       q    Type
REMARK                         _______ _______ _______ _____ _____    ______ ____
ROOT
ATOM      1  O   UNL     1       2.335   3.081  22.380  0.00  0.00    +0.000 OA
ATOM      2  C   UNL     1       2.355   2.797  21.188  0.00  0.00    +0.000 A 
ATOM      3  N   UNL     1       3.550   2.600  20.544  0.00  0.00    +0.000 N 
ATOM      4  C   UNL     1       3.652   2.265  19.234  0.00  0.00    +0.000 A 
ATOM      5  C   UNL     1       2.545   2.131  18.515  0.00  0.00    +0.000 A 
ATOM      6  F   UNL     1       2.571   1.796  17.213  0.00  0.00    +0.000 F 
ATOM      7  C   UNL     1       1.241   2.358  19.142  0.00  0.00    +0.000 A 
ATOM      8  O   UNL     1       0.208   2.267  18.487  0.00  0.00    +0.000 OA
ATOM      9  O   UNL     1       1.211   2.668  20.461  0.00  0.00    +0.000 OA
ATOM     10  H   UNL     1       4.376   2.711  21.124  0.00  0.00    +0.000 HD
ENDROOT
TORSDOF 0
ENDMDL
MODEL 3
REMARK VINA RESULT:      -4.8      6.237      6.479
REMARK  Name = 
REMARK  0 active torsions:
REMARK  status: ('A' for Active; 'I' for Inactive)
REMARK                            x       y       z     vdW  Elec       q    Type
REMARK                         _______ _______ _______ _____ _____    ______ ____
ROOT
ATOM      1  O   UNL     1       2.549   2.786  22.213  0.00  0.00    +0.000 OA
ATOM      2  C   UNL     1       2.194   3.151  21.098  0.00  0.00    +0.000 A 
ATOM      3  N   UNL     1       2.598   4.365  20.606  0.00  0.00    +0.000 N 
ATOM      4  C   UNL     1       2.262   4.827  19.376  0.00  0.00    +0.000 A 
ATOM      5  C   UNL     1       1.488   4.084  18.597  0.00  0.00    +0.000 A 
ATOM      6  F   UNL     1       1.119   4.477  17.365  0.00  0.00    +0.000 F 
ATOM      7  C   UNL     1       1.001   2.790  19.081  0.00  0.00    +0.000 A 
ATOM      8  O   UNL     1       0.259   2.101  18.388  0.00  0.00    +0.000 OA
ATOM      9  O   UNL     1       1.393   2.379  20.312  0.00  0.00    +0.000 OA
ATOM     10  H   UNL     1       3.189   4.908  21.228  0.00  0.00    +0.000 HD
ENDROOT
TORSDOF 0
ENDMDL
MODEL 4
REMARK VINA RESULT:      -4.8      1.848      3.075
REMARK  Name = 
REMARK  0 active torsions:
REMARK  status: ('A' for Active; 'I' for Inactive)
REMARK                            x       y       z     vdW  Elec       q    Type
REMARK                         _______ _______ _______ _____ _____    ______ ____
ROOT
ATOM      1  O   UNL     1       7.433   5.192  13.772  0.00  0.00    +0.000 OA
ATOM      2  C   UNL     1       6.969   4.953  14.882  0.00  0.00    +0.000 A 
ATOM      3  N   UNL     1       5.613   4.863  15.059  0.00  0.00    +0.000 N 
ATOM      4  C   UNL     1       5.028   4.583  16.250  0.00  0.00    +0.000 A 
ATOM      5  C   UNL     1       5.793   4.399  17.317  0.00  0.00    +0.000 A 
ATOM      6  F   UNL     1       5.281   4.115  18.528  0.00  0.00    +0.000 F 
ATOM      7  C   UNL     1       7.248   4.514  17.194  0.00  0.00    +0.000 A 
ATOM      8  O   UNL     1       7.972   4.377  18.175  0.00  0.00    +0.000 OA
ATOM      9  O   UNL     1       7.767   4.773  15.969  0.00  0.00    +0.000 OA
ATOM     10  H   UNL     1       5.057   5.009  14.222  0.00  0.00    +0.000 HD
ENDROOT
TORSDOF 0
ENDMDL
MODEL 5
REMARK VINA RESULT:      -4.7      2.237      2.450
REMARK  Name = 
REMARK  0 active torsions:
REMARK  status: ('A' for Active; 'I' for Inactive)
REMARK                            x       y       z     vdW  Elec       q    Type
REMARK                         _______ _______ _______ _____ _____    ______ ____
ROOT
ATOM      1  O   UNL     1       8.015   5.239  20.432  0.00  0.00    +0.000 OA
ATOM      2  C   UNL     1       7.632   5.424  19.282  0.00  0.00    +0.000 A 
ATOM      3  N   UNL     1       7.089   4.393  18.559  0.00  0.00    +0.000 N 
ATOM      4  C   UNL     1       6.626   4.526  17.292  0.00  0.00    +0.000 A 
ATOM      5  C   UNL     1       6.708   5.707  16.695  0.00  0.00    +0.000 A 
ATOM      6  F   UNL     1       6.265   5.912  15.442  0.00  0.00    +0.000 F 
ATOM      7  C   UNL     1       7.306   6.839  17.408  0.00  0.00    +0.000 A 
ATOM      8  O   UNL     1       7.419   7.933  16.863  0.00  0.00    +0.000 OA
ATOM      9  O   UNL     1       7.728   6.642  18.681  0.00  0.00    +0.000 OA
ATOM     10  H   UNL     1       7.042   3.503  19.045  0.00  0.00    +0.000 HD
ENDROOT
TORSDOF 0
ENDMDL
MODEL 6
REMARK VINA RESULT:      -4.7      1.723      2.218
REMARK  Name = 
REMARK  0 active torsions:
REMARK  status: ('A' for Active; 'I' for Inactive)
REMARK                            x       y       z     vdW  Elec       q    Type
REMARK                         _______ _______ _______ _____ _____    ______ ____
ROOT
ATOM      1  O   UNL     1       7.943   4.661  18.591  0.00  0.00    +0.000 OA
ATOM      2  C   UNL     1       7.226   4.555  17.602  0.00  0.00    +0.000 A 
ATOM      3  N   UNL     1       7.753   4.707  16.346  0.00  0.00    +0.000 N 
ATOM      4  C   UNL     1       7.028   4.585  15.206  0.00  0.00    +0.000 A 
ATOM      5  C   UNL     1       5.732   4.320  15.292  0.00  0.00    +0.000 A 
ATOM      6  F   UNL     1       4.953   4.182  14.204  0.00  0.00    +0.000 F 
ATOM      7  C   UNL     1       5.107   4.177  16.609  0.00  0.00    +0.000 A 
ATOM      8  O   UNL     1       3.904   3.961  16.711  0.00  0.00    +0.000 OA
ATOM      9  O   UNL     1       5.895   4.288  17.706  0.00  0.00    +0.000 OA
ATOM     10  H   UNL     1       8.748   4.910  16.316  0.00  0.00    +0.000 HD
ENDROOT
TORSDOF 0
ENDMDL
MODEL 7
REMARK VINA RESULT:      -4.7      3.181      4.131
REMARK  Name = 
REMARK  0 active torsions:
REMARK  status: ('A' for Active; 'I' for Inactive)
REMARK                            x       y       z     vdW  Elec       q    Type
REMARK                         _______ _______ _______ _____ _____    ______ ____
ROOT
ATOM      1  O   UNL     1       5.111   3.862  17.090  0.00  0.00    +0.000 OA
ATOM      2  C   UNL     1       5.924   4.673  17.521  0.00  0.00    +0.000 A 
ATOM      3  N   UNL     1       6.366   5.698  16.725  0.00  0.00    +0.000 N 
ATOM      4  C   UNL     1       7.247   6.643  17.136  0.00  0.00    +0.000 A 
ATOM      5  C   UNL     1       7.730   6.580  18.370  0.00  0.00    +0.000 A 
ATOM      6  F   UNL     1       8.604   7.485  18.846  0.00  0.00    +0.000 F 
ATOM      7  C   UNL     1       7.316   5.490  19.256  0.00  0.00    +0.000 A 
ATOM      8  O   UNL     1       7.774   5.397  20.390  0.00  0.00    +0.000 OA
ATOM      9  O   UNL     1       6.415   4.592  18.787  0.00  0.00    +0.000 OA
ATOM     10  H   UNL     1       5.976   5.716  15.787  0.00  0.00    +0.000 HD
ENDROOT
TORSDOF 0
ENDMDL
MODEL 8
REMARK VINA RESULT:      -4.7      4.627      5.425
REMARK  Name = 
REMARK  0 active torsions:
REMARK  status: ('A' for Active; 'I' for Inactive)
REMARK                            x       y       z     vdW  Elec       q    Type
REMARK                         _______ _______ _______ _____ _____    ______ ____
ROOT
ATOM      1  O   UNL     1       4.940   1.933  20.333  0.00  0.00    +0.000 OA
ATOM      2  C   UNL     1       4.068   2.508  19.690  0.00  0.00    +0.000 A 
ATOM      3  N   UNL     1       4.261   2.791  18.363  0.00  0.00    +0.000 N 
ATOM      4  C   UNL     1       3.337   3.406  17.584  0.00  0.00    +0.000 A 
ATOM      5  C   UNL     1       2.183   3.776  18.122  0.00  0.00    +0.000 A 
ATOM      6  F   UNL     1       1.220   4.386  17.408  0.00  0.00    +0.000 F 
ATOM      7  C   UNL     1       1.933   3.527  19.543  0.00  0.00    +0.000 A 
ATOM      8  O   UNL     1       0.884   3.888  20.067  0.00  0.00    +0.000 OA
ATOM      9  O   UNL     1       2.891   2.887  20.258  0.00  0.00    +0.000 OA
ATOM     10  H   UNL     1       5.155   2.495  17.983  0.00  0.00    +0.000 HD
ENDROOT
TORSDOF 0
ENDMDL
MODEL 9
REMARK VINA RESULT:      -4.7      4.649      5.642
REMARK  Name = 
REMARK  0 active torsions:
REMARK  status: ('A' for Active; 'I' for Inactive)
REMARK                            x       y       z     vdW  Elec       q    Type
REMARK                         _______ _______ _______ _____ _____    ______ ____
ROOT
ATOM      1  O   UNL     1       5.467   3.650  19.409  0.00  0.00    +0.000 OA
ATOM      2  C   UNL     1       4.302   3.308  19.236  0.00  0.00    +0.000 A 
ATOM      3  N   UNL     1       3.968   2.502  18.178  0.00  0.00    +0.000 N 
ATOM      4  C   UNL     1       2.707   2.067  17.934  0.00  0.00    +0.000 A 
ATOM      5  C   UNL     1       1.727   2.445  18.743  0.00  0.00    +0.000 A 
ATOM      6  F   UNL     1       0.454   2.049  18.563  0.00  0.00    +0.000 F 
ATOM      7  C   UNL     1       2.019   3.330  19.872  0.00  0.00    +0.000 A 
ATOM      8  O   UNL     1       1.122   3.715  20.615  0.00  0.00    +0.000 OA
ATOM      9  O   UNL     1       3.306   3.708  20.072  0.00  0.00    +0.000 OA
ATOM     10  H   UNL     1       4.742   2.232  17.579  0.00  0.00    +0.000 HD
ENDROOT
TORSDOF 0
ENDMDL
