MODEL 1
REMARK VINA RESULT:      -7.4      0.000      0.000
REMARK  Name = 
REMARK  3 active torsions:
REMARK  status: ('A' for Active; 'I' for Inactive)
REMARK    1  A    between atoms: C_2  and  C_3
REMARK    2  A    between atoms: C_4  and  N_5
REMARK    3  A    between atoms: C_8  and  O_9
REMARK                            x       y       z     vdW  Elec       q    Type
REMARK                         _______ _______ _______ _____ _____    ______ ____
ROOT
ATOM      1  C   UNL     1       3.807   6.480  17.697  0.00  0.00    +0.000 A 
ATOM      2  C   UNL     1       4.160   5.221  18.057  0.00  0.00    +0.000 A 
ATOM      3  C   UNL     1       3.533   4.621  19.271  0.00  0.00    +0.000 A 
ATOM      4  C   UNL     1       3.845   3.306  19.670  0.00  0.00    +0.000 A 
ATOM      5  C   UNL     1       3.261   2.728  20.796  0.00  0.00    +0.000 A 
ATOM      6  C   UNL     1       2.344   3.454  21.537  0.00  0.00    +0.000 A 
ATOM      7  C   UNL     1       2.011   4.757  21.158  0.00  0.00    +0.000 A 
ATOM      8  C   UNL     1       2.601   5.352  20.036  0.00  0.00    +0.000 A 
ATOM      9  N   UNL     1       2.306   6.681  19.608  0.00  0.00    +0.000 N 
ATOM     10  C   UNL     1       2.882   7.242  18.465  0.00  0.00    +0.000 A 
ATOM     11  N   UNL     1       2.468   8.474  18.264  0.00  0.00    +0.000 NA
ATOM     12  C   UNL     1       1.614   8.749  19.291  0.00  0.00    +0.000 A 
ATOM     13  C   UNL     1       0.921   9.946  19.535  0.00  0.00    +0.000 A 
ATOM     14  C   UNL     1       0.087  10.041  20.652  0.00  0.00    +0.000 A 
ATOM     15  C   UNL     1      -0.053   8.960  21.510  0.00  0.00    +0.000 A 
ATOM     16  C   UNL     1       0.635   7.759  21.282  0.00  0.00    +0.000 A 
ATOM     17  C   UNL     1       1.476   7.658  20.156  0.00  0.00    +0.000 A 
ENDROOT
BRANCH   2  18
ATOM     18  N   UNL     1       5.086   4.419  17.387  0.00  0.00    +0.000 N 
ATOM     19  C   UNL     1       6.525   4.429  17.658  0.00  0.00    +0.000 C 
ATOM     20  C   UNL     1       7.156   4.330  16.281  0.00  0.00    +0.000 C 
ATOM     21  C   UNL     1       6.188   3.456  15.490  0.00  0.00    +0.000 C 
ATOM     22  C   UNL     1       4.812   3.680  16.147  0.00  0.00    +0.000 C 
BRANCH  21  23
ATOM     23  O   UNL     1       6.198   3.828  14.117  0.00  0.00    +0.000 OA
ATOM     24  H   UNL     1       5.381   4.331  13.937  0.00  0.00    +0.000 HD
ENDBRANCH  21  23
ENDBRANCH   2  18
BRANCH   1  26
ATOM     25  N   UNL     1       4.977   7.568  15.422  0.00  0.00    +0.000 NA
ATOM     26  C   UNL     1       4.447   7.075  16.453  0.00  0.00    +0.000 C 
ENDBRANCH   1  26
TORSDOF 3
ENDMDL
MODEL 2
REMARK VINA RESULT:      -6.5      9.627     10.815
REMARK  Name = 
REMARK  3 active torsions:
REMARK  status: ('A' for Active; 'I' for Inactive)
REMARK    1  A    between atoms: C_2  and  C_3
REMARK    2  A    between atoms: C_4  and  N_5
REMARK    3  A    between atoms: C_8  and  O_9
REMARK                            x       y       z     vdW  Elec       q    Type
REMARK                         _______ _______ _______ _____ _____    ______ ____
ROOT
ATOM      1  C   UNL     1       9.413  12.053  20.674  0.00  0.00    +0.000 A 
ATOM      2  C   UNL     1      10.079  13.066  20.065  0.00  0.00    +0.000 A 
ATOM      3  C   UNL     1      10.293  14.336  20.818  0.00  0.00    +0.000 A 
ATOM      4  C   UNL     1      11.002  15.407  20.239  0.00  0.00    +0.000 A 
ATOM      5  C   UNL     1      11.219  16.597  20.932  0.00  0.00    +0.000 A 
ATOM      6  C   UNL     1      10.737  16.732  22.223  0.00  0.00    +0.000 A 
ATOM      7  C   UNL     1      10.036  15.682  22.822  0.00  0.00    +0.000 A 
ATOM      8  C   UNL     1       9.802  14.487  22.131  0.00  0.00    +0.000 A 
ATOM      9  N   UNL     1       9.087  13.386  22.689  0.00  0.00    +0.000 N 
ATOM     10  C   UNL     1       8.894  12.190  21.993  0.00  0.00    +0.000 A 
ATOM     11  N   UNL     1       8.208  11.319  22.699  0.00  0.00    +0.000 NA
ATOM     12  C   UNL     1       7.923  11.941  23.878  0.00  0.00    +0.000 A 
ATOM     13  C   UNL     1       7.192  11.431  24.963  0.00  0.00    +0.000 A 
ATOM     14  C   UNL     1       6.999  12.226  26.096  0.00  0.00    +0.000 A 
ATOM     15  C   UNL     1       7.528  13.508  26.143  0.00  0.00    +0.000 A 
ATOM     16  C   UNL     1       8.256  14.033  25.067  0.00  0.00    +0.000 A 
ATOM     17  C   UNL     1       8.455  13.234  23.923  0.00  0.00    +0.000 A 
ENDROOT
BRANCH   2  18
ATOM     18  N   UNL     1      10.584  13.033  18.764  0.00  0.00    +0.000 N 
ATOM     19  C   UNL     1      11.967  12.687  18.431  0.00  0.00    +0.000 C 
ATOM     20  C   UNL     1      12.333  13.666  17.330  0.00  0.00    +0.000 C 
ATOM     21  C   UNL     1      11.031  13.865  16.563  0.00  0.00    +0.000 C 
ATOM     22  C   UNL     1       9.912  13.606  17.590  0.00  0.00    +0.000 C 
BRANCH  21  23
ATOM     23  O   UNL     1      10.975  15.180  16.022  0.00  0.00    +0.000 OA
ATOM     24  H   UNL     1      10.472  15.139  15.186  0.00  0.00    +0.000 HD
ENDBRANCH  21  23
ENDBRANCH   2  18
BRANCH   1  26
ATOM     25  N   UNL     1       9.043   9.690  19.257  0.00  0.00    +0.000 NA
ATOM     26  C   UNL     1       9.211  10.761  19.899  0.00  0.00    +0.000 C 
ENDBRANCH   1  26
TORSDOF 3
ENDMDL
MODEL 3
REMARK VINA RESULT:      -6.4      2.632      6.238
REMARK  Name = 
REMARK  3 active torsions:
REMARK  status: ('A' for Active; 'I' for Inactive)
REMARK    1  A    between atoms: C_2  and  C_3
REMARK    2  A    between atoms: C_4  and  N_5
REMARK    3  A    between atoms: C_8  and  O_9
REMARK                            x       y       z     vdW  Elec       q    Type
REMARK                         _______ _______ _______ _____ _____    ______ ____
ROOT
ATOM      1  C   UNL     1       2.684   7.565  18.719  0.00  0.00    +0.000 A 
ATOM      2  C   UNL     1       2.131   7.010  19.826  0.00  0.00    +0.000 A 
ATOM      3  C   UNL     1       2.425   5.579  20.132  0.00  0.00    +0.000 A 
ATOM      4  C   UNL     1       1.898   4.964  21.285  0.00  0.00    +0.000 A 
ATOM      5  C   UNL     1       2.170   3.632  21.590  0.00  0.00    +0.000 A 
ATOM      6  C   UNL     1       2.986   2.893  20.750  0.00  0.00    +0.000 A 
ATOM      7  C   UNL     1       3.528   3.481  19.604  0.00  0.00    +0.000 A 
ATOM      8  C   UNL     1       3.251   4.815  19.282  0.00  0.00    +0.000 A 
ATOM      9  N   UNL     1       3.769   5.465  18.122  0.00  0.00    +0.000 N 
ATOM     10  C   UNL     1       3.506   6.808  17.837  0.00  0.00    +0.000 A 
ATOM     11  N   UNL     1       4.083   7.192  16.720  0.00  0.00    +0.000 NA
ATOM     12  C   UNL     1       4.729   6.092  16.240  0.00  0.00    +0.000 A 
ATOM     13  C   UNL     1       5.480   5.985  15.059  0.00  0.00    +0.000 A 
ATOM     14  C   UNL     1       6.070   4.762  14.728  0.00  0.00    +0.000 A 
ATOM     15  C   UNL     1       5.913   3.666  15.564  0.00  0.00    +0.000 A 
ATOM     16  C   UNL     1       5.162   3.755  16.745  0.00  0.00    +0.000 A 
ATOM     17  C   UNL     1       4.567   4.987  17.083  0.00  0.00    +0.000 A 
ENDROOT
BRANCH   2  18
ATOM     18  N   UNL     1       1.283   7.665  20.721  0.00  0.00    +0.000 N 
ATOM     19  C   UNL     1      -0.166   7.772  20.548  0.00  0.00    +0.000 C 
ATOM     20  C   UNL     1      -0.482   9.192  20.981  0.00  0.00    +0.000 C 
ATOM     21  C   UNL     1       0.519   9.472  22.096  0.00  0.00    +0.000 C 
ATOM     22  C   UNL     1       1.731   8.572  21.787  0.00  0.00    +0.000 C 
BRANCH  21  23
ATOM     23  O   UNL     1       0.861  10.853  22.115  0.00  0.00    +0.000 OA
ATOM     24  H   UNL     1       1.701  10.959  21.628  0.00  0.00    +0.000 HD
ENDBRANCH  21  23
ENDBRANCH   2  18
BRANCH   1  26
ATOM     25  N   UNL     1       2.135  10.237  18.181  0.00  0.00    +0.000 NA
ATOM     26  C   UNL     1       2.384   9.026  18.425  0.00  0.00    +0.000 C 
ENDBRANCH   1  26
TORSDOF 3
ENDMDL
MODEL 4
REMARK VINA RESULT:      -6.4      9.612     10.832
REMARK  Name = 
REMARK  3 active torsions:
REMARK  status: ('A' for Active; 'I' for Inactive)
REMARK    1  A    between atoms: C_2  and  C_3
REMARK    2  A    between atoms: C_4  and  N_5
REMARK    3  A    between atoms: C_8  and  O_9
REMARK                            x       y       z     vdW  Elec       q    Type
REMARK                         _______ _______ _______ _____ _____    ______ ____
ROOT
ATOM      1  C   UNL     1       9.312  12.410  21.361  0.00  0.00    +0.000 A 
ATOM      2  C   UNL     1       9.992  13.508  20.945  0.00  0.00    +0.000 A 
ATOM      3  C   UNL     1      10.051  14.697  21.844  0.00  0.00    +0.000 A 
ATOM      4  C   UNL     1      10.768  15.851  21.470  0.00  0.00    +0.000 A 
ATOM      5  C   UNL     1      10.840  16.966  22.301  0.00  0.00    +0.000 A 
ATOM      6  C   UNL     1      10.202  16.943  23.531  0.00  0.00    +0.000 A 
ATOM      7  C   UNL     1       9.491  15.808  23.929  0.00  0.00    +0.000 A 
ATOM      8  C   UNL     1       9.402  14.686  23.096  0.00  0.00    +0.000 A 
ATOM      9  N   UNL     1       8.683  13.504  23.446  0.00  0.00    +0.000 N 
ATOM     10  C   UNL     1       8.636  12.384  22.613  0.00  0.00    +0.000 A 
ATOM     11  N   UNL     1       7.916  11.416  23.137  0.00  0.00    +0.000 NA
ATOM     12  C   UNL     1       7.463  11.896  24.329  0.00  0.00    +0.000 A 
ATOM     13  C   UNL     1       6.637  11.244  25.259  0.00  0.00    +0.000 A 
ATOM     14  C   UNL     1       6.271  11.905  26.435  0.00  0.00    +0.000 A 
ATOM     15  C   UNL     1       6.724  13.194  26.678  0.00  0.00    +0.000 A 
ATOM     16  C   UNL     1       7.546  13.859  25.758  0.00  0.00    +0.000 A 
ATOM     17  C   UNL     1       7.919  13.196  24.571  0.00  0.00    +0.000 A 
ENDROOT
BRANCH   2  18
ATOM     18  N   UNL     1      10.649  13.635  19.719  0.00  0.00    +0.000 N 
ATOM     19  C   UNL     1      10.030  14.183  18.511  0.00  0.00    +0.000 C 
ATOM     20  C   UNL     1      10.542  13.286  17.399  0.00  0.00    +0.000 C 
ATOM     21  C   UNL     1      11.952  12.912  17.843  0.00  0.00    +0.000 C 
ATOM     22  C   UNL     1      11.925  12.989  19.383  0.00  0.00    +0.000 C 
BRANCH  21  23
ATOM     23  O   UNL     1      12.287  11.611  17.373  0.00  0.00    +0.000 OA
ATOM     24  H   UNL     1      12.191  11.610  16.401  0.00  0.00    +0.000 HD
ENDBRANCH  21  23
ENDBRANCH   2  18
BRANCH   1  26
ATOM     25  N   UNL     1       9.234  10.201  19.675  0.00  0.00    +0.000 NA
ATOM     26  C   UNL     1       9.269  11.202  20.439  0.00  0.00    +0.000 C 
ENDBRANCH   1  26
TORSDOF 3
ENDMDL
MODEL 5
REMARK VINA RESULT:      -6.3      6.865      9.598
REMARK  Name = 
REMARK  3 active torsions:
REMARK  status: ('A' for Active; 'I' for Inactive)
REMARK    1  A    between atoms: C_2  and  C_3
REMARK    2  A    between atoms: C_4  and  N_5
REMARK    3  A    between atoms: C_8  and  O_9
REMARK                            x       y       z     vdW  Elec       q    Type
REMARK                         _______ _______ _______ _____ _____    ______ ____
ROOT
ATOM      1  C   UNL     1      -1.980  12.857  21.212  0.00  0.00    +0.000 A 
ATOM      2  C   UNL     1      -1.462  12.475  20.017  0.00  0.00    +0.000 A 
ATOM      3  C   UNL     1      -2.396  12.026  18.943  0.00  0.00    +0.000 A 
ATOM      4  C   UNL     1      -1.910  11.646  17.676  0.00  0.00    +0.000 A 
ATOM      5  C   UNL     1      -2.769  11.233  16.660  0.00  0.00    +0.000 A 
ATOM      6  C   UNL     1      -4.134  11.205  16.890  0.00  0.00    +0.000 A 
ATOM      7  C   UNL     1      -4.643  11.585  18.135  0.00  0.00    +0.000 A 
ATOM      8  C   UNL     1      -3.788  11.989  19.167  0.00  0.00    +0.000 A 
ATOM      9  N   UNL     1      -4.250  12.379  20.460  0.00  0.00    +0.000 N 
ATOM     10  C   UNL     1      -3.380  12.811  21.465  0.00  0.00    +0.000 A 
ATOM     11  N   UNL     1      -4.024  13.116  22.570  0.00  0.00    +0.000 NA
ATOM     12  C   UNL     1      -5.340  12.873  22.310  0.00  0.00    +0.000 A 
ATOM     13  C   UNL     1      -6.431  13.029  23.180  0.00  0.00    +0.000 A 
ATOM     14  C   UNL     1      -7.718  12.723  22.731  0.00  0.00    +0.000 A 
ATOM     15  C   UNL     1      -7.913  12.271  21.434  0.00  0.00    +0.000 A 
ATOM     16  C   UNL     1      -6.834  12.106  20.553  0.00  0.00    +0.000 A 
ATOM     17  C   UNL     1      -5.534  12.415  21.002  0.00  0.00    +0.000 A 
ENDROOT
BRANCH   2  18
ATOM     18  N   UNL     1      -0.104  12.450  19.697  0.00  0.00    +0.000 N 
ATOM     19  C   UNL     1       0.647  13.614  19.222  0.00  0.00    +0.000 C 
ATOM     20  C   UNL     1       1.548  13.050  18.139  0.00  0.00    +0.000 C 
ATOM     21  C   UNL     1       1.884  11.645  18.628  0.00  0.00    +0.000 C 
ATOM     22  C   UNL     1       0.690  11.228  19.510  0.00  0.00    +0.000 C 
BRANCH  21  23
ATOM     23  O   UNL     1       2.071  10.770  17.523  0.00  0.00    +0.000 OA
ATOM     24  H   UNL     1       2.123  11.315  16.714  0.00  0.00    +0.000 HD
ENDBRANCH  21  23
ENDBRANCH   2  18
BRANCH   1  26
ATOM     25  N   UNL     1      -0.221  13.705  23.190  0.00  0.00    +0.000 NA
ATOM     26  C   UNL     1      -1.018  13.321  22.293  0.00  0.00    +0.000 C 
ENDBRANCH   1  26
TORSDOF 3
ENDMDL
MODEL 6
REMARK VINA RESULT:      -6.3     10.175     11.323
REMARK  Name = 
REMARK  3 active torsions:
REMARK  status: ('A' for Active; 'I' for Inactive)
REMARK    1  A    between atoms: C_2  and  C_3
REMARK    2  A    between atoms: C_4  and  N_5
REMARK    3  A    between atoms: C_8  and  O_9
REMARK                            x       y       z     vdW  Elec       q    Type
REMARK                         _______ _______ _______ _____ _____    ______ ____
ROOT
ATOM      1  C   UNL     1       9.906  15.322  20.990  0.00  0.00    +0.000 A 
ATOM      2  C   UNL     1      10.254  14.670  19.852  0.00  0.00    +0.000 A 
ATOM      3  C   UNL     1       9.997  13.203  19.761  0.00  0.00    +0.000 A 
ATOM      4  C   UNL     1      10.315  12.486  18.590  0.00  0.00    +0.000 A 
ATOM      5  C   UNL     1      10.073  11.117  18.485  0.00  0.00    +0.000 A 
ATOM      6  C   UNL     1       9.497  10.443  19.549  0.00  0.00    +0.000 A 
ATOM      7  C   UNL     1       9.166  11.132  20.718  0.00  0.00    +0.000 A 
ATOM      8  C   UNL     1       9.416  12.504  20.839  0.00  0.00    +0.000 A 
ATOM      9  N   UNL     1       9.107  13.258  22.011  0.00  0.00    +0.000 N 
ATOM     10  C   UNL     1       9.334  14.633  22.097  0.00  0.00    +0.000 A 
ATOM     11  N   UNL     1       8.976  15.116  23.266  0.00  0.00    +0.000 NA
ATOM     12  C   UNL     1       8.516  14.050  23.980  0.00  0.00    +0.000 A 
ATOM     13  C   UNL     1       8.032  14.044  25.299  0.00  0.00    +0.000 A 
ATOM     14  C   UNL     1       7.604  12.841  25.868  0.00  0.00    +0.000 A 
ATOM     15  C   UNL     1       7.657  11.666  25.132  0.00  0.00    +0.000 A 
ATOM     16  C   UNL     1       8.141  11.655  23.816  0.00  0.00    +0.000 A 
ATOM     17  C   UNL     1       8.572  12.865  23.238  0.00  0.00    +0.000 A 
ENDROOT
BRANCH   2  18
ATOM     18  N   UNL     1      10.855  15.256  18.736  0.00  0.00    +0.000 N 
ATOM     19  C   UNL     1      12.285  15.554  18.638  0.00  0.00    +0.000 C 
ATOM     20  C   UNL     1      12.330  16.908  17.952  0.00  0.00    +0.000 C 
ATOM     21  C   UNL     1      11.141  16.880  16.998  0.00  0.00    +0.000 C 
ATOM     22  C   UNL     1      10.127  15.913  17.643  0.00  0.00    +0.000 C 
BRANCH  21  23
ATOM     23  O   UNL     1      10.610  18.190  16.835  0.00  0.00    +0.000 OA
ATOM     24  H   UNL     1      10.394  18.310  15.890  0.00  0.00    +0.000 HD
ENDBRANCH  21  23
ENDBRANCH   2  18
BRANCH   1  26
ATOM     25  N   UNL     1      10.379  18.058  21.128  0.00  0.00    +0.000 NA
ATOM     26  C   UNL     1      10.165  16.818  21.065  0.00  0.00    +0.000 C 
ENDBRANCH   1  26
TORSDOF 3
ENDMDL
MODEL 7
REMARK VINA RESULT:      -6.2      8.794     12.187
REMARK  Name = 
REMARK  3 active torsions:
REMARK  status: ('A' for Active; 'I' for Inactive)
REMARK    1  A    between atoms: C_2  and  C_3
REMARK    2  A    between atoms: C_4  and  N_5
REMARK    3  A    between atoms: C_8  and  O_9
REMARK                            x       y       z     vdW  Elec       q    Type
REMARK                         _______ _______ _______ _____ _____    ______ ____
ROOT
ATOM      1  C   UNL     1      -5.318  13.152  20.396  0.00  0.00    +0.000 A 
ATOM      2  C   UNL     1      -4.693  13.367  21.580  0.00  0.00    +0.000 A 
ATOM      3  C   UNL     1      -3.295  12.873  21.751  0.00  0.00    +0.000 A 
ATOM      4  C   UNL     1      -2.592  13.096  22.952  0.00  0.00    +0.000 A 
ATOM      5  C   UNL     1      -1.284  12.650  23.125  0.00  0.00    +0.000 A 
ATOM      6  C   UNL     1      -0.650  11.980  22.092  0.00  0.00    +0.000 A 
ATOM      7  C   UNL     1      -1.322  11.752  20.889  0.00  0.00    +0.000 A 
ATOM      8  C   UNL     1      -2.640  12.186  20.709  0.00  0.00    +0.000 A 
ATOM      9  N   UNL     1      -3.378  11.974  19.506  0.00  0.00    +0.000 N 
ATOM     10  C   UNL     1      -4.683  12.445  19.336  0.00  0.00    +0.000 A 
ATOM     11  N   UNL     1      -5.165  12.133  18.153  0.00  0.00    +0.000 NA
ATOM     12  C   UNL     1      -4.178  11.433  17.525  0.00  0.00    +0.000 A 
ATOM     13  C   UNL     1      -4.212  10.865  16.241  0.00  0.00    +0.000 A 
ATOM     14  C   UNL     1      -3.095  10.173  15.766  0.00  0.00    +0.000 A 
ATOM     15  C   UNL     1      -1.963  10.052  16.559  0.00  0.00    +0.000 A 
ATOM     16  C   UNL     1      -1.915  10.610  17.845  0.00  0.00    +0.000 A 
ATOM     17  C   UNL     1      -3.039  11.310  18.327  0.00  0.00    +0.000 A 
ENDROOT
BRANCH   2  18
ATOM     18  N   UNL     1      -5.253  14.014  22.684  0.00  0.00    +0.000 N 
ATOM     19  C   UNL     1      -6.114  13.356  23.668  0.00  0.00    +0.000 C 
ATOM     20  C   UNL     1      -7.192  14.385  23.955  0.00  0.00    +0.000 C 
ATOM     21  C   UNL     1      -6.469  15.722  23.840  0.00  0.00    +0.000 C 
ATOM     22  C   UNL     1      -5.305  15.471  22.862  0.00  0.00    +0.000 C 
BRANCH  21  23
ATOM     23  O   UNL     1      -7.362  16.726  23.371  0.00  0.00    +0.000 OA
ATOM     24  H   UNL     1      -8.273  16.431  23.565  0.00  0.00    +0.000 HD
ENDBRANCH  21  23
ENDBRANCH   2  18
BRANCH   1  26
ATOM     25  N   UNL     1      -7.915  14.098  20.096  0.00  0.00    +0.000 NA
ATOM     26  C   UNL     1      -6.738  13.669  20.232  0.00  0.00    +0.000 C 
ENDBRANCH   1  26
TORSDOF 3
ENDMDL
MODEL 8
REMARK VINA RESULT:      -6.2      7.349     10.016
REMARK  Name = 
REMARK  3 active torsions:
REMARK  status: ('A' for Active; 'I' for Inactive)
REMARK    1  A    between atoms: C_2  and  C_3
REMARK    2  A    between atoms: C_4  and  N_5
REMARK    3  A    between atoms: C_8  and  O_9
REMARK                            x       y       z     vdW  Elec       q    Type
REMARK                         _______ _______ _______ _____ _____    ______ ____
ROOT
ATOM      1  C   UNL     1      -2.215  12.872  21.034  0.00  0.00    +0.000 A 
ATOM      2  C   UNL     1      -2.034  12.460  19.755  0.00  0.00    +0.000 A 
ATOM      3  C   UNL     1      -3.227  12.048  18.959  0.00  0.00    +0.000 A 
ATOM      4  C   UNL     1      -3.095  11.639  17.617  0.00  0.00    +0.000 A 
ATOM      5  C   UNL     1      -4.200  11.260  16.858  0.00  0.00    +0.000 A 
ATOM      6  C   UNL     1      -5.463  11.295  17.427  0.00  0.00    +0.000 A 
ATOM      7  C   UNL     1      -5.622  11.704  18.753  0.00  0.00    +0.000 A 
ATOM      8  C   UNL     1      -4.517  12.075  19.529  0.00  0.00    +0.000 A 
ATOM      9  N   UNL     1      -4.619  12.492  20.890  0.00  0.00    +0.000 N 
ATOM     10  C   UNL     1      -3.506  12.890  21.635  0.00  0.00    +0.000 A 
ATOM     11  N   UNL     1      -3.835  13.230  22.861  0.00  0.00    +0.000 NA
ATOM     12  C   UNL     1      -5.183  13.046  22.947  0.00  0.00    +0.000 A 
ATOM     13  C   UNL     1      -6.010  13.255  24.062  0.00  0.00    +0.000 A 
ATOM     14  C   UNL     1      -7.381  13.006  23.958  0.00  0.00    +0.000 A 
ATOM     15  C   UNL     1      -7.917  12.555  22.760  0.00  0.00    +0.000 A 
ATOM     16  C   UNL     1      -7.104  12.337  21.639  0.00  0.00    +0.000 A 
ATOM     17  C   UNL     1      -5.721  12.590  21.738  0.00  0.00    +0.000 A 
ENDROOT
BRANCH   2  18
ATOM     18  N   UNL     1      -0.803  12.372  19.101  0.00  0.00    +0.000 N 
ATOM     19  C   UNL     1       0.103  11.228  19.210  0.00  0.00    +0.000 C 
ATOM     20  C   UNL     1       1.481  11.859  19.293  0.00  0.00    +0.000 C 
ATOM     21  C   UNL     1       1.374  13.101  18.416  0.00  0.00    +0.000 C 
ATOM     22  C   UNL     1      -0.115  13.500  18.459  0.00  0.00    +0.000 C 
BRANCH  21  23
ATOM     23  O   UNL     1       2.223  14.129  18.912  0.00  0.00    +0.000 OA
ATOM     24  H   UNL     1       1.871  14.417  19.776  0.00  0.00    +0.000 HD
ENDBRANCH  21  23
ENDBRANCH   2  18
BRANCH   1  26
ATOM     25  N   UNL     1       0.023  13.650  22.489  0.00  0.00    +0.000 NA
ATOM     26  C   UNL     1      -0.992  13.298  21.830  0.00  0.00    +0.000 C 
ENDBRANCH   1  26
TORSDOF 3
ENDMDL
MODEL 9
REMARK VINA RESULT:      -6.1      5.721      9.091
REMARK  Name = 
REMARK  3 active torsions:
REMARK  status: ('A' for Active; 'I' for Inactive)
REMARK    1  A    between atoms: C_2  and  C_3
REMARK    2  A    between atoms: C_4  and  N_5
REMARK    3  A    between atoms: C_8  and  O_9
REMARK                            x       y       z     vdW  Elec       q    Type
REMARK                         _______ _______ _______ _____ _____    ______ ____
ROOT
ATOM      1  C   UNL     1      -2.165  12.233  20.315  0.00  0.00    +0.000 A 
ATOM      2  C   UNL     1      -1.571  11.494  19.345  0.00  0.00    +0.000 A 
ATOM      3  C   UNL     1      -2.370  11.115  18.143  0.00  0.00    +0.000 A 
ATOM      4  C   UNL     1      -1.790  10.372  17.095  0.00  0.00    +0.000 A 
ATOM      5  C   UNL     1      -2.520  10.018  15.962  0.00  0.00    +0.000 A 
ATOM      6  C   UNL     1      -3.843  10.411  15.852  0.00  0.00    +0.000 A 
ATOM      7  C   UNL     1      -4.440  11.155  16.874  0.00  0.00    +0.000 A 
ATOM      8  C   UNL     1      -3.720  11.506  18.022  0.00  0.00    +0.000 A 
ATOM      9  N   UNL     1      -4.279  12.256  19.100  0.00  0.00    +0.000 N 
ATOM     10  C   UNL     1      -3.531  12.624  20.221  0.00  0.00    +0.000 A 
ATOM     11  N   UNL     1      -4.250  13.307  21.085  0.00  0.00    +0.000 NA
ATOM     12  C   UNL     1      -5.499  13.388  20.544  0.00  0.00    +0.000 A 
ATOM     13  C   UNL     1      -6.634  14.006  21.093  0.00  0.00    +0.000 A 
ATOM     14  C   UNL     1      -7.839  13.982  20.386  0.00  0.00    +0.000 A 
ATOM     15  C   UNL     1      -7.908  13.352  19.151  0.00  0.00    +0.000 A 
ATOM     16  C   UNL     1      -6.785  12.727  18.592  0.00  0.00    +0.000 A 
ATOM     17  C   UNL     1      -5.567  12.750  19.301  0.00  0.00    +0.000 A 
ENDROOT
BRANCH   2  18
ATOM     18  N   UNL     1      -0.253  11.035  19.373  0.00  0.00    +0.000 N 
ATOM     19  C   UNL     1       0.900  11.827  18.942  0.00  0.00    +0.000 C 
ATOM     20  C   UNL     1       1.772  10.830  18.200  0.00  0.00    +0.000 C 
ATOM     21  C   UNL     1       1.551   9.518  18.944  0.00  0.00    +0.000 C 
ATOM     22  C   UNL     1       0.140   9.631  19.554  0.00  0.00    +0.000 C 
BRANCH  21  23
ATOM     23  O   UNL     1       1.666   8.419  18.047  0.00  0.00    +0.000 OA
ATOM     24  H   UNL     1       1.144   8.628  17.249  0.00  0.00    +0.000 HD
ENDBRANCH  21  23
ENDBRANCH   2  18
BRANCH   1  26
ATOM     25  N   UNL     1      -0.650  12.941  22.535  0.00  0.00    +0.000 NA
ATOM     26  C   UNL     1      -1.337  12.620  21.529  0.00  0.00    +0.000 C 
ENDBRANCH   1  26
TORSDOF 3
ENDMDL
