MODEL 1
REMARK VINA RESULT:      -7.0      0.000      0.000
REMARK  Name = 
REMARK  3 active torsions:
REMARK  status: ('A' for Active; 'I' for Inactive)
REMARK    1  A    between atoms: C_1  and  C_2
REMARK    2  A    between atoms: C_16  and  C_17
REMARK    3  A    between atoms: N_19  and  C_20
REMARK                            x       y       z     vdW  Elec       q    Type
REMARK                         _______ _______ _______ _____ _____    ______ ____
ROOT
ATOM      1  C   UNL     1      -7.884  10.944  21.043  0.00  0.00    +0.000 C 
ATOM      2  C   UNL     1      -6.683  11.296  20.239  0.00  0.00    +0.000 A 
ATOM      3  N   UNL     1      -5.647  11.947  20.710  0.00  0.00    +0.000 NA
ATOM      4  C   UNL     1      -4.673  12.109  19.725  0.00  0.00    +0.000 A 
ATOM      5  C   UNL     1      -5.023  11.575  18.493  0.00  0.00    +0.000 A 
ATOM      6  S   UNL     1      -6.582  10.859  18.587  0.00  0.00    +0.000 S 
ATOM      7  C   UNL     1      -4.289  11.568  17.286  0.00  0.00    +0.000 C 
ATOM      8  C   UNL     1      -2.951  11.490  17.280  0.00  0.00    +0.000 C 
ATOM      9  C   UNL     1      -2.060  11.311  18.445  0.00  0.00    +0.000 A 
ATOM     10  C   UNL     1      -0.974  10.436  18.232  0.00  0.00    +0.000 A 
ATOM     11  C   UNL     1      -0.029  10.203  19.227  0.00  0.00    +0.000 A 
ATOM     12 CL   UNL     1       1.253   9.091  18.960  0.00  0.00    +0.000 Cl
ATOM     13  C   UNL     1      -0.115  10.878  20.431  0.00  0.00    +0.000 A 
ATOM     14  C   UNL     1      -1.174  11.760  20.650  0.00  0.00    +0.000 A 
ATOM     15  C   UNL     1      -2.207  11.958  19.699  0.00  0.00    +0.000 A 
ATOM     16  C   UNL     1      -3.396  12.899  20.018  0.00  0.00    +0.000 C 
ENDROOT
BRANCH  16  17
ATOM     17  C   UNL     1      -3.404  13.471  21.438  0.00  0.00    +0.000 A 
ATOM     18  C   UNL     1      -3.884  12.765  22.480  0.00  0.00    +0.000 A 
ATOM     19  N   UNL     1      -3.849  13.194  23.783  0.00  0.00    +0.000 N 
ATOM     20  C   UNL     1      -4.404  12.350  24.826  0.00  0.00    +0.000 C 
ATOM     21  C   UNL     1      -3.327  14.425  24.128  0.00  0.00    +0.000 A 
ATOM     22  O   UNL     1      -3.271  14.857  25.279  0.00  0.00    +0.000 OA
ATOM     23  N   UNL     1      -2.856  15.172  23.077  0.00  0.00    +0.000 N 
ATOM     24  C   UNL     1      -2.872  14.832  21.743  0.00  0.00    +0.000 A 
ATOM     25  S   UNL     1      -2.293  15.971  20.658  0.00  0.00    +0.000 S 
ATOM     26  H   UNL     1      -2.498  16.083  23.328  0.00  0.00    +0.000 HD
ENDBRANCH  16  17
TORSDOF 1
ENDMDL
MODEL 2
REMARK VINA RESULT:      -6.9      9.085     11.752
REMARK  Name = 
REMARK  3 active torsions:
REMARK  status: ('A' for Active; 'I' for Inactive)
REMARK    1  A    between atoms: C_1  and  C_2
REMARK    2  A    between atoms: C_16  and  C_17
REMARK    3  A    between atoms: N_19  and  C_20
REMARK                            x       y       z     vdW  Elec       q    Type
REMARK                         _______ _______ _______ _____ _____    ______ ____
ROOT
ATOM      1  C   UNL     1       2.759   0.965  17.978  0.00  0.00    +0.000 C 
ATOM      2  C   UNL     1       2.843   2.272  18.682  0.00  0.00    +0.000 A 
ATOM      3  N   UNL     1       3.614   3.264  18.305  0.00  0.00    +0.000 NA
ATOM      4  C   UNL     1       3.460   4.362  19.151  0.00  0.00    +0.000 A 
ATOM      5  C   UNL     1       2.562   4.153  20.187  0.00  0.00    +0.000 A 
ATOM      6  S   UNL     1       1.906   2.569  20.084  0.00  0.00    +0.000 S 
ATOM      7  C   UNL     1       2.176   5.036  21.221  0.00  0.00    +0.000 C 
ATOM      8  C   UNL     1       2.106   6.360  21.022  0.00  0.00    +0.000 C 
ATOM      9  C   UNL     1       2.308   7.086  19.751  0.00  0.00    +0.000 A 
ATOM     10  C   UNL     1       1.415   8.155  19.530  0.00  0.00    +0.000 A 
ATOM     11  C   UNL     1       1.513   8.954  18.395  0.00  0.00    +0.000 A 
ATOM     12 CL   UNL     1       0.379  10.216  18.125  0.00  0.00    +0.000 Cl
ATOM     13  C   UNL     1       2.534   8.740  17.487  0.00  0.00    +0.000 A 
ATOM     14  C   UNL     1       3.435   7.697  17.701  0.00  0.00    +0.000 A 
ATOM     15  C   UNL     1       3.319   6.803  18.796  0.00  0.00    +0.000 A 
ATOM     16  C   UNL     1       4.307   5.620  18.952  0.00  0.00    +0.000 C 
ENDROOT
BRANCH  16  17
ATOM     17  C   UNL     1       5.299   5.452  17.798  0.00  0.00    +0.000 A 
ATOM     18  C   UNL     1       4.887   5.140  16.554  0.00  0.00    +0.000 A 
ATOM     19  N   UNL     1       5.720   5.049  15.467  0.00  0.00    +0.000 N 
ATOM     20  C   UNL     1       5.164   4.698  14.171  0.00  0.00    +0.000 C 
ATOM     21  C   UNL     1       7.081   5.253  15.576  0.00  0.00    +0.000 A 
ATOM     22  O   UNL     1       7.871   5.183  14.634  0.00  0.00    +0.000 OA
ATOM     23  N   UNL     1       7.525   5.545  16.841  0.00  0.00    +0.000 N 
ATOM     24  C   UNL     1       6.768   5.634  17.988  0.00  0.00    +0.000 A 
ATOM     25  S   UNL     1       7.585   5.938  19.420  0.00  0.00    +0.000 S 
ATOM     26  H   UNL     1       8.525   5.669  16.925  0.00  0.00    +0.000 HD
ENDBRANCH  16  17
TORSDOF 1
ENDMDL
MODEL 3
REMARK VINA RESULT:      -6.8      1.115      1.500
REMARK  Name = 
REMARK  3 active torsions:
REMARK  status: ('A' for Active; 'I' for Inactive)
REMARK    1  A    between atoms: C_1  and  C_2
REMARK    2  A    between atoms: C_16  and  C_17
REMARK    3  A    between atoms: N_19  and  C_20
REMARK                            x       y       z     vdW  Elec       q    Type
REMARK                         _______ _______ _______ _____ _____    ______ ____
ROOT
ATOM      1  C   UNL     1      -7.036  11.876  19.201  0.00  0.00    +0.000 C 
ATOM      2  C   UNL     1      -5.562  11.885  19.005  0.00  0.00    +0.000 A 
ATOM      3  N   UNL     1      -4.706  12.354  19.881  0.00  0.00    +0.000 NA
ATOM      4  C   UNL     1      -3.397  12.205  19.424  0.00  0.00    +0.000 A 
ATOM      5  C   UNL     1      -3.301  11.628  18.166  0.00  0.00    +0.000 A 
ATOM      6  S   UNL     1      -4.869  11.264  17.568  0.00  0.00    +0.000 S 
ATOM      7  C   UNL     1      -2.146  11.342  17.405  0.00  0.00    +0.000 C 
ATOM      8  C   UNL     1      -0.992  10.989  17.988  0.00  0.00    +0.000 C 
ATOM      9  C   UNL     1      -0.752  10.753  19.427  0.00  0.00    +0.000 A 
ATOM     10  C   UNL     1       0.085   9.655  19.717  0.00  0.00    +0.000 A 
ATOM     11  C   UNL     1       0.432   9.339  21.026  0.00  0.00    +0.000 A 
ATOM     12 CL   UNL     1       1.408   7.964  21.355  0.00  0.00    +0.000 Cl
ATOM     13  C   UNL     1      -0.000  10.140  22.067  0.00  0.00    +0.000 A 
ATOM     14  C   UNL     1      -0.814  11.240  21.795  0.00  0.00    +0.000 A 
ATOM     15  C   UNL     1      -1.265  11.546  20.486  0.00  0.00    +0.000 A 
ATOM     16  C   UNL     1      -2.222  12.741  20.245  0.00  0.00    +0.000 C 
ENDROOT
BRANCH  16  17
ATOM     17  C   UNL     1      -2.702  13.449  21.515  0.00  0.00    +0.000 A 
ATOM     18  C   UNL     1      -3.301  12.774  22.515  0.00  0.00    +0.000 A 
ATOM     19  N   UNL     1      -3.684  13.340  23.705  0.00  0.00    +0.000 N 
ATOM     20  C   UNL     1      -4.329  12.515  24.711  0.00  0.00    +0.000 C 
ATOM     21  C   UNL     1      -3.501  14.684  23.962  0.00  0.00    +0.000 A 
ATOM     22  O   UNL     1      -3.826  15.242  25.011  0.00  0.00    +0.000 OA
ATOM     23  N   UNL     1      -2.917  15.396  22.944  0.00  0.00    +0.000 N 
ATOM     24  C   UNL     1      -2.523  14.917  21.715  0.00  0.00    +0.000 A 
ATOM     25  S   UNL     1      -1.898  16.029  20.627  0.00  0.00    +0.000 S 
ATOM     26  H   UNL     1      -2.806  16.385  23.123  0.00  0.00    +0.000 HD
ENDBRANCH  16  17
TORSDOF 1
ENDMDL
MODEL 4
REMARK VINA RESULT:      -6.6      4.715      6.373
REMARK  Name = 
REMARK  3 active torsions:
REMARK  status: ('A' for Active; 'I' for Inactive)
REMARK    1  A    between atoms: C_1  and  C_2
REMARK    2  A    between atoms: C_16  and  C_17
REMARK    3  A    between atoms: N_19  and  C_20
REMARK                            x       y       z     vdW  Elec       q    Type
REMARK                         _______ _______ _______ _____ _____    ______ ____
ROOT
ATOM      1  C   UNL     1      -3.672   9.365  17.459  0.00  0.00    +0.000 C 
ATOM      2  C   UNL     1      -2.925  10.394  18.230  0.00  0.00    +0.000 A 
ATOM      3  N   UNL     1      -1.722  10.216  18.721  0.00  0.00    +0.000 NA
ATOM      4  C   UNL     1      -1.278  11.366  19.375  0.00  0.00    +0.000 A 
ATOM      5  C   UNL     1      -2.198  12.404  19.376  0.00  0.00    +0.000 A 
ATOM      6  S   UNL     1      -3.620  11.927  18.540  0.00  0.00    +0.000 S 
ATOM      7  C   UNL     1      -2.086  13.691  19.947  0.00  0.00    +0.000 C 
ATOM      8  C   UNL     1      -0.908  14.330  20.009  0.00  0.00    +0.000 C 
ATOM      9  C   UNL     1       0.382  13.885  19.444  0.00  0.00    +0.000 A 
ATOM     10  C   UNL     1       1.153  14.905  18.849  0.00  0.00    +0.000 A 
ATOM     11  C   UNL     1       2.409  14.640  18.313  0.00  0.00    +0.000 A 
ATOM     12 CL   UNL     1       3.304  15.890  17.545  0.00  0.00    +0.000 Cl
ATOM     13  C   UNL     1       2.946  13.369  18.408  0.00  0.00    +0.000 A 
ATOM     14  C   UNL     1       2.203  12.353  19.009  0.00  0.00    +0.000 A 
ATOM     15  C   UNL     1       0.884  12.558  19.488  0.00  0.00    +0.000 A 
ATOM     16  C   UNL     1       0.075  11.380  20.088  0.00  0.00    +0.000 C 
ENDROOT
BRANCH  16  17
ATOM     17  C   UNL     1       0.766  10.016  20.007  0.00  0.00    +0.000 A 
ATOM     18  C   UNL     1       1.319   9.573  18.862  0.00  0.00    +0.000 A 
ATOM     19  N   UNL     1       2.015   8.395  18.748  0.00  0.00    +0.000 N 
ATOM     20  C   UNL     1       2.564   8.014  17.458  0.00  0.00    +0.000 C 
ATOM     21  C   UNL     1       2.183   7.544  19.821  0.00  0.00    +0.000 A 
ATOM     22  O   UNL     1       2.797   6.478  19.773  0.00  0.00    +0.000 OA
ATOM     23  N   UNL     1       1.603   7.964  20.993  0.00  0.00    +0.000 N 
ATOM     24  C   UNL     1       0.871   9.114  21.191  0.00  0.00    +0.000 A 
ATOM     25  S   UNL     1       0.214   9.346  22.716  0.00  0.00    +0.000 S 
ATOM     26  H   UNL     1       1.704   7.329  21.772  0.00  0.00    +0.000 HD
ENDBRANCH  16  17
TORSDOF 1
ENDMDL
MODEL 5
REMARK VINA RESULT:      -6.6      1.628      2.019
REMARK  Name = 
REMARK  3 active torsions:
REMARK  status: ('A' for Active; 'I' for Inactive)
REMARK    1  A    between atoms: C_1  and  C_2
REMARK    2  A    between atoms: C_16  and  C_17
REMARK    3  A    between atoms: N_19  and  C_20
REMARK                            x       y       z     vdW  Elec       q    Type
REMARK                         _______ _______ _______ _____ _____    ______ ____
ROOT
ATOM      1  C   UNL     1      -7.077  11.396  18.379  0.00  0.00    +0.000 C 
ATOM      2  C   UNL     1      -5.612  11.621  18.500  0.00  0.00    +0.000 A 
ATOM      3  N   UNL     1      -5.047  12.278  19.485  0.00  0.00    +0.000 NA
ATOM      4  C   UNL     1      -3.660  12.303  19.334  0.00  0.00    +0.000 A 
ATOM      5  C   UNL     1      -3.207  11.662  18.190  0.00  0.00    +0.000 A 
ATOM      6  S   UNL     1      -4.535  11.018  17.314  0.00  0.00    +0.000 S 
ATOM      7  C   UNL     1      -1.882  11.507  17.725  0.00  0.00    +0.000 C 
ATOM      8  C   UNL     1      -0.851  11.379  18.573  0.00  0.00    +0.000 C 
ATOM      9  C   UNL     1      -0.911  11.285  20.046  0.00  0.00    +0.000 A 
ATOM     10  C   UNL     1      -0.019  10.353  20.617  0.00  0.00    +0.000 A 
ATOM     11  C   UNL     1       0.064  10.187  21.996  0.00  0.00    +0.000 A 
ATOM     12 CL   UNL     1       1.120   9.007  22.663  0.00  0.00    +0.000 Cl
ATOM     13  C   UNL     1      -0.696  10.981  22.834  0.00  0.00    +0.000 A 
ATOM     14  C   UNL     1      -1.570  11.919  22.284  0.00  0.00    +0.000 A 
ATOM     15  C   UNL     1      -1.753  12.060  20.885  0.00  0.00    +0.000 A 
ATOM     16  C   UNL     1      -2.785  13.071  20.326  0.00  0.00    +0.000 C 
ENDROOT
BRANCH  16  17
ATOM     17  C   UNL     1      -3.631  13.783  21.386  0.00  0.00    +0.000 A 
ATOM     18  C   UNL     1      -4.479  13.104  22.183  0.00  0.00    +0.000 A 
ATOM     19  N   UNL     1      -5.205  13.675  23.198  0.00  0.00    +0.000 N 
ATOM     20  C   UNL     1      -6.096  12.846  23.991  0.00  0.00    +0.000 C 
ATOM     21  C   UNL     1      -5.136  15.027  23.468  0.00  0.00    +0.000 A 
ATOM     22  O   UNL     1      -5.765  15.589  24.365  0.00  0.00    +0.000 OA
ATOM     23  N   UNL     1      -4.298  15.742  22.649  0.00  0.00    +0.000 N 
ATOM     24  C   UNL     1      -3.552  15.258  21.598  0.00  0.00    +0.000 A 
ATOM     25  S   UNL     1      -2.663  16.372  20.715  0.00  0.00    +0.000 S 
ATOM     26  H   UNL     1      -4.267  16.736  22.831  0.00  0.00    +0.000 HD
ENDBRANCH  16  17
TORSDOF 1
ENDMDL
MODEL 6
REMARK VINA RESULT:      -6.5      2.810      4.768
REMARK  Name = 
REMARK  3 active torsions:
REMARK  status: ('A' for Active; 'I' for Inactive)
REMARK    1  A    between atoms: C_1  and  C_2
REMARK    2  A    between atoms: C_16  and  C_17
REMARK    3  A    between atoms: N_19  and  C_20
REMARK                            x       y       z     vdW  Elec       q    Type
REMARK                         _______ _______ _______ _____ _____    ______ ____
ROOT
ATOM      1  C   UNL     1      -0.029  16.425  20.314  0.00  0.00    +0.000 C 
ATOM      2  C   UNL     1      -0.280  14.991  20.014  0.00  0.00    +0.000 A 
ATOM      3  N   UNL     1      -1.433  14.393  20.190  0.00  0.00    +0.000 NA
ATOM      4  C   UNL     1      -1.364  13.055  19.800  0.00  0.00    +0.000 A 
ATOM      5  C   UNL     1      -0.113  12.665  19.345  0.00  0.00    +0.000 A 
ATOM      6  S   UNL     1       0.972  13.996  19.401  0.00  0.00    +0.000 S 
ATOM      7  C   UNL     1       0.311  11.398  18.886  0.00  0.00    +0.000 C 
ATOM      8  C   UNL     1      -0.519  10.577  18.228  0.00  0.00    +0.000 C 
ATOM      9  C   UNL     1      -1.906  10.860  17.802  0.00  0.00    +0.000 A 
ATOM     10  C   UNL     1      -2.244  10.374  16.522  0.00  0.00    +0.000 A 
ATOM     11  C   UNL     1      -3.527  10.530  16.007  0.00  0.00    +0.000 A 
ATOM     12 CL   UNL     1      -3.897   9.977  14.423  0.00  0.00    +0.000 Cl
ATOM     13  C   UNL     1      -4.511  11.122  16.776  0.00  0.00    +0.000 A 
ATOM     14  C   UNL     1      -4.197  11.593  18.052  0.00  0.00    +0.000 A 
ATOM     15  C   UNL     1      -2.882  11.535  18.580  0.00  0.00    +0.000 A 
ATOM     16  C   UNL     1      -2.570  12.132  19.976  0.00  0.00    +0.000 C 
ENDROOT
BRANCH  16  17
ATOM     17  C   UNL     1      -3.741  12.859  20.643  0.00  0.00    +0.000 A 
ATOM     18  C   UNL     1      -4.671  13.510  19.918  0.00  0.00    +0.000 A 
ATOM     19  N   UNL     1      -5.781  14.115  20.453  0.00  0.00    +0.000 N 
ATOM     20  C   UNL     1      -6.715  14.796  19.574  0.00  0.00    +0.000 C 
ATOM     21  C   UNL     1      -6.019  14.122  21.813  0.00  0.00    +0.000 A 
ATOM     22  O   UNL     1      -6.996  14.649  22.345  0.00  0.00    +0.000 OA
ATOM     23  N   UNL     1      -5.068  13.486  22.573  0.00  0.00    +0.000 N 
ATOM     24  C   UNL     1      -3.919  12.875  22.124  0.00  0.00    +0.000 A 
ATOM     25  S   UNL     1      -2.892  12.235  23.285  0.00  0.00    +0.000 S 
ATOM     26  H   UNL     1      -5.230  13.513  23.570  0.00  0.00    +0.000 HD
ENDBRANCH  16  17
TORSDOF 1
ENDMDL
MODEL 7
REMARK VINA RESULT:      -6.5      2.897      4.861
REMARK  Name = 
REMARK  3 active torsions:
REMARK  status: ('A' for Active; 'I' for Inactive)
REMARK    1  A    between atoms: C_1  and  C_2
REMARK    2  A    between atoms: C_16  and  C_17
REMARK    3  A    between atoms: N_19  and  C_20
REMARK                            x       y       z     vdW  Elec       q    Type
REMARK                         _______ _______ _______ _____ _____    ______ ____
ROOT
ATOM      1  C   UNL     1       1.401  15.495  20.403  0.00  0.00    +0.000 C 
ATOM      2  C   UNL     1       0.898  14.141  20.050  0.00  0.00    +0.000 A 
ATOM      3  N   UNL     1      -0.320  13.721  20.296  0.00  0.00    +0.000 NA
ATOM      4  C   UNL     1      -0.499  12.418  19.830  0.00  0.00    +0.000 A 
ATOM      5  C   UNL     1       0.633  11.868  19.246  0.00  0.00    +0.000 A 
ATOM      6  S   UNL     1       1.920  13.005  19.277  0.00  0.00    +0.000 S 
ATOM      7  C   UNL     1       0.809  10.583  18.685  0.00  0.00    +0.000 C 
ATOM      8  C   UNL     1      -0.193   9.948  18.061  0.00  0.00    +0.000 C 
ATOM      9  C   UNL     1      -1.544  10.472  17.775  0.00  0.00    +0.000 A 
ATOM     10  C   UNL     1      -2.057  10.131  16.505  0.00  0.00    +0.000 A 
ATOM     11  C   UNL     1      -3.333  10.521  16.114  0.00  0.00    +0.000 A 
ATOM     12 CL   UNL     1      -3.912  10.139  14.542  0.00  0.00    +0.000 Cl
ATOM     13  C   UNL     1      -4.146  11.208  16.998  0.00  0.00    +0.000 A 
ATOM     14  C   UNL     1      -3.660  11.537  18.264  0.00  0.00    +0.000 A 
ATOM     15  C   UNL     1      -2.334  11.239  18.670  0.00  0.00    +0.000 A 
ATOM     16  C   UNL     1      -1.821  11.685  20.062  0.00  0.00    +0.000 C 
ENDROOT
BRANCH  16  17
ATOM     17  C   UNL     1      -2.803  12.541  20.868  0.00  0.00    +0.000 A 
ATOM     18  C   UNL     1      -3.673  13.373  20.263  0.00  0.00    +0.000 A 
ATOM     19  N   UNL     1      -4.624  14.107  20.926  0.00  0.00    +0.000 N 
ATOM     20  C   UNL     1      -5.507  14.979  20.170  0.00  0.00    +0.000 C 
ATOM     21  C   UNL     1      -4.747  14.064  22.300  0.00  0.00    +0.000 A 
ATOM     22  O   UNL     1      -5.581  14.702  22.944  0.00  0.00    +0.000 OA
ATOM     23  N   UNL     1      -3.851  13.243  22.939  0.00  0.00    +0.000 N 
ATOM     24  C   UNL     1      -2.854  12.491  22.358  0.00  0.00    +0.000 A 
ATOM     25  S   UNL     1      -1.852  11.627  23.388  0.00  0.00    +0.000 S 
ATOM     26  H   UNL     1      -3.925  13.231  23.946  0.00  0.00    +0.000 HD
ENDBRANCH  16  17
TORSDOF 1
ENDMDL
MODEL 8
REMARK VINA RESULT:      -6.4      4.548      6.286
REMARK  Name = 
REMARK  3 active torsions:
REMARK  status: ('A' for Active; 'I' for Inactive)
REMARK    1  A    between atoms: C_1  and  C_2
REMARK    2  A    between atoms: C_16  and  C_17
REMARK    3  A    between atoms: N_19  and  C_20
REMARK                            x       y       z     vdW  Elec       q    Type
REMARK                         _______ _______ _______ _____ _____    ______ ____
ROOT
ATOM      1  C   UNL     1      -3.056   9.442  16.355  0.00  0.00    +0.000 C 
ATOM      2  C   UNL     1      -2.726  10.316  17.513  0.00  0.00    +0.000 A 
ATOM      3  N   UNL     1      -1.692  10.136  18.299  0.00  0.00    +0.000 NA
ATOM      4  C   UNL     1      -1.637  11.126  19.280  0.00  0.00    +0.000 A 
ATOM      5  C   UNL     1      -2.677  12.042  19.215  0.00  0.00    +0.000 A 
ATOM      6  S   UNL     1      -3.718  11.655  17.905  0.00  0.00    +0.000 S 
ATOM      7  C   UNL     1      -2.936  13.154  20.047  0.00  0.00    +0.000 C 
ATOM      8  C   UNL     1      -1.940  13.865  20.596  0.00  0.00    +0.000 C 
ATOM      9  C   UNL     1      -0.490  13.694  20.374  0.00  0.00    +0.000 A 
ATOM     10  C   UNL     1       0.241  14.896  20.267  0.00  0.00    +0.000 A 
ATOM     11  C   UNL     1       1.621  14.889  20.097  0.00  0.00    +0.000 A 
ATOM     12 CL   UNL     1       2.479  16.367  19.916  0.00  0.00    +0.000 Cl
ATOM     13  C   UNL     1       2.308  13.689  20.087  0.00  0.00    +0.000 A 
ATOM     14  C   UNL     1       1.603  12.492  20.208  0.00  0.00    +0.000 A 
ATOM     15  C   UNL     1       0.188  12.449  20.292  0.00  0.00    +0.000 A 
ATOM     16  C   UNL     1      -0.554  11.090  20.360  0.00  0.00    +0.000 C 
ENDROOT
BRANCH  16  17
ATOM     17  C   UNL     1       0.343   9.858  20.213  0.00  0.00    +0.000 A 
ATOM     18  C   UNL     1       0.977   9.581  19.058  0.00  0.00    +0.000 A 
ATOM     19  N   UNL     1       1.850   8.536  18.890  0.00  0.00    +0.000 N 
ATOM     20  C   UNL     1       2.472   8.328  17.593  0.00  0.00    +0.000 C 
ATOM     21  C   UNL     1       2.132   7.654  19.913  0.00  0.00    +0.000 A 
ATOM     22  O   UNL     1       2.906   6.701  19.816  0.00  0.00    +0.000 OA
ATOM     23  N   UNL     1       1.475   7.902  21.093  0.00  0.00    +0.000 N 
ATOM     24  C   UNL     1       0.569   8.909  21.342  0.00  0.00    +0.000 A 
ATOM     25  S   UNL     1      -0.140   8.937  22.861  0.00  0.00    +0.000 S 
ATOM     26  H   UNL     1       1.662   7.241  21.834  0.00  0.00    +0.000 HD
ENDBRANCH  16  17
TORSDOF 1
ENDMDL
MODEL 9
REMARK VINA RESULT:      -6.4      3.983      5.812
REMARK  Name = 
REMARK  3 active torsions:
REMARK  status: ('A' for Active; 'I' for Inactive)
REMARK    1  A    between atoms: C_1  and  C_2
REMARK    2  A    between atoms: C_16  and  C_17
REMARK    3  A    between atoms: N_19  and  C_20
REMARK                            x       y       z     vdW  Elec       q    Type
REMARK                         _______ _______ _______ _____ _____    ______ ____
ROOT
ATOM      1  C   UNL     1      -6.466  12.522  21.254  0.00  0.00    +0.000 C 
ATOM      2  C   UNL     1      -5.016  12.698  21.535  0.00  0.00    +0.000 A 
ATOM      3  N   UNL     1      -4.059  12.375  20.698  0.00  0.00    +0.000 NA
ATOM      4  C   UNL     1      -2.807  12.676  21.235  0.00  0.00    +0.000 A 
ATOM      5  C   UNL     1      -2.857  13.217  22.511  0.00  0.00    +0.000 A 
ATOM      6  S   UNL     1      -4.490  13.353  23.027  0.00  0.00    +0.000 S 
ATOM      7  C   UNL     1      -1.793  13.624  23.346  0.00  0.00    +0.000 C 
ATOM      8  C   UNL     1      -0.665  14.144  22.841  0.00  0.00    +0.000 C 
ATOM      9  C   UNL     1      -0.380  14.458  21.426  0.00  0.00    +0.000 A 
ATOM     10  C   UNL     1       0.319  15.665  21.215  0.00  0.00    +0.000 A 
ATOM     11  C   UNL     1       0.692  16.069  19.937  0.00  0.00    +0.000 A 
ATOM     12 CL   UNL     1       1.495  17.570  19.704  0.00  0.00    +0.000 Cl
ATOM     13  C   UNL     1       0.426  15.256  18.852  0.00  0.00    +0.000 A 
ATOM     14  C   UNL     1      -0.250  14.050  19.045  0.00  0.00    +0.000 A 
ATOM     15  C   UNL     1      -0.727  13.643  20.317  0.00  0.00    +0.000 A 
ATOM     16  C   UNL     1      -1.530  12.326  20.469  0.00  0.00    +0.000 C 
ENDROOT
BRANCH  16  17
ATOM     17  C   UNL     1      -1.843  11.606  19.154  0.00  0.00    +0.000 A 
ATOM     18  C   UNL     1      -2.999  11.814  18.495  0.00  0.00    +0.000 A 
ATOM     19  N   UNL     1      -3.303  11.256  17.278  0.00  0.00    +0.000 N 
ATOM     20  C   UNL     1      -4.586  11.546  16.661  0.00  0.00    +0.000 C 
ATOM     21  C   UNL     1      -2.432  10.399  16.636  0.00  0.00    +0.000 A 
ATOM     22  O   UNL     1      -2.655   9.871  15.545  0.00  0.00    +0.000 OA
ATOM     23  N   UNL     1      -1.259  10.152  17.304  0.00  0.00    +0.000 N 
ATOM     24  C   UNL     1      -0.883  10.648  18.533  0.00  0.00    +0.000 A 
ATOM     25  S   UNL     1       0.584  10.123  19.151  0.00  0.00    +0.000 S 
ATOM     26  H   UNL     1      -0.634   9.504  16.845  0.00  0.00    +0.000 HD
ENDBRANCH  16  17
TORSDOF 1
ENDMDL
