MODEL 1
REMARK VINA RESULT:      -8.4      0.000      0.000
REMARK  Name = 
REMARK  6 active torsions:
REMARK  status: ('A' for Active; 'I' for Inactive)
REMARK    1  A    between atoms: C_1  and  O_2
REMARK    2  A    between atoms: O_2  and  C_3
REMARK    3  A    between atoms: C_6  and  C_7
REMARK    4  A    between atoms: C_9  and  N_10
REMARK    5  A    between atoms: C_14  and  N_15
REMARK    6  A    between atoms: C_16  and  C_18
REMARK                            x       y       z     vdW  Elec       q    Type
REMARK                         _______ _______ _______ _____ _____    ______ ____
ROOT
ATOM      1  N   UNL     1       6.968   5.927  17.905  0.00  0.00    +0.000 N 
ATOM      2  C   UNL     1       7.056   5.036  16.749  0.00  0.00    +0.000 C 
ATOM      3  C   UNL     1       5.676   4.453  16.446  0.00  0.00    +0.000 C 
ATOM      4  C   UNL     1       5.000   3.862  17.690  0.00  0.00    +0.000 C 
ATOM      5  C   UNL     1       5.034   4.814  18.898  0.00  0.00    +0.000 C 
ATOM      6  C   UNL     1       6.482   5.291  19.139  0.00  0.00    +0.000 C 
ENDROOT
BRANCH   1   9
ATOM      7  C   UNL     1       8.452   9.170  18.239  0.00  0.00    +0.000 A 
ATOM      8  C   UNL     1       8.405   7.820  18.680  0.00  0.00    +0.000 A 
ATOM      9  C   UNL     1       7.454   7.195  17.908  0.00  0.00    +0.000 A 
ATOM     10  N   UNL     1       6.976   8.181  17.086  0.00  0.00    +0.000 N 
ATOM     11  N   UNL     1       7.562   9.376  17.256  0.00  0.00    +0.000 NA
ATOM     12  H   UNL     1       6.222   8.109  16.416  0.00  0.00    +0.000 HD
BRANCH   7  16
ATOM     13  C   UNL     1      11.035  12.265  19.672  0.00  0.00    +0.000 A 
ATOM     14  C   UNL     1      10.994  11.951  18.313  0.00  0.00    +0.000 A 
ATOM     15  C   UNL     1      10.137  10.953  17.842  0.00  0.00    +0.000 A 
ATOM     16  C   UNL     1       9.326  10.235  18.730  0.00  0.00    +0.000 A 
ATOM     17  C   UNL     1       9.383  10.546  20.095  0.00  0.00    +0.000 A 
ATOM     18  C   UNL     1      10.234  11.552  20.564  0.00  0.00    +0.000 A 
BRANCH  13  20
ATOM     19  C   UNL     1      11.804  14.459  19.275  0.00  0.00    +0.000 C 
ATOM     20  O   UNL     1      11.916  13.251  20.019  0.00  0.00    +0.000 OA
ENDBRANCH  13  20
ENDBRANCH   7  16
ENDBRANCH   1   9
BRANCH   5  21
ATOM     21  N   UNL     1       4.153   5.965  18.704  0.00  0.00    +0.000 N 
ATOM     22  C   UNL     1       3.014   6.200  19.438  0.00  0.00    +0.000 C 
ATOM     23  O   UNL     1       2.577   5.428  20.284  0.00  0.00    +0.000 OA
ATOM     24  H   UNL     1       4.424   6.666  18.015  0.00  0.00    +0.000 HD
BRANCH  22  25
ATOM     25  C   UNL     1       2.340   7.502  19.157  0.00  0.00    +0.000 A 
ATOM     26  C   UNL     1       2.415   8.063  17.890  0.00  0.00    +0.000 A 
ATOM     27  N   UNL     1       1.794   9.231  17.575  0.00  0.00    +0.000 NA
ATOM     28  C   UNL     1       1.093   9.803  18.580  0.00  0.00    +0.000 A 
ATOM     29  C   UNL     1       1.014   9.241  19.846  0.00  0.00    +0.000 A 
ATOM     30  N   UNL     1       1.635   8.082  20.173  0.00  0.00    +0.000 NA
ENDBRANCH  22  25
ENDBRANCH   5  21
TORSDOF 5
ENDMDL
MODEL 2
REMARK VINA RESULT:      -8.3      0.576      1.321
REMARK  Name = 
REMARK  6 active torsions:
REMARK  status: ('A' for Active; 'I' for Inactive)
REMARK    1  A    between atoms: C_1  and  O_2
REMARK    2  A    between atoms: O_2  and  C_3
REMARK    3  A    between atoms: C_6  and  C_7
REMARK    4  A    between atoms: C_9  and  N_10
REMARK    5  A    between atoms: C_14  and  N_15
REMARK    6  A    between atoms: C_16  and  C_18
REMARK                            x       y       z     vdW  Elec       q    Type
REMARK                         _______ _______ _______ _____ _____    ______ ____
ROOT
ATOM      1  N   UNL     1       7.098   5.825  18.037  0.00  0.00    +0.000 N 
ATOM      2  C   UNL     1       7.173   4.903  16.905  0.00  0.00    +0.000 C 
ATOM      3  C   UNL     1       5.797   4.287  16.654  0.00  0.00    +0.000 C 
ATOM      4  C   UNL     1       5.163   3.720  17.932  0.00  0.00    +0.000 C 
ATOM      5  C   UNL     1       5.209   4.708  19.111  0.00  0.00    +0.000 C 
ATOM      6  C   UNL     1       6.654   5.217  19.301  0.00  0.00    +0.000 C 
ENDROOT
BRANCH   1   9
ATOM      7  C   UNL     1       8.492   9.117  18.265  0.00  0.00    +0.000 A 
ATOM      8  C   UNL     1       8.430   7.799  18.794  0.00  0.00    +0.000 A 
ATOM      9  C   UNL     1       7.560   7.101  17.991  0.00  0.00    +0.000 A 
ATOM     10  N   UNL     1       7.138   8.016  17.064  0.00  0.00    +0.000 N 
ATOM     11  N   UNL     1       7.687   9.233  17.197  0.00  0.00    +0.000 NA
ATOM     12  H   UNL     1       6.445   7.881  16.340  0.00  0.00    +0.000 HD
BRANCH   7  16
ATOM     13  C   UNL     1      10.832  12.401  19.691  0.00  0.00    +0.000 A 
ATOM     14  C   UNL     1      10.126  11.596  20.584  0.00  0.00    +0.000 A 
ATOM     15  C   UNL     1       9.376  10.512  20.121  0.00  0.00    +0.000 A 
ATOM     16  C   UNL     1       9.302  10.233  18.751  0.00  0.00    +0.000 A 
ATOM     17  C   UNL     1      10.003  11.055  17.858  0.00  0.00    +0.000 A 
ATOM     18  C   UNL     1      10.761  12.134  18.324  0.00  0.00    +0.000 A 
BRANCH  13  20
ATOM     19  C   UNL     1      11.191  14.731  19.769  0.00  0.00    +0.000 C 
ATOM     20  O   UNL     1      11.524  13.436  20.256  0.00  0.00    +0.000 OA
ENDBRANCH  13  20
ENDBRANCH   7  16
ENDBRANCH   1   9
BRANCH   5  21
ATOM     21  N   UNL     1       4.303   5.836  18.906  0.00  0.00    +0.000 N 
ATOM     22  C   UNL     1       3.095   5.985  19.548  0.00  0.00    +0.000 C 
ATOM     23  O   UNL     1       2.618   5.147  20.305  0.00  0.00    +0.000 OA
ATOM     24  H   UNL     1       4.604   6.588  18.287  0.00  0.00    +0.000 HD
BRANCH  22  25
ATOM     25  C   UNL     1       2.396   7.277  19.285  0.00  0.00    +0.000 A 
ATOM     26  C   UNL     1       1.693   7.906  20.303  0.00  0.00    +0.000 A 
ATOM     27  N   UNL     1       1.065   9.098  20.123  0.00  0.00    +0.000 NA
ATOM     28  C   UNL     1       1.179   9.632  18.885  0.00  0.00    +0.000 A 
ATOM     29  C   UNL     1       1.885   9.006  17.868  0.00  0.00    +0.000 A 
ATOM     30  N   UNL     1       2.508   7.814  18.034  0.00  0.00    +0.000 NA
ENDBRANCH  22  25
ENDBRANCH   5  21
TORSDOF 5
ENDMDL
MODEL 3
REMARK VINA RESULT:      -8.2      3.804      7.795
REMARK  Name = 
REMARK  6 active torsions:
REMARK  status: ('A' for Active; 'I' for Inactive)
REMARK    1  A    between atoms: C_1  and  O_2
REMARK    2  A    between atoms: O_2  and  C_3
REMARK    3  A    between atoms: C_6  and  C_7
REMARK    4  A    between atoms: C_9  and  N_10
REMARK    5  A    between atoms: C_14  and  N_15
REMARK    6  A    between atoms: C_16  and  C_18
REMARK                            x       y       z     vdW  Elec       q    Type
REMARK                         _______ _______ _______ _____ _____    ______ ____
ROOT
ATOM      1  N   UNL     1       2.188   4.270  19.762  0.00  0.00    +0.000 N 
ATOM      2  C   UNL     1       2.132   3.308  20.861  0.00  0.00    +0.000 C 
ATOM      3  C   UNL     1       3.396   2.449  20.854  0.00  0.00    +0.000 C 
ATOM      4  C   UNL     1       3.700   1.859  19.469  0.00  0.00    +0.000 C 
ATOM      5  C   UNL     1       3.643   2.910  18.347  0.00  0.00    +0.000 C 
ATOM      6  C   UNL     1       2.303   3.673  18.423  0.00  0.00    +0.000 C 
ENDROOT
BRANCH   1   9
ATOM      7  C   UNL     1       1.369   7.685  20.472  0.00  0.00    +0.000 A 
ATOM      8  C   UNL     1       1.227   6.316  20.829  0.00  0.00    +0.000 A 
ATOM      9  C   UNL     1       1.979   5.603  19.926  0.00  0.00    +0.000 A 
ATOM     10  N   UNL     1       2.497   6.550  19.084  0.00  0.00    +0.000 N 
ATOM     11  N   UNL     1       2.155   7.811  19.392  0.00  0.00    +0.000 NA
ATOM     12  H   UNL     1       3.057   6.395  18.257  0.00  0.00    +0.000 HD
BRANCH   7  16
ATOM     13  C   UNL     1      -0.374  11.064  22.432  0.00  0.00    +0.000 A 
ATOM     14  C   UNL     1      -0.395   9.808  23.037  0.00  0.00    +0.000 A 
ATOM     15  C   UNL     1       0.191   8.708  22.406  0.00  0.00    +0.000 A 
ATOM     16  C   UNL     1       0.784   8.844  21.145  0.00  0.00    +0.000 A 
ATOM     17  C   UNL     1       0.788  10.106  20.536  0.00  0.00    +0.000 A 
ATOM     18  C   UNL     1       0.211  11.209  21.173  0.00  0.00    +0.000 A 
BRANCH  13  20
ATOM     19  C   UNL     1      -2.399  11.962  23.242  0.00  0.00    +0.000 C 
ATOM     20  O   UNL     1      -0.984  12.064  23.136  0.00  0.00    +0.000 OA
ENDBRANCH  13  20
ENDBRANCH   7  16
ENDBRANCH   1   9
BRANCH   5  21
ATOM     21  N   UNL     1       4.760   3.850  18.429  0.00  0.00    +0.000 N 
ATOM     22  C   UNL     1       5.291   4.515  17.348  0.00  0.00    +0.000 C 
ATOM     23  O   UNL     1       4.932   4.332  16.191  0.00  0.00    +0.000 OA
ATOM     24  H   UNL     1       5.139   4.067  19.350  0.00  0.00    +0.000 HD
BRANCH  22  25
ATOM     25  C   UNL     1       6.340   5.523  17.682  0.00  0.00    +0.000 A 
ATOM     26  C   UNL     1       6.431   6.699  16.950  0.00  0.00    +0.000 A 
ATOM     27  N   UNL     1       7.348   7.662  17.233  0.00  0.00    +0.000 NA
ATOM     28  C   UNL     1       8.160   7.397  18.282  0.00  0.00    +0.000 A 
ATOM     29  C   UNL     1       8.067   6.224  19.017  0.00  0.00    +0.000 A 
ATOM     30  N   UNL     1       7.163   5.255  18.739  0.00  0.00    +0.000 NA
ENDBRANCH  22  25
ENDBRANCH   5  21
TORSDOF 5
ENDMDL
MODEL 4
REMARK VINA RESULT:      -8.0      3.697      7.760
REMARK  Name = 
REMARK  6 active torsions:
REMARK  status: ('A' for Active; 'I' for Inactive)
REMARK    1  A    between atoms: C_1  and  O_2
REMARK    2  A    between atoms: O_2  and  C_3
REMARK    3  A    between atoms: C_6  and  C_7
REMARK    4  A    between atoms: C_9  and  N_10
REMARK    5  A    between atoms: C_14  and  N_15
REMARK    6  A    between atoms: C_16  and  C_18
REMARK                            x       y       z     vdW  Elec       q    Type
REMARK                         _______ _______ _______ _____ _____    ______ ____
ROOT
ATOM      1  N   UNL     1       2.266   4.417  19.584  0.00  0.00    +0.000 N 
ATOM      2  C   UNL     1       2.221   3.393  20.627  0.00  0.00    +0.000 C 
ATOM      3  C   UNL     1       3.504   2.563  20.584  0.00  0.00    +0.000 C 
ATOM      4  C   UNL     1       3.834   2.060  19.172  0.00  0.00    +0.000 C 
ATOM      5  C   UNL     1       3.763   3.171  18.110  0.00  0.00    +0.000 C 
ATOM      6  C   UNL     1       2.406   3.900  18.215  0.00  0.00    +0.000 C 
ENDROOT
BRANCH   1   9
ATOM      7  C   UNL     1       1.355   7.768  20.467  0.00  0.00    +0.000 A 
ATOM      8  C   UNL     1       1.221   6.377  20.731  0.00  0.00    +0.000 A 
ATOM      9  C   UNL     1       2.026   5.733  19.821  0.00  0.00    +0.000 A 
ATOM     10  N   UNL     1       2.565   6.740  19.064  0.00  0.00    +0.000 N 
ATOM     11  N   UNL     1       2.187   7.973  19.434  0.00  0.00    +0.000 NA
ATOM     12  H   UNL     1       3.165   6.645  18.256  0.00  0.00    +0.000 HD
BRANCH   7  16
ATOM     13  C   UNL     1      -0.472  11.014  22.569  0.00  0.00    +0.000 A 
ATOM     14  C   UNL     1       0.109  11.220  21.318  0.00  0.00    +0.000 A 
ATOM     15  C   UNL     1       0.690  10.157  20.623  0.00  0.00    +0.000 A 
ATOM     16  C   UNL     1       0.720   8.873  21.183  0.00  0.00    +0.000 A 
ATOM     17  C   UNL     1       0.147   8.677  22.446  0.00  0.00    +0.000 A 
ATOM     18  C   UNL     1      -0.443   9.740  23.137  0.00  0.00    +0.000 A 
BRANCH  13  20
ATOM     19  C   UNL     1      -2.423  12.205  23.153  0.00  0.00    +0.000 C 
ATOM     20  O   UNL     1      -1.002  12.128  23.160  0.00  0.00    +0.000 OA
ENDBRANCH  13  20
ENDBRANCH   7  16
ENDBRANCH   1   9
BRANCH   5  21
ATOM     21  N   UNL     1       4.859   4.129  18.256  0.00  0.00    +0.000 N 
ATOM     22  C   UNL     1       5.326   4.929  17.240  0.00  0.00    +0.000 C 
ATOM     23  O   UNL     1       4.922   4.870  16.085  0.00  0.00    +0.000 OA
ATOM     24  H   UNL     1       5.271   4.250  19.181  0.00  0.00    +0.000 HD
BRANCH  22  25
ATOM     25  C   UNL     1       6.363   5.924  17.648  0.00  0.00    +0.000 A 
ATOM     26  C   UNL     1       7.235   5.631  18.687  0.00  0.00    +0.000 A 
ATOM     27  N   UNL     1       8.215   6.489  19.076  0.00  0.00    +0.000 NA
ATOM     28  C   UNL     1       8.284   7.644  18.376  0.00  0.00    +0.000 A 
ATOM     29  C   UNL     1       7.415   7.937  17.335  0.00  0.00    +0.000 A 
ATOM     30  N   UNL     1       6.430   7.092  16.944  0.00  0.00    +0.000 NA
ENDBRANCH  22  25
ENDBRANCH   5  21
TORSDOF 5
ENDMDL
MODEL 5
REMARK VINA RESULT:      -8.0      1.349      1.550
REMARK  Name = 
REMARK  6 active torsions:
REMARK  status: ('A' for Active; 'I' for Inactive)
REMARK    1  A    between atoms: C_1  and  O_2
REMARK    2  A    between atoms: O_2  and  C_3
REMARK    3  A    between atoms: C_6  and  C_7
REMARK    4  A    between atoms: C_9  and  N_10
REMARK    5  A    between atoms: C_14  and  N_15
REMARK    6  A    between atoms: C_16  and  C_18
REMARK                            x       y       z     vdW  Elec       q    Type
REMARK                         _______ _______ _______ _____ _____    ______ ____
ROOT
ATOM      1  N   UNL     1       6.856   5.542  17.102  0.00  0.00    +0.000 N 
ATOM      2  C   UNL     1       7.047   5.194  15.695  0.00  0.00    +0.000 C 
ATOM      3  C   UNL     1       5.687   4.978  15.032  0.00  0.00    +0.000 C 
ATOM      4  C   UNL     1       4.783   4.031  15.834  0.00  0.00    +0.000 C 
ATOM      5  C   UNL     1       4.709   4.397  17.326  0.00  0.00    +0.000 C 
ATOM      6  C   UNL     1       6.138   4.533  17.896  0.00  0.00    +0.000 C 
ENDROOT
BRANCH   1   9
ATOM      7  C   UNL     1       8.302   8.586  18.316  0.00  0.00    +0.000 A 
ATOM      8  C   UNL     1       7.544   7.936  17.305  0.00  0.00    +0.000 A 
ATOM      9  C   UNL     1       7.436   6.621  17.689  0.00  0.00    +0.000 A 
ATOM     10  N   UNL     1       8.135   6.547  18.865  0.00  0.00    +0.000 N 
ATOM     11  N   UNL     1       8.659   7.713  19.271  0.00  0.00    +0.000 NA
ATOM     12  H   UNL     1       8.324   5.719  19.415  0.00  0.00    +0.000 HD
BRANCH   7  16
ATOM     13  C   UNL     1       9.391  12.719  18.481  0.00  0.00    +0.000 A 
ATOM     14  C   UNL     1       8.430  12.277  17.572  0.00  0.00    +0.000 A 
ATOM     15  C   UNL     1       8.060  10.931  17.530  0.00  0.00    +0.000 A 
ATOM     16  C   UNL     1       8.667  10.000  18.383  0.00  0.00    +0.000 A 
ATOM     17  C   UNL     1       9.643  10.449  19.283  0.00  0.00    +0.000 A 
ATOM     18  C   UNL     1      10.004  11.799  19.331  0.00  0.00    +0.000 A 
BRANCH  13  20
ATOM     19  C   UNL     1      10.756  14.413  17.567  0.00  0.00    +0.000 C 
ATOM     20  O   UNL     1       9.679  14.055  18.426  0.00  0.00    +0.000 OA
ENDBRANCH  13  20
ENDBRANCH   7  16
ENDBRANCH   1   9
BRANCH   5  21
ATOM     21  N   UNL     1       3.964   5.636  17.543  0.00  0.00    +0.000 N 
ATOM     22  C   UNL     1       3.138   5.864  18.619  0.00  0.00    +0.000 C 
ATOM     23  O   UNL     1       2.883   5.022  19.473  0.00  0.00    +0.000 OA
ATOM     24  H   UNL     1       4.101   6.400  16.882  0.00  0.00    +0.000 HD
BRANCH  22  25
ATOM     25  C   UNL     1       2.581   7.246  18.705  0.00  0.00    +0.000 A 
ATOM     26  C   UNL     1       2.662   8.096  17.611  0.00  0.00    +0.000 A 
ATOM     27  N   UNL     1       2.144   9.353  17.627  0.00  0.00    +0.000 NA
ATOM     28  C   UNL     1       1.538   9.714  18.781  0.00  0.00    +0.000 A 
ATOM     29  C   UNL     1       1.453   8.864  19.874  0.00  0.00    +0.000 A 
ATOM     30  N   UNL     1       1.973   7.613  19.871  0.00  0.00    +0.000 NA
ENDBRANCH  22  25
ENDBRANCH   5  21
TORSDOF 5
ENDMDL
MODEL 6
REMARK VINA RESULT:      -7.9      5.497      8.212
REMARK  Name = 
REMARK  6 active torsions:
REMARK  status: ('A' for Active; 'I' for Inactive)
REMARK    1  A    between atoms: C_1  and  O_2
REMARK    2  A    between atoms: O_2  and  C_3
REMARK    3  A    between atoms: C_6  and  C_7
REMARK    4  A    between atoms: C_9  and  N_10
REMARK    5  A    between atoms: C_14  and  N_15
REMARK    6  A    between atoms: C_16  and  C_18
REMARK                            x       y       z     vdW  Elec       q    Type
REMARK                         _______ _______ _______ _____ _____    ______ ____
ROOT
ATOM      1  N   UNL     1       1.013   9.614  21.043  0.00  0.00    +0.000 N 
ATOM      2  C   UNL     1       0.650   8.974  22.306  0.00  0.00    +0.000 C 
ATOM      3  C   UNL     1      -0.756   9.412  22.716  0.00  0.00    +0.000 C 
ATOM      4  C   UNL     1      -0.937  10.935  22.666  0.00  0.00    +0.000 C 
ATOM      5  C   UNL     1      -0.441  11.553  21.348  0.00  0.00    +0.000 C 
ATOM      6  C   UNL     1       1.004  11.084  21.070  0.00  0.00    +0.000 C 
ENDROOT
BRANCH   1   9
ATOM      7  C   UNL     1       2.485   7.595  18.475  0.00  0.00    +0.000 A 
ATOM      8  C   UNL     1       2.293   7.818  19.866  0.00  0.00    +0.000 A 
ATOM      9  C   UNL     1       1.491   8.930  19.971  0.00  0.00    +0.000 A 
ATOM     10  N   UNL     1       1.272   9.320  18.676  0.00  0.00    +0.000 N 
ATOM     11  N   UNL     1       1.850   8.534  17.756  0.00  0.00    +0.000 NA
ATOM     12  H   UNL     1       0.771  10.139  18.359  0.00  0.00    +0.000 HD
BRANCH   7  16
ATOM     13  C   UNL     1       4.690   4.447  16.599  0.00  0.00    +0.000 A 
ATOM     14  C   UNL     1       5.140   5.765  16.526  0.00  0.00    +0.000 A 
ATOM     15  C   UNL     1       4.430   6.791  17.154  0.00  0.00    +0.000 A 
ATOM     16  C   UNL     1       3.243   6.516  17.845  0.00  0.00    +0.000 A 
ATOM     17  C   UNL     1       2.790   5.191  17.902  0.00  0.00    +0.000 A 
ATOM     18  C   UNL     1       3.507   4.163  17.281  0.00  0.00    +0.000 A 
BRANCH  13  20
ATOM     19  C   UNL     1       6.032   3.975  14.717  0.00  0.00    +0.000 C 
ATOM     20  O   UNL     1       5.460   3.528  15.941  0.00  0.00    +0.000 OA
ENDBRANCH  13  20
ENDBRANCH   7  16
ENDBRANCH   1   9
BRANCH   5  21
ATOM     21  N   UNL     1      -1.308  11.199  20.225  0.00  0.00    +0.000 N 
ATOM     22  C   UNL     1      -1.433  11.949  19.079  0.00  0.00    +0.000 C 
ATOM     23  O   UNL     1      -0.887  13.033  18.910  0.00  0.00    +0.000 OA
ATOM     24  H   UNL     1      -1.814  10.316  20.269  0.00  0.00    +0.000 HD
BRANCH  22  25
ATOM     25  C   UNL     1      -2.273  11.331  18.010  0.00  0.00    +0.000 A 
ATOM     26  C   UNL     1      -3.582  11.756  17.823  0.00  0.00    +0.000 A 
ATOM     27  N   UNL     1      -4.378  11.248  16.846  0.00  0.00    +0.000 NA
ATOM     28  C   UNL     1      -3.804  10.305  16.064  0.00  0.00    +0.000 A 
ATOM     29  C   UNL     1      -2.495   9.882  16.248  0.00  0.00    +0.000 A 
ATOM     30  N   UNL     1      -1.696  10.376  17.224  0.00  0.00    +0.000 NA
ENDBRANCH  22  25
ENDBRANCH   5  21
TORSDOF 5
ENDMDL
MODEL 7
REMARK VINA RESULT:      -7.9      5.515      8.312
REMARK  Name = 
REMARK  6 active torsions:
REMARK  status: ('A' for Active; 'I' for Inactive)
REMARK    1  A    between atoms: C_1  and  O_2
REMARK    2  A    between atoms: O_2  and  C_3
REMARK    3  A    between atoms: C_6  and  C_7
REMARK    4  A    between atoms: C_9  and  N_10
REMARK    5  A    between atoms: C_14  and  N_15
REMARK    6  A    between atoms: C_16  and  C_18
REMARK                            x       y       z     vdW  Elec       q    Type
REMARK                         _______ _______ _______ _____ _____    ______ ____
ROOT
ATOM      1  N   UNL     1       0.975   9.626  20.965  0.00  0.00    +0.000 N 
ATOM      2  C   UNL     1       0.521   8.971  22.190  0.00  0.00    +0.000 C 
ATOM      3  C   UNL     1      -0.886   9.458  22.539  0.00  0.00    +0.000 C 
ATOM      4  C   UNL     1      -1.001  10.989  22.521  0.00  0.00    +0.000 C 
ATOM      5  C   UNL     1      -0.411  11.617  21.246  0.00  0.00    +0.000 C 
ATOM      6  C   UNL     1       1.025  11.094  21.031  0.00  0.00    +0.000 C 
ENDROOT
BRANCH   1   9
ATOM      7  C   UNL     1       2.496   7.609  18.424  0.00  0.00    +0.000 A 
ATOM      8  C   UNL     1       2.239   7.806  19.808  0.00  0.00    +0.000 A 
ATOM      9  C   UNL     1       1.481   8.948  19.901  0.00  0.00    +0.000 A 
ATOM     10  N   UNL     1       1.348   9.380  18.609  0.00  0.00    +0.000 N 
ATOM     11  N   UNL     1       1.940   8.592  17.698  0.00  0.00    +0.000 NA
ATOM     12  H   UNL     1       0.900  10.228  18.288  0.00  0.00    +0.000 HD
BRANCH   7  16
ATOM     13  C   UNL     1       4.659   4.412  16.581  0.00  0.00    +0.000 A 
ATOM     14  C   UNL     1       5.107   5.728  16.465  0.00  0.00    +0.000 A 
ATOM     15  C   UNL     1       4.411   6.771  17.082  0.00  0.00    +0.000 A 
ATOM     16  C   UNL     1       3.240   6.514  17.805  0.00  0.00    +0.000 A 
ATOM     17  C   UNL     1       2.788   5.191  17.905  0.00  0.00    +0.000 A 
ATOM     18  C   UNL     1       3.491   4.147  17.295  0.00  0.00    +0.000 A 
BRANCH  13  20
ATOM     19  C   UNL     1       6.143   3.956  14.805  0.00  0.00    +0.000 C 
ATOM     20  O   UNL     1       5.414   3.477  15.929  0.00  0.00    +0.000 OA
ENDBRANCH  13  20
ENDBRANCH   7  16
ENDBRANCH   1   9
BRANCH   5  21
ATOM     21  N   UNL     1      -1.232  11.328  20.071  0.00  0.00    +0.000 N 
ATOM     22  C   UNL     1      -2.286  12.106  19.654  0.00  0.00    +0.000 C 
ATOM     23  O   UNL     1      -2.696  13.084  20.268  0.00  0.00    +0.000 OA
ATOM     24  H   UNL     1      -0.977  10.527  19.494  0.00  0.00    +0.000 HD
BRANCH  22  25
ATOM     25  C   UNL     1      -2.899  11.694  18.357  0.00  0.00    +0.000 A 
ATOM     26  C   UNL     1      -2.097  11.211  17.332  0.00  0.00    +0.000 A 
ATOM     27  N   UNL     1      -2.608  10.795  16.144  0.00  0.00    +0.000 NA
ATOM     28  C   UNL     1      -3.954  10.878  16.032  0.00  0.00    +0.000 A 
ATOM     29  C   UNL     1      -4.757  11.357  17.056  0.00  0.00    +0.000 A 
ATOM     30  N   UNL     1      -4.257  11.782  18.242  0.00  0.00    +0.000 NA
ENDBRANCH  22  25
ENDBRANCH   5  21
TORSDOF 5
ENDMDL
MODEL 8
REMARK VINA RESULT:      -7.9      1.402      1.642
REMARK  Name = 
REMARK  6 active torsions:
REMARK  status: ('A' for Active; 'I' for Inactive)
REMARK    1  A    between atoms: C_1  and  O_2
REMARK    2  A    between atoms: O_2  and  C_3
REMARK    3  A    between atoms: C_6  and  C_7
REMARK    4  A    between atoms: C_9  and  N_10
REMARK    5  A    between atoms: C_14  and  N_15
REMARK    6  A    between atoms: C_16  and  C_18
REMARK                            x       y       z     vdW  Elec       q    Type
REMARK                         _______ _______ _______ _____ _____    ______ ____
ROOT
ATOM      1  N   UNL     1       6.919   5.887  17.312  0.00  0.00    +0.000 N 
ATOM      2  C   UNL     1       6.949   5.525  15.896  0.00  0.00    +0.000 C 
ATOM      3  C   UNL     1       5.525   5.272  15.402  0.00  0.00    +0.000 C 
ATOM      4  C   UNL     1       4.745   4.316  16.316  0.00  0.00    +0.000 C 
ATOM      5  C   UNL     1       4.841   4.701  17.803  0.00  0.00    +0.000 C 
ATOM      6  C   UNL     1       6.324   4.874  18.196  0.00  0.00    +0.000 C 
ENDROOT
BRANCH   1   9
ATOM      7  C   UNL     1       8.457   8.968  18.299  0.00  0.00    +0.000 A 
ATOM      8  C   UNL     1       7.636   8.281  17.364  0.00  0.00    +0.000 A 
ATOM      9  C   UNL     1       7.541   6.985  17.814  0.00  0.00    +0.000 A 
ATOM     10  N   UNL     1       8.309   6.957  18.948  0.00  0.00    +0.000 N 
ATOM     11  N   UNL     1       8.865   8.135  19.269  0.00  0.00    +0.000 NA
ATOM     12  H   UNL     1       8.524   6.154  19.522  0.00  0.00    +0.000 HD
BRANCH   7  16
ATOM     13  C   UNL     1       9.551  13.103  18.272  0.00  0.00    +0.000 A 
ATOM     14  C   UNL     1      10.277  12.185  19.031  0.00  0.00    +0.000 A 
ATOM     15  C   UNL     1       9.931  10.831  19.025  0.00  0.00    +0.000 A 
ATOM     16  C   UNL     1       8.836  10.380  18.279  0.00  0.00    +0.000 A 
ATOM     17  C   UNL     1       8.103  11.311  17.530  0.00  0.00    +0.000 A 
ATOM     18  C   UNL     1       8.456  12.664  17.529  0.00  0.00    +0.000 A 
BRANCH  13  20
ATOM     19  C   UNL     1      10.920  14.803  17.376  0.00  0.00    +0.000 C 
ATOM     20  O   UNL     1       9.974  14.400  18.360  0.00  0.00    +0.000 OA
ENDBRANCH  13  20
ENDBRANCH   7  16
ENDBRANCH   1   9
BRANCH   5  21
ATOM     21  N   UNL     1       4.099   5.927  18.093  0.00  0.00    +0.000 N 
ATOM     22  C   UNL     1       2.752   5.968  18.368  0.00  0.00    +0.000 C 
ATOM     23  O   UNL     1       2.017   4.989  18.325  0.00  0.00    +0.000 OA
ATOM     24  H   UNL     1       4.619   6.802  18.146  0.00  0.00    +0.000 HD
BRANCH  22  25
ATOM     25  C   UNL     1       2.231   7.310  18.764  0.00  0.00    +0.000 A 
ATOM     26  C   UNL     1       2.094   8.311  17.811  0.00  0.00    +0.000 A 
ATOM     27  N   UNL     1       1.597   9.538  18.114  0.00  0.00    +0.000 NA
ATOM     28  C   UNL     1       1.237   9.715  19.406  0.00  0.00    +0.000 A 
ATOM     29  C   UNL     1       1.369   8.715  20.358  0.00  0.00    +0.000 A 
ATOM     30  N   UNL     1       1.871   7.490  20.069  0.00  0.00    +0.000 NA
ENDBRANCH  22  25
ENDBRANCH   5  21
TORSDOF 5
ENDMDL
MODEL 9
REMARK VINA RESULT:      -7.7      5.545      8.462
REMARK  Name = 
REMARK  6 active torsions:
REMARK  status: ('A' for Active; 'I' for Inactive)
REMARK    1  A    between atoms: C_1  and  O_2
REMARK    2  A    between atoms: O_2  and  C_3
REMARK    3  A    between atoms: C_6  and  C_7
REMARK    4  A    between atoms: C_9  and  N_10
REMARK    5  A    between atoms: C_14  and  N_15
REMARK    6  A    between atoms: C_16  and  C_18
REMARK                            x       y       z     vdW  Elec       q    Type
REMARK                         _______ _______ _______ _____ _____    ______ ____
ROOT
ATOM      1  N   UNL     1       0.811   9.979  21.191  0.00  0.00    +0.000 N 
ATOM      2  C   UNL     1       0.451   9.359  22.465  0.00  0.00    +0.000 C 
ATOM      3  C   UNL     1      -0.947   9.817  22.880  0.00  0.00    +0.000 C 
ATOM      4  C   UNL     1      -1.113  11.342  22.812  0.00  0.00    +0.000 C 
ATOM      5  C   UNL     1      -0.620  11.937  21.481  0.00  0.00    +0.000 C 
ATOM      6  C   UNL     1       0.817  11.449  21.199  0.00  0.00    +0.000 C 
ENDROOT
BRANCH   1   9
ATOM      7  C   UNL     1       2.233   7.904  18.640  0.00  0.00    +0.000 A 
ATOM      8  C   UNL     1       2.038   8.137  20.029  0.00  0.00    +0.000 A 
ATOM      9  C   UNL     1       1.274   9.276  20.124  0.00  0.00    +0.000 A 
ATOM     10  N   UNL     1       1.078   9.669  18.827  0.00  0.00    +0.000 N 
ATOM     11  N   UNL     1       1.635   8.861  17.913  0.00  0.00    +0.000 NA
ATOM     12  H   UNL     1       0.606  10.504  18.504  0.00  0.00    +0.000 HD
BRANCH   7  16
ATOM     13  C   UNL     1       4.369   4.657  16.852  0.00  0.00    +0.000 A 
ATOM     14  C   UNL     1       3.189   4.424  17.557  0.00  0.00    +0.000 A 
ATOM     15  C   UNL     1       2.481   5.486  18.126  0.00  0.00    +0.000 A 
ATOM     16  C   UNL     1       2.959   6.798  18.018  0.00  0.00    +0.000 A 
ATOM     17  C   UNL     1       4.154   7.023  17.321  0.00  0.00    +0.000 A 
ATOM     18  C   UNL     1       4.856   5.960  16.744  0.00  0.00    +0.000 A 
BRANCH  13  20
ATOM     19  C   UNL     1       5.956   3.786  15.340  0.00  0.00    +0.000 C 
ATOM     20  O   UNL     1       4.980   3.544  16.347  0.00  0.00    +0.000 OA
ENDBRANCH  13  20
ENDBRANCH   7  16
ENDBRANCH   1   9
BRANCH   5  21
ATOM     21  N   UNL     1      -1.499  11.577  20.370  0.00  0.00    +0.000 N 
ATOM     22  C   UNL     1      -1.558  12.262  19.178  0.00  0.00    +0.000 C 
ATOM     23  O   UNL     1      -0.933  13.291  18.952  0.00  0.00    +0.000 OA
ATOM     24  H   UNL     1      -2.069  10.737  20.461  0.00  0.00    +0.000 HD
BRANCH  22  25
ATOM     25  C   UNL     1      -2.431  11.642  18.138  0.00  0.00    +0.000 A 
ATOM     26  C   UNL     1      -3.812  11.727  18.248  0.00  0.00    +0.000 A 
ATOM     27  N   UNL     1      -4.649  11.205  17.313  0.00  0.00    +0.000 NA
ATOM     28  C   UNL     1      -4.042  10.605  16.264  0.00  0.00    +0.000 A 
ATOM     29  C   UNL     1      -2.662  10.523  16.150  0.00  0.00    +0.000 A 
ATOM     30  N   UNL     1      -1.819  11.031  17.080  0.00  0.00    +0.000 NA
ENDBRANCH  22  25
ENDBRANCH   5  21
TORSDOF 5
ENDMDL
