MODEL 1
REMARK VINA RESULT:      -7.3      0.000      0.000
REMARK  Name = 
REMARK  20 active torsions:
REMARK  status: ('A' for Active; 'I' for Inactive)
REMARK    1  A    between atoms: C_1  and  C_2
REMARK    2  A    between atoms: C_2  and  C_3
REMARK    3  A    between atoms: C_3  and  C_4
REMARK    4  A    between atoms: C_4  and  C_5
REMARK    5  A    between atoms: C_10  and  N_11
REMARK    6  A    between atoms: C_14  and  C_15
REMARK    7  A    between atoms: C_15  and  C_17
REMARK    8  A    between atoms: C_20  and  O_21
REMARK    9  A    between atoms: O_21  and  C_22
REMARK   10  A    between atoms: C_22  and  C_23
REMARK   11  A    between atoms: C_23  and  C_24
REMARK   12  A    between atoms: C_24  and  N_25
REMARK   13  A    between atoms: N_25  and  C_26
REMARK   14  A    between atoms: N_25  and  C_30
REMARK   15  A    between atoms: C_26  and  C_27
REMARK   16  A    between atoms: C_27  and  C_28
REMARK   17  A    between atoms: C_28  and  C_29
REMARK   18  A    between atoms: C_30  and  C_31
REMARK   19  A    between atoms: C_31  and  C_32
REMARK   20  A    between atoms: C_32  and  C_33
REMARK                            x       y       z     vdW  Elec       q    Type
REMARK                         _______ _______ _______ _____ _____    ______ ____
ROOT
ATOM      1  C   UNL     1       0.837  10.097  19.036  0.00  0.00    +0.000 A 
ATOM      2  C   UNL     1       0.624   9.585  20.317  0.00  0.00    +0.000 A 
ATOM      3  C   UNL     1       1.197   8.371  20.688  0.00  0.00    +0.000 A 
ATOM      4  C   UNL     1       2.008   7.667  19.794  0.00  0.00    +0.000 A 
ATOM      5  C   UNL     1       2.167   8.144  18.490  0.00  0.00    +0.000 A 
ATOM      6  C   UNL     1       1.599   9.366  18.112  0.00  0.00    +0.000 A 
ENDROOT
BRANCH   1   7
ATOM      7  C   UNL     1       0.279  11.443  18.738  0.00  0.00    +0.000 C 
ATOM      8  O   UNL     1       1.067  12.354  18.493  0.00  0.00    +0.000 OA
BRANCH   7  17
ATOM      9  C   UNL     1      -1.874  12.178  19.804  0.00  0.00    +0.000 A 
ATOM     10  O   UNL     1      -3.200  12.240  19.492  0.00  0.00    +0.000 OA
ATOM     11  C   UNL     1      -3.350  11.704  18.250  0.00  0.00    +0.000 A 
ATOM     12  C   UNL     1      -4.555  11.573  17.565  0.00  0.00    +0.000 A 
ATOM     13  C   UNL     1      -4.492  10.988  16.293  0.00  0.00    +0.000 A 
ATOM     14  C   UNL     1      -3.293  10.505  15.760  0.00  0.00    +0.000 A 
ATOM     15  C   UNL     1      -2.101  10.692  16.469  0.00  0.00    +0.000 A 
ATOM     16  C   UNL     1      -2.123  11.309  17.741  0.00  0.00    +0.000 A 
ATOM     17  C   UNL     1      -1.157  11.644  18.740  0.00  0.00    +0.000 A 
BRANCH  14  18
ATOM     18  N   UNL     1      -3.235  10.057  14.434  0.00  0.00    +0.000 N 
ATOM     19  H   UNL     1      -3.723   9.182  14.273  0.00  0.00    +0.000 HD
ATOM     20  H   UNL     1      -2.303  10.058  14.032  0.00  0.00    +0.000 HD
ENDBRANCH  14  18
BRANCH   9  21
ATOM     21  C   UNL     1      -1.507  12.661  21.169  0.00  0.00    +0.000 C 
BRANCH  21  22
ATOM     22  C   UNL     1      -2.707  12.733  22.116  0.00  0.00    +0.000 C 
BRANCH  22  24
ATOM     23  C   UNL     1      -1.327  10.894  23.156  0.00  0.00    +0.000 C 
ATOM     24  C   UNL     1      -2.502  11.842  23.344  0.00  0.00    +0.000 C 
ENDBRANCH  22  24
ENDBRANCH  21  22
ENDBRANCH   9  21
ENDBRANCH   7  17
ENDBRANCH   1   7
BRANCH   4  25
ATOM     25  O   UNL     1       2.704   6.527  20.104  0.00  0.00    +0.000 OA
BRANCH  25  26
ATOM     26  C   UNL     1       3.501   6.010  19.029  0.00  0.00    +0.000 C 
BRANCH  26  27
ATOM     27  C   UNL     1       4.530   5.035  19.579  0.00  0.00    +0.000 C 
BRANCH  27  28
ATOM     28  C   UNL     1       5.102   4.136  18.475  0.00  0.00    +0.000 C 
BRANCH  28  29
ATOM     29  N   UNL     1       4.176   3.740  17.382  0.00  0.00    +0.000 NA
BRANCH  29  30
ATOM     30  C   UNL     1       3.723   2.345  17.588  0.00  0.00    +0.000 C 
BRANCH  30  31
ATOM     31  C   UNL     1       2.765   2.124  18.769  0.00  0.00    +0.000 C 
BRANCH  31  32
ATOM     32  C   UNL     1       1.375   2.715  18.524  0.00  0.00    +0.000 C 
ATOM     33  C   UNL     1       0.866   3.439  19.760  0.00  0.00    +0.000 C 
ENDBRANCH  31  32
ENDBRANCH  30  31
ENDBRANCH  29  30
BRANCH  29  34
ATOM     34  C   UNL     1       4.827   3.895  16.060  0.00  0.00    +0.000 C 
BRANCH  34  35
ATOM     35  C   UNL     1       6.267   4.445  16.046  0.00  0.00    +0.000 C 
BRANCH  35  36
ATOM     36  C   UNL     1       6.827   4.720  14.650  0.00  0.00    +0.000 C 
ATOM     37  C   UNL     1       6.145   3.834  13.613  0.00  0.00    +0.000 C 
ENDBRANCH  35  36
ENDBRANCH  34  35
ENDBRANCH  29  34
ENDBRANCH  28  29
ENDBRANCH  27  28
ENDBRANCH  26  27
ENDBRANCH  25  26
ENDBRANCH   4  25
TORSDOF 17
ENDMDL
MODEL 2
REMARK VINA RESULT:      -7.3      2.304      9.972
REMARK  Name = 
REMARK  20 active torsions:
REMARK  status: ('A' for Active; 'I' for Inactive)
REMARK    1  A    between atoms: C_1  and  C_2
REMARK    2  A    between atoms: C_2  and  C_3
REMARK    3  A    between atoms: C_3  and  C_4
REMARK    4  A    between atoms: C_4  and  C_5
REMARK    5  A    between atoms: C_10  and  N_11
REMARK    6  A    between atoms: C_14  and  C_15
REMARK    7  A    between atoms: C_15  and  C_17
REMARK    8  A    between atoms: C_20  and  O_21
REMARK    9  A    between atoms: O_21  and  C_22
REMARK   10  A    between atoms: C_22  and  C_23
REMARK   11  A    between atoms: C_23  and  C_24
REMARK   12  A    between atoms: C_24  and  N_25
REMARK   13  A    between atoms: N_25  and  C_26
REMARK   14  A    between atoms: N_25  and  C_30
REMARK   15  A    between atoms: C_26  and  C_27
REMARK   16  A    between atoms: C_27  and  C_28
REMARK   17  A    between atoms: C_28  and  C_29
REMARK   18  A    between atoms: C_30  and  C_31
REMARK   19  A    between atoms: C_31  and  C_32
REMARK   20  A    between atoms: C_32  and  C_33
REMARK                            x       y       z     vdW  Elec       q    Type
REMARK                         _______ _______ _______ _____ _____    ______ ____
ROOT
ATOM      1  C   UNL     1       2.225   7.467  19.260  0.00  0.00    +0.000 A 
ATOM      2  C   UNL     1       1.599   8.120  20.323  0.00  0.00    +0.000 A 
ATOM      3  C   UNL     1       0.991   9.357  20.122  0.00  0.00    +0.000 A 
ATOM      4  C   UNL     1       0.979   9.943  18.853  0.00  0.00    +0.000 A 
ATOM      5  C   UNL     1       1.663   9.323  17.804  0.00  0.00    +0.000 A 
ATOM      6  C   UNL     1       2.271   8.078  17.998  0.00  0.00    +0.000 A 
ENDROOT
BRANCH   1   7
ATOM      7  C   UNL     1       2.769   6.107  19.519  0.00  0.00    +0.000 C 
ATOM      8  O   UNL     1       2.809   5.713  20.683  0.00  0.00    +0.000 OA
BRANCH   7  17
ATOM      9  C   UNL     1       2.545   4.190  17.910  0.00  0.00    +0.000 A 
ATOM     10  O   UNL     1       3.236   3.642  16.870  0.00  0.00    +0.000 OA
ATOM     11  C   UNL     1       4.386   4.356  16.728  0.00  0.00    +0.000 A 
ATOM     12  C   UNL     1       5.375   4.115  15.778  0.00  0.00    +0.000 A 
ATOM     13  C   UNL     1       6.489   4.967  15.803  0.00  0.00    +0.000 A 
ATOM     14  C   UNL     1       6.630   5.970  16.767  0.00  0.00    +0.000 A 
ATOM     15  C   UNL     1       5.593   6.199  17.678  0.00  0.00    +0.000 A 
ATOM     16  C   UNL     1       4.441   5.380  17.660  0.00  0.00    +0.000 A 
ATOM     17  C   UNL     1       3.228   5.291  18.412  0.00  0.00    +0.000 A 
BRANCH  14  18
ATOM     18  N   UNL     1       7.680   6.894  16.680  0.00  0.00    +0.000 N 
ATOM     19  H   UNL     1       7.558   7.589  15.952  0.00  0.00    +0.000 HD
ATOM     20  H   UNL     1       8.605   6.476  16.661  0.00  0.00    +0.000 HD
ENDBRANCH  14  18
BRANCH   9  21
ATOM     21  C   UNL     1       1.270   3.501  18.275  0.00  0.00    +0.000 C 
BRANCH  21  22
ATOM     22  C   UNL     1       1.482   2.329  19.235  0.00  0.00    +0.000 C 
BRANCH  22  24
ATOM     23  C   UNL     1       2.401   2.599  21.570  0.00  0.00    +0.000 C 
ATOM     24  C   UNL     1       1.173   2.729  20.681  0.00  0.00    +0.000 C 
ENDBRANCH  22  24
ENDBRANCH  21  22
ENDBRANCH   9  21
ENDBRANCH   7  17
ENDBRANCH   1   7
BRANCH   4  25
ATOM     25  O   UNL     1       0.311  11.097  18.534  0.00  0.00    +0.000 OA
BRANCH  25  26
ATOM     26  C   UNL     1      -1.085  10.915  18.257  0.00  0.00    +0.000 C 
BRANCH  26  27
ATOM     27  C   UNL     1      -1.913  11.620  19.321  0.00  0.00    +0.000 C 
BRANCH  27  28
ATOM     28  C   UNL     1      -1.115  12.735  20.009  0.00  0.00    +0.000 C 
BRANCH  28  29
ATOM     29  N   UNL     1      -1.888  13.891  20.533  0.00  0.00    +0.000 NA
BRANCH  29  30
ATOM     30  C   UNL     1      -1.166  15.151  20.241  0.00  0.00    +0.000 C 
BRANCH  30  31
ATOM     31  C   UNL     1       0.087  15.012  19.362  0.00  0.00    +0.000 C 
BRANCH  31  32
ATOM     32  C   UNL     1       1.348  15.556  20.036  0.00  0.00    +0.000 C 
ATOM     33  C   UNL     1       1.358  15.228  21.521  0.00  0.00    +0.000 C 
ENDBRANCH  31  32
ENDBRANCH  30  31
ENDBRANCH  29  30
BRANCH  29  34
ATOM     34  C   UNL     1      -2.131  13.746  21.987  0.00  0.00    +0.000 C 
BRANCH  34  35
ATOM     35  C   UNL     1      -1.199  12.795  22.764  0.00  0.00    +0.000 C 
BRANCH  35  36
ATOM     36  C   UNL     1      -1.869  11.510  23.255  0.00  0.00    +0.000 C 
ATOM     37  C   UNL     1      -0.906  10.332  23.157  0.00  0.00    +0.000 C 
ENDBRANCH  35  36
ENDBRANCH  34  35
ENDBRANCH  29  34
ENDBRANCH  28  29
ENDBRANCH  27  28
ENDBRANCH  26  27
ENDBRANCH  25  26
ENDBRANCH   4  25
TORSDOF 17
ENDMDL
MODEL 3
REMARK VINA RESULT:      -7.3      2.164      9.248
REMARK  Name = 
REMARK  20 active torsions:
REMARK  status: ('A' for Active; 'I' for Inactive)
REMARK    1  A    between atoms: C_1  and  C_2
REMARK    2  A    between atoms: C_2  and  C_3
REMARK    3  A    between atoms: C_3  and  C_4
REMARK    4  A    between atoms: C_4  and  C_5
REMARK    5  A    between atoms: C_10  and  N_11
REMARK    6  A    between atoms: C_14  and  C_15
REMARK    7  A    between atoms: C_15  and  C_17
REMARK    8  A    between atoms: C_20  and  O_21
REMARK    9  A    between atoms: O_21  and  C_22
REMARK   10  A    between atoms: C_22  and  C_23
REMARK   11  A    between atoms: C_23  and  C_24
REMARK   12  A    between atoms: C_24  and  N_25
REMARK   13  A    between atoms: N_25  and  C_26
REMARK   14  A    between atoms: N_25  and  C_30
REMARK   15  A    between atoms: C_26  and  C_27
REMARK   16  A    between atoms: C_27  and  C_28
REMARK   17  A    between atoms: C_28  and  C_29
REMARK   18  A    between atoms: C_30  and  C_31
REMARK   19  A    between atoms: C_31  and  C_32
REMARK   20  A    between atoms: C_32  and  C_33
REMARK                            x       y       z     vdW  Elec       q    Type
REMARK                         _______ _______ _______ _____ _____    ______ ____
ROOT
ATOM      1  C   UNL     1       2.129   7.635  19.312  0.00  0.00    +0.000 A 
ATOM      2  C   UNL     1       1.576   8.327  20.390  0.00  0.00    +0.000 A 
ATOM      3  C   UNL     1       1.072   9.613  20.210  0.00  0.00    +0.000 A 
ATOM      4  C   UNL     1       1.091  10.211  18.947  0.00  0.00    +0.000 A 
ATOM      5  C   UNL     1       1.705   9.547  17.882  0.00  0.00    +0.000 A 
ATOM      6  C   UNL     1       2.209   8.253  18.055  0.00  0.00    +0.000 A 
ENDROOT
BRANCH   1   7
ATOM      7  C   UNL     1       2.559   6.231  19.551  0.00  0.00    +0.000 C 
ATOM      8  O   UNL     1       2.502   5.797  20.700  0.00  0.00    +0.000 OA
BRANCH   7  17
ATOM      9  C   UNL     1       2.334   4.337  17.915  0.00  0.00    +0.000 A 
ATOM     10  O   UNL     1       3.034   3.791  16.880  0.00  0.00    +0.000 OA
ATOM     11  C   UNL     1       4.197   4.488  16.766  0.00  0.00    +0.000 A 
ATOM     12  C   UNL     1       5.199   4.243  15.831  0.00  0.00    +0.000 A 
ATOM     13  C   UNL     1       6.325   5.077  15.886  0.00  0.00    +0.000 A 
ATOM     14  C   UNL     1       6.465   6.066  16.864  0.00  0.00    +0.000 A 
ATOM     15  C   UNL     1       5.416   6.301  17.760  0.00  0.00    +0.000 A 
ATOM     16  C   UNL     1       4.252   5.500  17.712  0.00  0.00    +0.000 A 
ATOM     17  C   UNL     1       3.025   5.421  18.442  0.00  0.00    +0.000 A 
BRANCH  14  18
ATOM     18  N   UNL     1       7.530   6.975  16.807  0.00  0.00    +0.000 N 
ATOM     19  H   UNL     1       7.320   7.825  16.295  0.00  0.00    +0.000 HD
ATOM     20  H   UNL     1       8.415   6.565  16.525  0.00  0.00    +0.000 HD
ENDBRANCH  14  18
BRANCH   9  21
ATOM     21  C   UNL     1       1.042   3.664  18.249  0.00  0.00    +0.000 C 
BRANCH  21  22
ATOM     22  C   UNL     1       1.237   2.351  19.011  0.00  0.00    +0.000 C 
BRANCH  22  24
ATOM     23  C   UNL     1       1.532   2.628  21.501  0.00  0.00    +0.000 C 
ATOM     24  C   UNL     1       2.237   2.515  20.158  0.00  0.00    +0.000 C 
ENDBRANCH  22  24
ENDBRANCH  21  22
ENDBRANCH   9  21
ENDBRANCH   7  17
ENDBRANCH   1   7
BRANCH   4  25
ATOM     25  O   UNL     1       0.519  11.421  18.648  0.00  0.00    +0.000 OA
BRANCH  25  26
ATOM     26  C   UNL     1      -0.790  11.329  18.069  0.00  0.00    +0.000 C 
BRANCH  26  27
ATOM     27  C   UNL     1      -1.481  10.069  18.565  0.00  0.00    +0.000 C 
BRANCH  27  28
ATOM     28  C   UNL     1      -2.803   9.822  17.826  0.00  0.00    +0.000 C 
BRANCH  28  29
ATOM     29  N   UNL     1      -3.051  10.628  16.603  0.00  0.00    +0.000 NA
BRANCH  29  30
ATOM     30  C   UNL     1      -4.408  11.220  16.658  0.00  0.00    +0.000 C 
BRANCH  30  31
ATOM     31  C   UNL     1      -4.921  11.578  18.063  0.00  0.00    +0.000 C 
BRANCH  31  32
ATOM     32  C   UNL     1      -6.406  11.263  18.251  0.00  0.00    +0.000 C 
ATOM     33  C   UNL     1      -6.691  10.813  19.675  0.00  0.00    +0.000 C 
ENDBRANCH  31  32
ENDBRANCH  30  31
ENDBRANCH  29  30
BRANCH  29  34
ATOM     34  C   UNL     1      -2.886   9.801  15.384  0.00  0.00    +0.000 C 
BRANCH  34  35
ATOM     35  C   UNL     1      -3.842  10.084  14.209  0.00  0.00    +0.000 C 
BRANCH  35  36
ATOM     36  C   UNL     1      -3.247   9.809  12.827  0.00  0.00    +0.000 C 
ATOM     37  C   UNL     1      -4.346   9.749  11.772  0.00  0.00    +0.000 C 
ENDBRANCH  35  36
ENDBRANCH  34  35
ENDBRANCH  29  34
ENDBRANCH  28  29
ENDBRANCH  27  28
ENDBRANCH  26  27
ENDBRANCH  25  26
ENDBRANCH   4  25
TORSDOF 17
ENDMDL
MODEL 4
REMARK VINA RESULT:      -7.2      2.718     10.292
REMARK  Name = 
REMARK  20 active torsions:
REMARK  status: ('A' for Active; 'I' for Inactive)
REMARK    1  A    between atoms: C_1  and  C_2
REMARK    2  A    between atoms: C_2  and  C_3
REMARK    3  A    between atoms: C_3  and  C_4
REMARK    4  A    between atoms: C_4  and  C_5
REMARK    5  A    between atoms: C_10  and  N_11
REMARK    6  A    between atoms: C_14  and  C_15
REMARK    7  A    between atoms: C_15  and  C_17
REMARK    8  A    between atoms: C_20  and  O_21
REMARK    9  A    between atoms: O_21  and  C_22
REMARK   10  A    between atoms: C_22  and  C_23
REMARK   11  A    between atoms: C_23  and  C_24
REMARK   12  A    between atoms: C_24  and  N_25
REMARK   13  A    between atoms: N_25  and  C_26
REMARK   14  A    between atoms: N_25  and  C_30
REMARK   15  A    between atoms: C_26  and  C_27
REMARK   16  A    between atoms: C_27  and  C_28
REMARK   17  A    between atoms: C_28  and  C_29
REMARK   18  A    between atoms: C_30  and  C_31
REMARK   19  A    between atoms: C_31  and  C_32
REMARK   20  A    between atoms: C_32  and  C_33
REMARK                            x       y       z     vdW  Elec       q    Type
REMARK                         _______ _______ _______ _____ _____    ______ ____
ROOT
ATOM      1  C   UNL     1       3.970   5.075  17.844  0.00  0.00    +0.000 A 
ATOM      2  C   UNL     1       3.709   6.298  17.225  0.00  0.00    +0.000 A 
ATOM      3  C   UNL     1       3.006   7.290  17.906  0.00  0.00    +0.000 A 
ATOM      4  C   UNL     1       2.578   7.080  19.219  0.00  0.00    +0.000 A 
ATOM      5  C   UNL     1       2.778   5.832  19.816  0.00  0.00    +0.000 A 
ATOM      6  C   UNL     1       3.488   4.834  19.140  0.00  0.00    +0.000 A 
ENDROOT
BRANCH   1   7
ATOM      7  C   UNL     1       4.808   4.098  17.099  0.00  0.00    +0.000 C 
ATOM      8  O   UNL     1       4.604   2.900  17.286  0.00  0.00    +0.000 OA
BRANCH   7  17
ATOM      9  C   UNL     1       6.832   5.473  16.523  0.00  0.00    +0.000 A 
ATOM     10  O   UNL     1       7.629   5.715  15.445  0.00  0.00    +0.000 OA
ATOM     11  C   UNL     1       7.118   5.014  14.396  0.00  0.00    +0.000 A 
ATOM     12  C   UNL     1       7.637   4.995  13.105  0.00  0.00    +0.000 A 
ATOM     13  C   UNL     1       6.954   4.209  12.166  0.00  0.00    +0.000 A 
ATOM     14  C   UNL     1       5.779   3.525  12.491  0.00  0.00    +0.000 A 
ATOM     15  C   UNL     1       5.314   3.544  13.810  0.00  0.00    +0.000 A 
ATOM     16  C   UNL     1       5.998   4.300  14.791  0.00  0.00    +0.000 A 
ATOM     17  C   UNL     1       5.827   4.574  16.184  0.00  0.00    +0.000 A 
BRANCH  14  18
ATOM     18  N   UNL     1       5.199   2.636  11.575  0.00  0.00    +0.000 N 
ATOM     19  H   UNL     1       4.889   1.764  11.988  0.00  0.00    +0.000 HD
ATOM     20  H   UNL     1       5.745   2.490  10.731  0.00  0.00    +0.000 HD
ENDBRANCH  14  18
BRANCH   9  21
ATOM     21  C   UNL     1       7.190   6.210  17.773  0.00  0.00    +0.000 C 
BRANCH  21  22
ATOM     22  C   UNL     1       7.411   7.706  17.536  0.00  0.00    +0.000 C 
BRANCH  22  24
ATOM     23  C   UNL     1       8.646   9.770  18.298  0.00  0.00    +0.000 C 
ATOM     24  C   UNL     1       8.457   8.274  18.499  0.00  0.00    +0.000 C 
ENDBRANCH  22  24
ENDBRANCH  21  22
ENDBRANCH   9  21
ENDBRANCH   7  17
ENDBRANCH   1   7
BRANCH   4  25
ATOM     25  O   UNL     1       1.982   8.031  20.006  0.00  0.00    +0.000 OA
BRANCH  25  26
ATOM     26  C   UNL     1       1.483   9.167  19.286  0.00  0.00    +0.000 C 
BRANCH  26  27
ATOM     27  C   UNL     1       0.229   9.692  19.967  0.00  0.00    +0.000 C 
BRANCH  27  28
ATOM     28  C   UNL     1      -0.647  10.494  18.994  0.00  0.00    +0.000 C 
BRANCH  28  29
ATOM     29  N   UNL     1      -1.667  11.394  19.592  0.00  0.00    +0.000 NA
BRANCH  29  30
ATOM     30  C   UNL     1      -2.720  11.693  18.594  0.00  0.00    +0.000 C 
BRANCH  30  31
ATOM     31  C   UNL     1      -2.358  11.383  17.133  0.00  0.00    +0.000 C 
BRANCH  31  32
ATOM     32  C   UNL     1      -3.456  10.608  16.401  0.00  0.00    +0.000 C 
ATOM     33  C   UNL     1      -3.046  10.303  14.969  0.00  0.00    +0.000 C 
ENDBRANCH  31  32
ENDBRANCH  30  31
ENDBRANCH  29  30
BRANCH  29  34
ATOM     34  C   UNL     1      -1.042  12.641  20.091  0.00  0.00    +0.000 C 
BRANCH  34  35
ATOM     35  C   UNL     1      -1.037  12.863  21.616  0.00  0.00    +0.000 C 
BRANCH  35  36
ATOM     36  C   UNL     1      -1.634  11.711  22.427  0.00  0.00    +0.000 C 
ATOM     37  C   UNL     1      -2.781  12.207  23.300  0.00  0.00    +0.000 C 
ENDBRANCH  35  36
ENDBRANCH  34  35
ENDBRANCH  29  34
ENDBRANCH  28  29
ENDBRANCH  27  28
ENDBRANCH  26  27
ENDBRANCH  25  26
ENDBRANCH   4  25
TORSDOF 17
ENDMDL
MODEL 5
REMARK VINA RESULT:      -7.2      2.799     10.291
REMARK  Name = 
REMARK  20 active torsions:
REMARK  status: ('A' for Active; 'I' for Inactive)
REMARK    1  A    between atoms: C_1  and  C_2
REMARK    2  A    between atoms: C_2  and  C_3
REMARK    3  A    between atoms: C_3  and  C_4
REMARK    4  A    between atoms: C_4  and  C_5
REMARK    5  A    between atoms: C_10  and  N_11
REMARK    6  A    between atoms: C_14  and  C_15
REMARK    7  A    between atoms: C_15  and  C_17
REMARK    8  A    between atoms: C_20  and  O_21
REMARK    9  A    between atoms: O_21  and  C_22
REMARK   10  A    between atoms: C_22  and  C_23
REMARK   11  A    between atoms: C_23  and  C_24
REMARK   12  A    between atoms: C_24  and  N_25
REMARK   13  A    between atoms: N_25  and  C_26
REMARK   14  A    between atoms: N_25  and  C_30
REMARK   15  A    between atoms: C_26  and  C_27
REMARK   16  A    between atoms: C_27  and  C_28
REMARK   17  A    between atoms: C_28  and  C_29
REMARK   18  A    between atoms: C_30  and  C_31
REMARK   19  A    between atoms: C_31  and  C_32
REMARK   20  A    between atoms: C_32  and  C_33
REMARK                            x       y       z     vdW  Elec       q    Type
REMARK                         _______ _______ _______ _____ _____    ______ ____
ROOT
ATOM      1  C   UNL     1       3.630   5.323  17.952  0.00  0.00    +0.000 A 
ATOM      2  C   UNL     1       3.613   6.574  17.331  0.00  0.00    +0.000 A 
ATOM      3  C   UNL     1       2.934   7.637  17.921  0.00  0.00    +0.000 A 
ATOM      4  C   UNL     1       2.286   7.471  19.147  0.00  0.00    +0.000 A 
ATOM      5  C   UNL     1       2.244   6.204  19.736  0.00  0.00    +0.000 A 
ATOM      6  C   UNL     1       2.929   5.133  19.152  0.00  0.00    +0.000 A 
ENDROOT
BRANCH   1   7
ATOM      7  C   UNL     1       4.455   4.259  17.320  0.00  0.00    +0.000 C 
ATOM      8  O   UNL     1       4.132   3.088  17.510  0.00  0.00    +0.000 OA
BRANCH   7  17
ATOM      9  C   UNL     1       6.693   5.344  16.965  0.00  0.00    +0.000 A 
ATOM     10  O   UNL     1       7.598   5.516  15.959  0.00  0.00    +0.000 OA
ATOM     11  C   UNL     1       7.071   4.950  14.839  0.00  0.00    +0.000 A 
ATOM     12  C   UNL     1       7.678   4.916  13.587  0.00  0.00    +0.000 A 
ATOM     13  C   UNL     1       6.962   4.286  12.559  0.00  0.00    +0.000 A 
ATOM     14  C   UNL     1       5.679   3.770  12.763  0.00  0.00    +0.000 A 
ATOM     15  C   UNL     1       5.123   3.794  14.047  0.00  0.00    +0.000 A 
ATOM     16  C   UNL     1       5.832   4.392  15.114  0.00  0.00    +0.000 A 
ATOM     17  C   UNL     1       5.598   4.622  16.506  0.00  0.00    +0.000 A 
BRANCH  14  18
ATOM     18  N   UNL     1       5.048   3.022  11.759  0.00  0.00    +0.000 N 
ATOM     19  H   UNL     1       4.701   3.580  10.986  0.00  0.00    +0.000 HD
ATOM     20  H   UNL     1       4.354   2.365  12.101  0.00  0.00    +0.000 HD
ENDBRANCH  14  18
BRANCH   9  21
ATOM     21  C   UNL     1       7.059   5.959  18.277  0.00  0.00    +0.000 C 
BRANCH  21  22
ATOM     22  C   UNL     1       8.167   7.007  18.152  0.00  0.00    +0.000 C 
BRANCH  22  24
ATOM     23  C   UNL     1       8.462   9.513  18.183  0.00  0.00    +0.000 C 
ATOM     24  C   UNL     1       7.610   8.354  17.685  0.00  0.00    +0.000 C 
ENDBRANCH  22  24
ENDBRANCH  21  22
ENDBRANCH   9  21
ENDBRANCH   7  17
ENDBRANCH   1   7
BRANCH   4  25
ATOM     25  O   UNL     1       1.690   8.481  19.858  0.00  0.00    +0.000 OA
BRANCH  25  26
ATOM     26  C   UNL     1       1.307   8.120  21.192  0.00  0.00    +0.000 C 
BRANCH  26  27
ATOM     27  C   UNL     1      -0.043   8.738  21.520  0.00  0.00    +0.000 C 
BRANCH  27  28
ATOM     28  C   UNL     1       0.107  10.166  22.061  0.00  0.00    +0.000 C 
BRANCH  28  29
ATOM     29  N   UNL     1      -0.579  11.247  21.308  0.00  0.00    +0.000 NA
BRANCH  29  30
ATOM     30  C   UNL     1       0.360  11.858  20.338  0.00  0.00    +0.000 C 
BRANCH  30  31
ATOM     31  C   UNL     1       0.190  11.413  18.877  0.00  0.00    +0.000 C 
BRANCH  31  32
ATOM     32  C   UNL     1      -1.270  11.158  18.499  0.00  0.00    +0.000 C 
ATOM     33  C   UNL     1      -1.396   9.939  17.600  0.00  0.00    +0.000 C 
ENDBRANCH  31  32
ENDBRANCH  30  31
ENDBRANCH  29  30
BRANCH  29  34
ATOM     34  C   UNL     1      -1.124  12.270  22.231  0.00  0.00    +0.000 C 
BRANCH  34  35
ATOM     35  C   UNL     1      -2.235  11.819  23.200  0.00  0.00    +0.000 C 
BRANCH  35  36
ATOM     36  C   UNL     1      -3.102  12.957  23.744  0.00  0.00    +0.000 C 
ATOM     37  C   UNL     1      -4.382  12.407  24.364  0.00  0.00    +0.000 C 
ENDBRANCH  35  36
ENDBRANCH  34  35
ENDBRANCH  29  34
ENDBRANCH  28  29
ENDBRANCH  27  28
ENDBRANCH  26  27
ENDBRANCH  25  26
ENDBRANCH   4  25
TORSDOF 17
ENDMDL
MODEL 6
REMARK VINA RESULT:      -7.2      3.419     10.098
REMARK  Name = 
REMARK  20 active torsions:
REMARK  status: ('A' for Active; 'I' for Inactive)
REMARK    1  A    between atoms: C_1  and  C_2
REMARK    2  A    between atoms: C_2  and  C_3
REMARK    3  A    between atoms: C_3  and  C_4
REMARK    4  A    between atoms: C_4  and  C_5
REMARK    5  A    between atoms: C_10  and  N_11
REMARK    6  A    between atoms: C_14  and  C_15
REMARK    7  A    between atoms: C_15  and  C_17
REMARK    8  A    between atoms: C_20  and  O_21
REMARK    9  A    between atoms: O_21  and  C_22
REMARK   10  A    between atoms: C_22  and  C_23
REMARK   11  A    between atoms: C_23  and  C_24
REMARK   12  A    between atoms: C_24  and  N_25
REMARK   13  A    between atoms: N_25  and  C_26
REMARK   14  A    between atoms: N_25  and  C_30
REMARK   15  A    between atoms: C_26  and  C_27
REMARK   16  A    between atoms: C_27  and  C_28
REMARK   17  A    between atoms: C_28  and  C_29
REMARK   18  A    between atoms: C_30  and  C_31
REMARK   19  A    between atoms: C_31  and  C_32
REMARK   20  A    between atoms: C_32  and  C_33
REMARK                            x       y       z     vdW  Elec       q    Type
REMARK                         _______ _______ _______ _____ _____    ______ ____
ROOT
ATOM      1  C   UNL     1       3.978   5.407  17.830  0.00  0.00    +0.000 A 
ATOM      2  C   UNL     1       3.827   6.617  17.149  0.00  0.00    +0.000 A 
ATOM      3  C   UNL     1       3.060   7.639  17.703  0.00  0.00    +0.000 A 
ATOM      4  C   UNL     1       2.455   7.474  18.951  0.00  0.00    +0.000 A 
ATOM      5  C   UNL     1       2.548   6.241  19.602  0.00  0.00    +0.000 A 
ATOM      6  C   UNL     1       3.322   5.212  19.055  0.00  0.00    +0.000 A 
ENDROOT
BRANCH   1   7
ATOM      7  C   UNL     1       4.890   4.396  17.231  0.00  0.00    +0.000 C 
ATOM      8  O   UNL     1       4.754   3.222  17.570  0.00  0.00    +0.000 OA
BRANCH   7  17
ATOM      9  C   UNL     1       6.936   5.690  16.559  0.00  0.00    +0.000 A 
ATOM     10  O   UNL     1       7.712   5.874  15.453  0.00  0.00    +0.000 OA
ATOM     11  C   UNL     1       7.152   5.155  14.442  0.00  0.00    +0.000 A 
ATOM     12  C   UNL     1       7.637   5.079  13.138  0.00  0.00    +0.000 A 
ATOM     13  C   UNL     1       6.907   4.284  12.244  0.00  0.00    +0.000 A 
ATOM     14  C   UNL     1       5.721   3.646  12.621  0.00  0.00    +0.000 A 
ATOM     15  C   UNL     1       5.292   3.721  13.951  0.00  0.00    +0.000 A 
ATOM     16  C   UNL     1       6.023   4.488  14.888  0.00  0.00    +0.000 A 
ATOM     17  C   UNL     1       5.898   4.811  16.275  0.00  0.00    +0.000 A 
BRANCH  14  18
ATOM     18  N   UNL     1       5.092   2.746  11.750  0.00  0.00    +0.000 N 
ATOM     19  H   UNL     1       5.699   2.008  11.411  0.00  0.00    +0.000 HD
ATOM     20  H   UNL     1       4.566   3.187  11.001  0.00  0.00    +0.000 HD
ENDBRANCH  14  18
BRANCH   9  21
ATOM     21  C   UNL     1       7.349   6.456  17.774  0.00  0.00    +0.000 C 
BRANCH  21  22
ATOM     22  C   UNL     1       7.609   7.935  17.482  0.00  0.00    +0.000 C 
BRANCH  22  24
ATOM     23  C   UNL     1       8.776  10.034  18.258  0.00  0.00    +0.000 C 
ATOM     24  C   UNL     1       8.513   8.563  18.546  0.00  0.00    +0.000 C 
ENDBRANCH  22  24
ENDBRANCH  21  22
ENDBRANCH   9  21
ENDBRANCH   7  17
ENDBRANCH   1   7
BRANCH   4  25
ATOM     25  O   UNL     1       1.778   8.457  19.626  0.00  0.00    +0.000 OA
BRANCH  25  26
ATOM     26  C   UNL     1       1.460   8.131  20.986  0.00  0.00    +0.000 C 
BRANCH  26  27
ATOM     27  C   UNL     1       0.076   8.657  21.328  0.00  0.00    +0.000 C 
BRANCH  27  28
ATOM     28  C   UNL     1       0.079   9.434  22.652  0.00  0.00    +0.000 C 
BRANCH  28  29
ATOM     29  N   UNL     1      -0.194  10.892  22.578  0.00  0.00    +0.000 NA
BRANCH  29  30
ATOM     30  C   UNL     1      -1.476  11.199  23.255  0.00  0.00    +0.000 C 
BRANCH  30  31
ATOM     31  C   UNL     1      -2.286  12.357  22.652  0.00  0.00    +0.000 C 
BRANCH  31  32
ATOM     32  C   UNL     1      -3.505  12.732  23.497  0.00  0.00    +0.000 C 
ATOM     33  C   UNL     1      -3.478  14.206  23.868  0.00  0.00    +0.000 C 
ENDBRANCH  31  32
ENDBRANCH  30  31
ENDBRANCH  29  30
BRANCH  29  34
ATOM     34  C   UNL     1      -0.217  11.353  21.170  0.00  0.00    +0.000 C 
BRANCH  34  35
ATOM     35  C   UNL     1       0.986  12.184  20.684  0.00  0.00    +0.000 C 
BRANCH  35  36
ATOM     36  C   UNL     1       1.386  11.930  19.229  0.00  0.00    +0.000 C 
ATOM     37  C   UNL     1       1.534  13.247  18.475  0.00  0.00    +0.000 C 
ENDBRANCH  35  36
ENDBRANCH  34  35
ENDBRANCH  29  34
ENDBRANCH  28  29
ENDBRANCH  27  28
ENDBRANCH  26  27
ENDBRANCH  25  26
ENDBRANCH   4  25
TORSDOF 17
ENDMDL
MODEL 7
REMARK VINA RESULT:      -7.2      0.797      3.173
REMARK  Name = 
REMARK  20 active torsions:
REMARK  status: ('A' for Active; 'I' for Inactive)
REMARK    1  A    between atoms: C_1  and  C_2
REMARK    2  A    between atoms: C_2  and  C_3
REMARK    3  A    between atoms: C_3  and  C_4
REMARK    4  A    between atoms: C_4  and  C_5
REMARK    5  A    between atoms: C_10  and  N_11
REMARK    6  A    between atoms: C_14  and  C_15
REMARK    7  A    between atoms: C_15  and  C_17
REMARK    8  A    between atoms: C_20  and  O_21
REMARK    9  A    between atoms: O_21  and  C_22
REMARK   10  A    between atoms: C_22  and  C_23
REMARK   11  A    between atoms: C_23  and  C_24
REMARK   12  A    between atoms: C_24  and  N_25
REMARK   13  A    between atoms: N_25  and  C_26
REMARK   14  A    between atoms: N_25  and  C_30
REMARK   15  A    between atoms: C_26  and  C_27
REMARK   16  A    between atoms: C_27  and  C_28
REMARK   17  A    between atoms: C_28  and  C_29
REMARK   18  A    between atoms: C_30  and  C_31
REMARK   19  A    between atoms: C_31  and  C_32
REMARK   20  A    between atoms: C_32  and  C_33
REMARK                            x       y       z     vdW  Elec       q    Type
REMARK                         _______ _______ _______ _____ _____    ______ ____
ROOT
ATOM      1  C   UNL     1       1.060  10.297  19.116  0.00  0.00    +0.000 A 
ATOM      2  C   UNL     1       1.700   9.938  17.928  0.00  0.00    +0.000 A 
ATOM      3  C   UNL     1       2.235   8.660  17.782  0.00  0.00    +0.000 A 
ATOM      4  C   UNL     1       2.116   7.720  18.809  0.00  0.00    +0.000 A 
ATOM      5  C   UNL     1       1.536   8.099  20.023  0.00  0.00    +0.000 A 
ATOM      6  C   UNL     1       0.992   9.379  20.175  0.00  0.00    +0.000 A 
ENDROOT
BRANCH   1   7
ATOM      7  C   UNL     1       0.426  11.641  19.169  0.00  0.00    +0.000 C 
ATOM      8  O   UNL     1       1.161  12.626  19.206  0.00  0.00    +0.000 OA
BRANCH   7  17
ATOM      9  C   UNL     1      -1.770  12.192  20.260  0.00  0.00    +0.000 A 
ATOM     10  O   UNL     1      -3.097  12.190  19.945  0.00  0.00    +0.000 OA
ATOM     11  C   UNL     1      -3.211  11.709  18.677  0.00  0.00    +0.000 A 
ATOM     12  C   UNL     1      -4.405  11.541  17.980  0.00  0.00    +0.000 A 
ATOM     13  C   UNL     1      -4.304  11.025  16.680  0.00  0.00    +0.000 A 
ATOM     14  C   UNL     1      -3.077  10.642  16.130  0.00  0.00    +0.000 A 
ATOM     15  C   UNL     1      -1.900  10.864  16.853  0.00  0.00    +0.000 A 
ATOM     16  C   UNL     1      -1.962  11.414  18.155  0.00  0.00    +0.000 A 
ATOM     17  C   UNL     1      -1.020  11.756  19.174  0.00  0.00    +0.000 A 
BRANCH  14  18
ATOM     18  N   UNL     1      -2.990  10.265  14.783  0.00  0.00    +0.000 N 
ATOM     19  H   UNL     1      -3.335  10.966  14.136  0.00  0.00    +0.000 HD
ATOM     20  H   UNL     1      -3.360   9.341  14.583  0.00  0.00    +0.000 HD
ENDBRANCH  14  18
BRANCH   9  21
ATOM     21  C   UNL     1      -1.435  12.627  21.649  0.00  0.00    +0.000 C 
BRANCH  21  22
ATOM     22  C   UNL     1      -2.629  13.244  22.382  0.00  0.00    +0.000 C 
BRANCH  22  24
ATOM     23  C   UNL     1      -4.443  12.813  24.082  0.00  0.00    +0.000 C 
ATOM     24  C   UNL     1      -3.105  12.346  23.527  0.00  0.00    +0.000 C 
ENDBRANCH  22  24
ENDBRANCH  21  22
ENDBRANCH   9  21
ENDBRANCH   7  17
ENDBRANCH   1   7
BRANCH   4  25
ATOM     25  O   UNL     1       2.507   6.410  18.716  0.00  0.00    +0.000 OA
BRANCH  25  26
ATOM     26  C   UNL     1       3.434   5.995  19.730  0.00  0.00    +0.000 C 
BRANCH  26  27
ATOM     27  C   UNL     1       4.623   5.304  19.083  0.00  0.00    +0.000 C 
BRANCH  27  28
ATOM     28  C   UNL     1       4.487   3.776  19.140  0.00  0.00    +0.000 C 
BRANCH  28  29
ATOM     29  N   UNL     1       4.297   3.068  17.848  0.00  0.00    +0.000 NA
BRANCH  29  30
ATOM     30  C   UNL     1       4.311   4.045  16.733  0.00  0.00    +0.000 C 
BRANCH  30  31
ATOM     31  C   UNL     1       5.400   3.827  15.671  0.00  0.00    +0.000 C 
BRANCH  31  32
ATOM     32  C   UNL     1       6.236   5.082  15.413  0.00  0.00    +0.000 C 
ATOM     33  C   UNL     1       7.048   4.943  14.135  0.00  0.00    +0.000 C 
ENDBRANCH  31  32
ENDBRANCH  30  31
ENDBRANCH  29  30
BRANCH  29  34
ATOM     34  C   UNL     1       3.036   2.291  17.853  0.00  0.00    +0.000 C 
BRANCH  34  35
ATOM     35  C   UNL     1       1.730   3.075  18.087  0.00  0.00    +0.000 C 
BRANCH  35  36
ATOM     36  C   UNL     1       0.934   2.630  19.315  0.00  0.00    +0.000 C 
ATOM     37  C   UNL     1       0.798   3.777  20.311  0.00  0.00    +0.000 C 
ENDBRANCH  35  36
ENDBRANCH  34  35
ENDBRANCH  29  34
ENDBRANCH  28  29
ENDBRANCH  27  28
ENDBRANCH  26  27
ENDBRANCH  25  26
ENDBRANCH   4  25
TORSDOF 17
ENDMDL
MODEL 8
REMARK VINA RESULT:      -7.2      1.467      2.966
REMARK  Name = 
REMARK  20 active torsions:
REMARK  status: ('A' for Active; 'I' for Inactive)
REMARK    1  A    between atoms: C_1  and  C_2
REMARK    2  A    between atoms: C_2  and  C_3
REMARK    3  A    between atoms: C_3  and  C_4
REMARK    4  A    between atoms: C_4  and  C_5
REMARK    5  A    between atoms: C_10  and  N_11
REMARK    6  A    between atoms: C_14  and  C_15
REMARK    7  A    between atoms: C_15  and  C_17
REMARK    8  A    between atoms: C_20  and  O_21
REMARK    9  A    between atoms: O_21  and  C_22
REMARK   10  A    between atoms: C_22  and  C_23
REMARK   11  A    between atoms: C_23  and  C_24
REMARK   12  A    between atoms: C_24  and  N_25
REMARK   13  A    between atoms: N_25  and  C_26
REMARK   14  A    between atoms: N_25  and  C_30
REMARK   15  A    between atoms: C_26  and  C_27
REMARK   16  A    between atoms: C_27  and  C_28
REMARK   17  A    between atoms: C_28  and  C_29
REMARK   18  A    between atoms: C_30  and  C_31
REMARK   19  A    between atoms: C_31  and  C_32
REMARK   20  A    between atoms: C_32  and  C_33
REMARK                            x       y       z     vdW  Elec       q    Type
REMARK                         _______ _______ _______ _____ _____    ______ ____
ROOT
ATOM      1  C   UNL     1       1.072  10.008  19.003  0.00  0.00    +0.000 A 
ATOM      2  C   UNL     1       1.046   9.288  20.198  0.00  0.00    +0.000 A 
ATOM      3  C   UNL     1       1.623   8.022  20.262  0.00  0.00    +0.000 A 
ATOM      4  C   UNL     1       2.253   7.472  19.143  0.00  0.00    +0.000 A 
ATOM      5  C   UNL     1       2.221   8.162  17.929  0.00  0.00    +0.000 A 
ATOM      6  C   UNL     1       1.648   9.437  17.858  0.00  0.00    +0.000 A 
ENDROOT
BRANCH   1   7
ATOM      7  C   UNL     1       0.527  11.392  19.028  0.00  0.00    +0.000 C 
ATOM      8  O   UNL     1       1.322  12.328  18.975  0.00  0.00    +0.000 OA
BRANCH   7  17
ATOM      9  C   UNL     1      -1.565  12.097  20.229  0.00  0.00    +0.000 A 
ATOM     10  O   UNL     1      -2.905  12.177  19.987  0.00  0.00    +0.000 OA
ATOM     11  C   UNL     1      -3.120  11.690  18.735  0.00  0.00    +0.000 A 
ATOM     12  C   UNL     1      -4.359  11.591  18.107  0.00  0.00    +0.000 A 
ATOM     13  C   UNL     1      -4.364  11.054  16.812  0.00  0.00    +0.000 A 
ATOM     14  C   UNL     1      -3.197  10.586  16.201  0.00  0.00    +0.000 A 
ATOM     15  C   UNL     1      -1.969  10.740  16.856  0.00  0.00    +0.000 A 
ATOM     16  C   UNL     1      -1.923  11.308  18.150  0.00  0.00    +0.000 A 
ATOM     17  C   UNL     1      -0.906  11.600  19.111  0.00  0.00    +0.000 A 
BRANCH  14  18
ATOM     18  N   UNL     1      -3.209  10.188  14.858  0.00  0.00    +0.000 N 
ATOM     19  H   UNL     1      -3.956  10.604  14.312  0.00  0.00    +0.000 HD
ATOM     20  H   UNL     1      -3.144   9.184  14.718  0.00  0.00    +0.000 HD
ENDBRANCH  14  18
BRANCH   9  21
ATOM     21  C   UNL     1      -1.126  12.526  21.591  0.00  0.00    +0.000 C 
BRANCH  21  22
ATOM     22  C   UNL     1      -1.974  11.914  22.708  0.00  0.00    +0.000 C 
BRANCH  22  24
ATOM     23  C   UNL     1      -2.394  14.386  22.985  0.00  0.00    +0.000 C 
ATOM     24  C   UNL     1      -2.749  12.990  23.473  0.00  0.00    +0.000 C 
ENDBRANCH  22  24
ENDBRANCH  21  22
ENDBRANCH   9  21
ENDBRANCH   7  17
ENDBRANCH   1   7
BRANCH   4  25
ATOM     25  O   UNL     1       2.944   6.288  19.140  0.00  0.00    +0.000 OA
BRANCH  25  26
ATOM     26  C   UNL     1       3.563   5.967  17.887  0.00  0.00    +0.000 C 
BRANCH  26  27
ATOM     27  C   UNL     1       3.787   4.466  17.797  0.00  0.00    +0.000 C 
BRANCH  27  28
ATOM     28  C   UNL     1       5.095   4.133  17.067  0.00  0.00    +0.000 C 
BRANCH  28  29
ATOM     29  N   UNL     1       5.480   5.018  15.937  0.00  0.00    +0.000 NA
BRANCH  29  30
ATOM     30  C   UNL     1       5.359   4.280  14.658  0.00  0.00    +0.000 C 
BRANCH  30  31
ATOM     31  C   UNL     1       6.636   4.218  13.804  0.00  0.00    +0.000 C 
BRANCH  31  32
ATOM     32  C   UNL     1       6.402   3.580  12.433  0.00  0.00    +0.000 C 
ATOM     33  C   UNL     1       4.917   3.412  12.156  0.00  0.00    +0.000 C 
ENDBRANCH  31  32
ENDBRANCH  30  31
ENDBRANCH  29  30
BRANCH  29  34
ATOM     34  C   UNL     1       6.855   5.537  16.120  0.00  0.00    +0.000 C 
BRANCH  34  35
ATOM     35  C   UNL     1       7.160   6.267  17.443  0.00  0.00    +0.000 C 
BRANCH  35  36
ATOM     36  C   UNL     1       7.298   7.786  17.313  0.00  0.00    +0.000 C 
ATOM     37  C   UNL     1       8.344   8.315  18.288  0.00  0.00    +0.000 C 
ENDBRANCH  35  36
ENDBRANCH  34  35
ENDBRANCH  29  34
ENDBRANCH  28  29
ENDBRANCH  27  28
ENDBRANCH  26  27
ENDBRANCH  25  26
ENDBRANCH   4  25
TORSDOF 17
ENDMDL
MODEL 9
REMARK VINA RESULT:      -7.1      2.472      9.886
REMARK  Name = 
REMARK  20 active torsions:
REMARK  status: ('A' for Active; 'I' for Inactive)
REMARK    1  A    between atoms: C_1  and  C_2
REMARK    2  A    between atoms: C_2  and  C_3
REMARK    3  A    between atoms: C_3  and  C_4
REMARK    4  A    between atoms: C_4  and  C_5
REMARK    5  A    between atoms: C_10  and  N_11
REMARK    6  A    between atoms: C_14  and  C_15
REMARK    7  A    between atoms: C_15  and  C_17
REMARK    8  A    between atoms: C_20  and  O_21
REMARK    9  A    between atoms: O_21  and  C_22
REMARK   10  A    between atoms: C_22  and  C_23
REMARK   11  A    between atoms: C_23  and  C_24
REMARK   12  A    between atoms: C_24  and  N_25
REMARK   13  A    between atoms: N_25  and  C_26
REMARK   14  A    between atoms: N_25  and  C_30
REMARK   15  A    between atoms: C_26  and  C_27
REMARK   16  A    between atoms: C_27  and  C_28
REMARK   17  A    between atoms: C_28  and  C_29
REMARK   18  A    between atoms: C_30  and  C_31
REMARK   19  A    between atoms: C_31  and  C_32
REMARK   20  A    between atoms: C_32  and  C_33
REMARK                            x       y       z     vdW  Elec       q    Type
REMARK                         _______ _______ _______ _____ _____    ______ ____
ROOT
ATOM      1  C   UNL     1       2.272   7.517  19.177  0.00  0.00    +0.000 A 
ATOM      2  C   UNL     1       1.592   8.178  20.202  0.00  0.00    +0.000 A 
ATOM      3  C   UNL     1       1.068   9.450  19.985  0.00  0.00    +0.000 A 
ATOM      4  C   UNL     1       1.195  10.065  18.737  0.00  0.00    +0.000 A 
ATOM      5  C   UNL     1       1.933   9.434  17.731  0.00  0.00    +0.000 A 
ATOM      6  C   UNL     1       2.457   8.154  17.941  0.00  0.00    +0.000 A 
ENDROOT
BRANCH   1   7
ATOM      7  C   UNL     1       2.720   6.124  19.444  0.00  0.00    +0.000 C 
ATOM      8  O   UNL     1       2.648   5.705  20.597  0.00  0.00    +0.000 OA
BRANCH   7  17
ATOM      9  C   UNL     1       2.560   4.199  17.836  0.00  0.00    +0.000 A 
ATOM     10  O   UNL     1       3.288   3.652  16.821  0.00  0.00    +0.000 OA
ATOM     11  C   UNL     1       4.437   4.373  16.712  0.00  0.00    +0.000 A 
ATOM     12  C   UNL     1       5.457   4.136  15.795  0.00  0.00    +0.000 A 
ATOM     13  C   UNL     1       6.563   4.995  15.852  0.00  0.00    +0.000 A 
ATOM     14  C   UNL     1       6.667   6.003  16.815  0.00  0.00    +0.000 A 
ATOM     15  C   UNL     1       5.600   6.228  17.693  0.00  0.00    +0.000 A 
ATOM     16  C   UNL     1       4.455   5.401  17.641  0.00  0.00    +0.000 A 
ATOM     17  C   UNL     1       3.219   5.307  18.355  0.00  0.00    +0.000 A 
BRANCH  14  18
ATOM     18  N   UNL     1       7.713   6.934  16.758  0.00  0.00    +0.000 N 
ATOM     19  H   UNL     1       8.132   7.139  17.659  0.00  0.00    +0.000 HD
ATOM     20  H   UNL     1       7.495   7.776  16.234  0.00  0.00    +0.000 HD
ENDBRANCH  14  18
BRANCH   9  21
ATOM     21  C   UNL     1       1.279   3.503  18.163  0.00  0.00    +0.000 C 
BRANCH  21  22
ATOM     22  C   UNL     1       1.494   2.188  18.915  0.00  0.00    +0.000 C 
BRANCH  22  24
ATOM     23  C   UNL     1       3.235   2.385  20.731  0.00  0.00    +0.000 C 
ATOM     24  C   UNL     1       1.749   2.433  20.405  0.00  0.00    +0.000 C 
ENDBRANCH  22  24
ENDBRANCH  21  22
ENDBRANCH   9  21
ENDBRANCH   7  17
ENDBRANCH   1   7
BRANCH   4  25
ATOM     25  O   UNL     1       0.617  11.261  18.394  0.00  0.00    +0.000 OA
BRANCH  25  26
ATOM     26  C   UNL     1       1.452  12.406  18.615  0.00  0.00    +0.000 C 
BRANCH  26  27
ATOM     27  C   UNL     1       0.634  13.521  19.247  0.00  0.00    +0.000 C 
BRANCH  27  28
ATOM     28  C   UNL     1      -0.870  13.223  19.183  0.00  0.00    +0.000 C 
BRANCH  28  29
ATOM     29  N   UNL     1      -1.534  12.834  20.453  0.00  0.00    +0.000 NA
BRANCH  29  30
ATOM     30  C   UNL     1      -2.717  13.696  20.686  0.00  0.00    +0.000 C 
BRANCH  30  31
ATOM     31  C   UNL     1      -4.080  13.048  20.394  0.00  0.00    +0.000 C 
BRANCH  31  32
ATOM     32  C   UNL     1      -4.897  12.788  21.661  0.00  0.00    +0.000 C 
ATOM     33  C   UNL     1      -4.771  13.946  22.639  0.00  0.00    +0.000 C 
ENDBRANCH  31  32
ENDBRANCH  30  31
ENDBRANCH  29  30
BRANCH  29  34
ATOM     34  C   UNL     1      -0.588  12.919  21.590  0.00  0.00    +0.000 C 
BRANCH  34  35
ATOM     35  C   UNL     1      -1.166  12.700  23.002  0.00  0.00    +0.000 C 
BRANCH  35  36
ATOM     36  C   UNL     1      -1.761  11.310  23.236  0.00  0.00    +0.000 C 
ATOM     37  C   UNL     1      -0.684  10.238  23.114  0.00  0.00    +0.000 C 
ENDBRANCH  35  36
ENDBRANCH  34  35
ENDBRANCH  29  34
ENDBRANCH  28  29
ENDBRANCH  27  28
ENDBRANCH  26  27
ENDBRANCH  25  26
ENDBRANCH   4  25
TORSDOF 17
ENDMDL
