MODEL 1
REMARK VINA RESULT:      -7.4      0.000      0.000
REMARK  Name = 
REMARK  0 active torsions:
REMARK  status: ('A' for Active; 'I' for Inactive)
REMARK                            x       y       z     vdW  Elec       q    Type
REMARK                         _______ _______ _______ _____ _____    ______ ____
ROOT
ATOM      1  N   UNL     1       1.465   2.563  22.185  0.00  0.00    +0.000 N 
ATOM      2  C   UNL     1       2.001   3.233  21.102  0.00  0.00    +0.000 A 
ATOM      3  N   UNL     1       1.994   4.568  21.151  0.00  0.00    +0.000 NA
ATOM      4  C   UNL     1       2.551   5.273  20.149  0.00  0.00    +0.000 A 
ATOM      5  N   UNL     1       2.484   6.657  20.296  0.00  0.00    +0.000 N 
ATOM      6  C   UNL     1       3.142   4.596  19.063  0.00  0.00    +0.000 A 
ATOM      7  C   UNL     1       3.885   4.986  17.874  0.00  0.00    +0.000 A 
ATOM      8  C   UNL     1       4.262   3.882  17.121  0.00  0.00    +0.000 A 
ATOM      9  S   UNL     1       3.709   2.419  17.787  0.00  0.00    +0.000 S 
ATOM     10  C   UNL     1       3.031   3.214  19.127  0.00  0.00    +0.000 A 
ATOM     11  N   UNL     1       2.463   2.493  20.107  0.00  0.00    +0.000 NA
ATOM     12  C   UNL     1       5.105   3.888  15.879  0.00  0.00    +0.000 C 
ATOM     13  C   UNL     1       6.506   4.444  16.163  0.00  0.00    +0.000 C 
ATOM     14  C   UNL     1       6.563   5.968  16.326  0.00  0.00    +0.000 C 
ATOM     15  C   UNL     1       5.830   6.531  17.549  0.00  0.00    +0.000 C 
ATOM     16  C   UNL     1       4.308   6.368  17.470  0.00  0.00    +0.000 C 
ATOM     17  H   UNL     1       0.807   3.159  22.670  0.00  0.00    +0.000 HD
ATOM     18  H   UNL     1       1.153   1.645  21.906  0.00  0.00    +0.000 HD
ATOM     19  H   UNL     1       2.239   6.893  21.254  0.00  0.00    +0.000 HD
ATOM     20  H   UNL     1       3.249   7.186  19.912  0.00  0.00    +0.000 HD
ENDROOT
TORSDOF 0
ENDMDL
MODEL 2
REMARK VINA RESULT:      -7.4      1.591      2.596
REMARK  Name = 
REMARK  0 active torsions:
REMARK  status: ('A' for Active; 'I' for Inactive)
REMARK                            x       y       z     vdW  Elec       q    Type
REMARK                         _______ _______ _______ _____ _____    ______ ____
ROOT
ATOM      1  N   UNL     1       0.782   2.875  21.141  0.00  0.00    +0.000 N 
ATOM      2  C   UNL     1       1.890   3.340  20.459  0.00  0.00    +0.000 A 
ATOM      3  N   UNL     1       2.982   2.569  20.481  0.00  0.00    +0.000 NA
ATOM      4  C   UNL     1       4.075   2.945  19.792  0.00  0.00    +0.000 A 
ATOM      5  N   UNL     1       5.159   2.074  19.887  0.00  0.00    +0.000 N 
ATOM      6  C   UNL     1       4.054   4.142  19.047  0.00  0.00    +0.000 A 
ATOM      7  C   UNL     1       4.971   4.821  18.145  0.00  0.00    +0.000 A 
ATOM      8  C   UNL     1       4.427   6.003  17.657  0.00  0.00    +0.000 A 
ATOM      9  S   UNL     1       2.882   6.320  18.290  0.00  0.00    +0.000 S 
ATOM     10  C   UNL     1       2.871   4.859  19.158  0.00  0.00    +0.000 A 
ATOM     11  N   UNL     1       1.777   4.512  19.856  0.00  0.00    +0.000 NA
ATOM     12  C   UNL     1       5.044   6.924  16.645  0.00  0.00    +0.000 C 
ATOM     13  C   UNL     1       5.253   6.213  15.302  0.00  0.00    +0.000 C 
ATOM     14  C   UNL     1       6.436   5.237  15.278  0.00  0.00    +0.000 C 
ATOM     15  C   UNL     1       6.298   4.007  16.183  0.00  0.00    +0.000 C 
ATOM     16  C   UNL     1       6.316   4.348  17.677  0.00  0.00    +0.000 C 
ATOM     17  H   UNL     1       1.066   2.229  21.865  0.00  0.00    +0.000 HD
ATOM     18  H   UNL     1       0.188   3.647  21.404  0.00  0.00    +0.000 HD
ATOM     19  H   UNL     1       4.854   1.182  20.268  0.00  0.00    +0.000 HD
ATOM     20  H   UNL     1       5.754   2.009  19.079  0.00  0.00    +0.000 HD
ENDROOT
TORSDOF 0
ENDMDL
MODEL 3
REMARK VINA RESULT:      -7.4      3.252      5.584
REMARK  Name = 
REMARK  0 active torsions:
REMARK  status: ('A' for Active; 'I' for Inactive)
REMARK                            x       y       z     vdW  Elec       q    Type
REMARK                         _______ _______ _______ _____ _____    ______ ____
ROOT
ATOM      1  N   UNL     1       7.755   7.258  16.733  0.00  0.00    +0.000 N 
ATOM      2  C   UNL     1       6.668   6.414  16.845  0.00  0.00    +0.000 A 
ATOM      3  N   UNL     1       6.773   5.212  16.271  0.00  0.00    +0.000 NA
ATOM      4  C   UNL     1       5.766   4.326  16.392  0.00  0.00    +0.000 A 
ATOM      5  N   UNL     1       5.975   3.107  15.750  0.00  0.00    +0.000 N 
ATOM      6  C   UNL     1       4.616   4.673  17.129  0.00  0.00    +0.000 A 
ATOM      7  C   UNL     1       3.398   3.991  17.538  0.00  0.00    +0.000 A 
ATOM      8  C   UNL     1       2.576   4.819  18.292  0.00  0.00    +0.000 A 
ATOM      9  S   UNL     1       3.216   6.384  18.473  0.00  0.00    +0.000 S 
ATOM     10  C   UNL     1       4.629   5.969  17.626  0.00  0.00    +0.000 A 
ATOM     11  N   UNL     1       5.614   6.874  17.500  0.00  0.00    +0.000 NA
ATOM     12  C   UNL     1       1.282   4.439  18.951  0.00  0.00    +0.000 C 
ATOM     13  C   UNL     1       1.495   3.337  19.997  0.00  0.00    +0.000 C 
ATOM     14  C   UNL     1       1.718   1.939  19.408  0.00  0.00    +0.000 C 
ATOM     15  C   UNL     1       3.008   1.757  18.602  0.00  0.00    +0.000 C 
ATOM     16  C   UNL     1       3.024   2.558  17.295  0.00  0.00    +0.000 C 
ATOM     17  H   UNL     1       8.307   7.009  15.924  0.00  0.00    +0.000 HD
ATOM     18  H   UNL     1       7.459   8.219  16.824  0.00  0.00    +0.000 HD
ATOM     19  H   UNL     1       6.956   3.009  15.503  0.00  0.00    +0.000 HD
ATOM     20  H   UNL     1       5.563   2.297  16.182  0.00  0.00    +0.000 HD
ENDROOT
TORSDOF 0
ENDMDL
MODEL 4
REMARK VINA RESULT:      -6.9      3.117      4.989
REMARK  Name = 
REMARK  0 active torsions:
REMARK  status: ('A' for Active; 'I' for Inactive)
REMARK                            x       y       z     vdW  Elec       q    Type
REMARK                         _______ _______ _______ _____ _____    ______ ____
ROOT
ATOM      1  N   UNL     1       1.741  10.488  17.611  0.00  0.00    +0.000 N 
ATOM      2  C   UNL     1       1.979   9.286  18.249  0.00  0.00    +0.000 A 
ATOM      3  N   UNL     1       1.456   9.133  19.469  0.00  0.00    +0.000 NA
ATOM      4  C   UNL     1       1.610   7.964  20.118  0.00  0.00    +0.000 A 
ATOM      5  N   UNL     1       1.032   7.913  21.384  0.00  0.00    +0.000 N 
ATOM      6  C   UNL     1       2.314   6.910  19.500  0.00  0.00    +0.000 A 
ATOM      7  C   UNL     1       2.614   5.526  19.830  0.00  0.00    +0.000 A 
ATOM      8  C   UNL     1       3.355   4.910  18.829  0.00  0.00    +0.000 A 
ATOM      9  S   UNL     1       3.723   5.964  17.548  0.00  0.00    +0.000 S 
ATOM     10  C   UNL     1       2.840   7.231  18.256  0.00  0.00    +0.000 A 
ATOM     11  N   UNL     1       2.714   8.397  17.601  0.00  0.00    +0.000 NA
ATOM     12  C   UNL     1       3.777   3.470  18.783  0.00  0.00    +0.000 C 
ATOM     13  C   UNL     1       2.561   2.536  18.757  0.00  0.00    +0.000 C 
ATOM     14  C   UNL     1       1.848   2.384  20.106  0.00  0.00    +0.000 C 
ATOM     15  C   UNL     1       1.168   3.649  20.642  0.00  0.00    +0.000 C 
ATOM     16  C   UNL     1       2.159   4.751  21.032  0.00  0.00    +0.000 C 
ATOM     17  H   UNL     1       1.545  11.209  18.292  0.00  0.00    +0.000 HD
ATOM     18  H   UNL     1       2.462  10.667  16.928  0.00  0.00    +0.000 HD
ATOM     19  H   UNL     1       0.385   8.689  21.501  0.00  0.00    +0.000 HD
ATOM     20  H   UNL     1       0.679   7.019  21.680  0.00  0.00    +0.000 HD
ENDROOT
TORSDOF 0
ENDMDL
MODEL 5
REMARK VINA RESULT:      -6.5      3.112      5.193
REMARK  Name = 
REMARK  0 active torsions:
REMARK  status: ('A' for Active; 'I' for Inactive)
REMARK                            x       y       z     vdW  Elec       q    Type
REMARK                         _______ _______ _______ _____ _____    ______ ____
ROOT
ATOM      1  N   UNL     1       7.270   5.417  15.050  0.00  0.00    +0.000 N 
ATOM      2  C   UNL     1       6.500   4.916  16.082  0.00  0.00    +0.000 A 
ATOM      3  N   UNL     1       6.890   5.208  17.326  0.00  0.00    +0.000 NA
ATOM      4  C   UNL     1       6.150   4.791  18.371  0.00  0.00    +0.000 A 
ATOM      5  N   UNL     1       6.649   5.144  19.623  0.00  0.00    +0.000 N 
ATOM      6  C   UNL     1       4.968   4.058  18.141  0.00  0.00    +0.000 A 
ATOM      7  C   UNL     1       3.900   3.521  18.969  0.00  0.00    +0.000 A 
ATOM      8  C   UNL     1       2.936   2.874  18.206  0.00  0.00    +0.000 A 
ATOM      9  S   UNL     1       3.314   2.867  16.549  0.00  0.00    +0.000 S 
ATOM     10  C   UNL     1       4.718   3.790  16.802  0.00  0.00    +0.000 A 
ATOM     11  N   UNL     1       5.453   4.180  15.748  0.00  0.00    +0.000 NA
ATOM     12  C   UNL     1       1.655   2.271  18.703  0.00  0.00    +0.000 C 
ATOM     13  C   UNL     1       0.750   3.335  19.337  0.00  0.00    +0.000 C 
ATOM     14  C   UNL     1       1.189   3.792  20.733  0.00  0.00    +0.000 C 
ATOM     15  C   UNL     1       2.523   4.544  20.795  0.00  0.00    +0.000 C 
ATOM     16  C   UNL     1       3.731   3.664  20.454  0.00  0.00    +0.000 C 
ATOM     17  H   UNL     1       8.210   5.598  15.375  0.00  0.00    +0.000 HD
ATOM     18  H   UNL     1       7.157   4.848  14.225  0.00  0.00    +0.000 HD
ATOM     19  H   UNL     1       7.360   5.864  19.523  0.00  0.00    +0.000 HD
ATOM     20  H   UNL     1       5.969   5.318  20.343  0.00  0.00    +0.000 HD
ENDROOT
TORSDOF 0
ENDMDL
MODEL 6
REMARK VINA RESULT:      -6.5      2.259      2.916
REMARK  Name = 
REMARK  0 active torsions:
REMARK  status: ('A' for Active; 'I' for Inactive)
REMARK                            x       y       z     vdW  Elec       q    Type
REMARK                         _______ _______ _______ _____ _____    ______ ____
ROOT
ATOM      1  N   UNL     1       0.685   1.437  18.710  0.00  0.00    +0.000 N 
ATOM      2  C   UNL     1       1.759   2.298  18.824  0.00  0.00    +0.000 A 
ATOM      3  N   UNL     1       2.859   1.820  19.413  0.00  0.00    +0.000 NA
ATOM      4  C   UNL     1       3.955   2.596  19.505  0.00  0.00    +0.000 A 
ATOM      5  N   UNL     1       5.044   2.003  20.141  0.00  0.00    +0.000 N 
ATOM      6  C   UNL     1       3.934   3.901  18.972  0.00  0.00    +0.000 A 
ATOM      7  C   UNL     1       4.902   4.975  18.812  0.00  0.00    +0.000 A 
ATOM      8  C   UNL     1       4.341   6.081  18.188  0.00  0.00    +0.000 A 
ATOM      9  S   UNL     1       2.690   5.867  17.841  0.00  0.00    +0.000 S 
ATOM     10  C   UNL     1       2.710   4.275  18.436  0.00  0.00    +0.000 A 
ATOM     11  N   UNL     1       1.600   3.524  18.352  0.00  0.00    +0.000 NA
ATOM     12  C   UNL     1       5.051   7.340  17.783  0.00  0.00    +0.000 C 
ATOM     13  C   UNL     1       6.153   7.050  16.757  0.00  0.00    +0.000 C 
ATOM     14  C   UNL     1       7.416   6.410  17.345  0.00  0.00    +0.000 C 
ATOM     15  C   UNL     1       7.240   4.998  17.914  0.00  0.00    +0.000 C 
ATOM     16  C   UNL     1       6.360   4.955  19.168  0.00  0.00    +0.000 C 
ATOM     17  H   UNL     1       0.741   0.716  19.417  0.00  0.00    +0.000 HD
ATOM     18  H   UNL     1      -0.174   1.962  18.640  0.00  0.00    +0.000 HD
ATOM     19  H   UNL     1       4.899   0.999  20.212  0.00  0.00    +0.000 HD
ATOM     20  H   UNL     1       5.956   2.278  19.818  0.00  0.00    +0.000 HD
ENDROOT
TORSDOF 0
ENDMDL
MODEL 7
REMARK VINA RESULT:      -6.4      3.360      5.612
REMARK  Name = 
REMARK  0 active torsions:
REMARK  status: ('A' for Active; 'I' for Inactive)
REMARK                            x       y       z     vdW  Elec       q    Type
REMARK                         _______ _______ _______ _____ _____    ______ ____
ROOT
ATOM      1  N   UNL     1       7.665   5.165  15.075  0.00  0.00    +0.000 N 
ATOM      2  C   UNL     1       6.472   5.186  15.771  0.00  0.00    +0.000 A 
ATOM      3  N   UNL     1       5.973   4.007  16.154  0.00  0.00    +0.000 NA
ATOM      4  C   UNL     1       4.840   3.968  16.880  0.00  0.00    +0.000 A 
ATOM      5  N   UNL     1       4.404   2.689  17.221  0.00  0.00    +0.000 N 
ATOM      6  C   UNL     1       4.197   5.171  17.236  0.00  0.00    +0.000 A 
ATOM      7  C   UNL     1       3.045   5.534  18.046  0.00  0.00    +0.000 A 
ATOM      8  C   UNL     1       2.853   6.909  18.077  0.00  0.00    +0.000 A 
ATOM      9  S   UNL     1       3.989   7.747  17.129  0.00  0.00    +0.000 S 
ATOM     10  C   UNL     1       4.804   6.311  16.728  0.00  0.00    +0.000 A 
ATOM     11  N   UNL     1       5.922   6.370  15.985  0.00  0.00    +0.000 NA
ATOM     12  C   UNL     1       1.819   7.654  18.871  0.00  0.00    +0.000 C 
ATOM     13  C   UNL     1       2.009   7.429  20.376  0.00  0.00    +0.000 C 
ATOM     14  C   UNL     1       1.545   6.056  20.877  0.00  0.00    +0.000 C 
ATOM     15  C   UNL     1       2.341   4.856  20.353  0.00  0.00    +0.000 C 
ATOM     16  C   UNL     1       2.164   4.621  18.849  0.00  0.00    +0.000 C 
ATOM     17  H   UNL     1       7.789   4.268  14.625  0.00  0.00    +0.000 HD
ATOM     18  H   UNL     1       7.749   5.994  14.507  0.00  0.00    +0.000 HD
ATOM     19  H   UNL     1       5.150   2.016  17.067  0.00  0.00    +0.000 HD
ATOM     20  H   UNL     1       3.927   2.599  18.102  0.00  0.00    +0.000 HD
ENDROOT
TORSDOF 0
ENDMDL
MODEL 8
REMARK VINA RESULT:      -6.4      3.344      5.350
REMARK  Name = 
REMARK  0 active torsions:
REMARK  status: ('A' for Active; 'I' for Inactive)
REMARK                            x       y       z     vdW  Elec       q    Type
REMARK                         _______ _______ _______ _____ _____    ______ ____
ROOT
ATOM      1  N   UNL     1       1.244  11.515  18.075  0.00  0.00    +0.000 N 
ATOM      2  C   UNL     1       1.542  10.249  18.541  0.00  0.00    +0.000 A 
ATOM      3  N   UNL     1       1.059   9.916  19.742  0.00  0.00    +0.000 NA
ATOM      4  C   UNL     1       1.272   8.678  20.225  0.00  0.00    +0.000 A 
ATOM      5  N   UNL     1       0.732   8.438  21.486  0.00  0.00    +0.000 N 
ATOM      6  C   UNL     1       1.995   7.743  19.456  0.00  0.00    +0.000 A 
ATOM      7  C   UNL     1       2.353   6.340  19.591  0.00  0.00    +0.000 A 
ATOM      8  C   UNL     1       3.086   5.891  18.501  0.00  0.00    +0.000 A 
ATOM      9  S   UNL     1       3.381   7.119  17.363  0.00  0.00    +0.000 S 
ATOM     10  C   UNL     1       2.474   8.246  18.254  0.00  0.00    +0.000 A 
ATOM     11  N   UNL     1       2.289   9.483  17.763  0.00  0.00    +0.000 NA
ATOM     12  C   UNL     1       3.557   4.487  18.253  0.00  0.00    +0.000 C 
ATOM     13  C   UNL     1       2.374   3.519  18.130  0.00  0.00    +0.000 C 
ATOM     14  C   UNL     1       1.705   3.162  19.463  0.00  0.00    +0.000 C 
ATOM     15  C   UNL     1       0.996   4.317  20.179  0.00  0.00    +0.000 C 
ATOM     16  C   UNL     1       1.958   5.395  20.689  0.00  0.00    +0.000 C 
ATOM     17  H   UNL     1       1.042  12.132  18.850  0.00  0.00    +0.000 HD
ATOM     18  H   UNL     1       1.939  11.810  17.405  0.00  0.00    +0.000 HD
ATOM     19  H   UNL     1       0.061   9.165  21.721  0.00  0.00    +0.000 HD
ATOM     20  H   UNL     1       0.419   7.499  21.668  0.00  0.00    +0.000 HD
ENDROOT
TORSDOF 0
ENDMDL
MODEL 9
REMARK VINA RESULT:      -6.4      3.423      5.536
REMARK  Name = 
REMARK  0 active torsions:
REMARK  status: ('A' for Active; 'I' for Inactive)
REMARK                            x       y       z     vdW  Elec       q    Type
REMARK                         _______ _______ _______ _____ _____    ______ ____
ROOT
ATOM      1  N   UNL     1       7.877   8.502  17.318  0.00  0.00    +0.000 N 
ATOM      2  C   UNL     1       7.023   7.422  17.427  0.00  0.00    +0.000 A 
ATOM      3  N   UNL     1       7.584   6.217  17.560  0.00  0.00    +0.000 NA
ATOM      4  C   UNL     1       6.802   5.133  17.723  0.00  0.00    +0.000 A 
ATOM      5  N   UNL     1       7.487   3.926  17.846  0.00  0.00    +0.000 N 
ATOM      6  C   UNL     1       5.401   5.283  17.761  0.00  0.00    +0.000 A 
ATOM      7  C   UNL     1       4.266   4.401  17.990  0.00  0.00    +0.000 A 
ATOM      8  C   UNL     1       3.062   5.090  17.930  0.00  0.00    +0.000 A 
ATOM      9  S   UNL     1       3.271   6.738  17.566  0.00  0.00    +0.000 S 
ATOM     10  C   UNL     1       4.963   6.585  17.562  0.00  0.00    +0.000 A 
ATOM     11  N   UNL     1       5.725   7.675  17.378  0.00  0.00    +0.000 NA
ATOM     12  C   UNL     1       1.694   4.531  18.194  0.00  0.00    +0.000 C 
ATOM     13  C   UNL     1       1.575   4.015  19.634  0.00  0.00    +0.000 C 
ATOM     14  C   UNL     1       2.278   2.676  19.888  0.00  0.00    +0.000 C 
ATOM     15  C   UNL     1       3.806   2.696  19.766  0.00  0.00    +0.000 C 
ATOM     16  C   UNL     1       4.296   2.941  18.335  0.00  0.00    +0.000 C 
ATOM     17  H   UNL     1       8.777   8.199  16.969  0.00  0.00    +0.000 HD
ATOM     18  H   UNL     1       7.417   9.262  16.839  0.00  0.00    +0.000 HD
ATOM     19  H   UNL     1       8.471   4.104  18.032  0.00  0.00    +0.000 HD
ATOM     20  H   UNL     1       7.064   3.228  18.433  0.00  0.00    +0.000 HD
ENDROOT
TORSDOF 0
ENDMDL
