MODEL 1
REMARK VINA RESULT:      -8.1      0.000      0.000
REMARK  Name = 
REMARK  9 active torsions:
REMARK  status: ('A' for Active; 'I' for Inactive)
REMARK    1  A    between atoms: C_1  and  C_2
REMARK    2  A    between atoms: C_5  and  C_6
REMARK    3  A    between atoms: C_11  and  N_12
REMARK    4  A    between atoms: C_13  and  C_14
REMARK    5  A    between atoms: C_17  and  S_18
REMARK    6  A    between atoms: S_18  and  C_19
REMARK    7  A    between atoms: C_19  and  C_20
REMARK    8  A    between atoms: N_22  and  C_23
REMARK    9  A    between atoms: C_30  and  C_31
REMARK                            x       y       z     vdW  Elec       q    Type
REMARK                         _______ _______ _______ _____ _____    ______ ____
ROOT
ATOM      1  N   UNL     1      -0.332  12.909  20.403  0.00  0.00    +0.000 N 
ATOM      2  C   UNL     1       0.614  13.832  19.946  0.00  0.00    +0.000 A 
ATOM      3  C   UNL     1       0.379  15.076  19.167  0.00  0.00    +0.000 C 
ATOM      4  N   UNL     1       1.823  13.432  20.301  0.00  0.00    +0.000 NA
ATOM      5  N   UNL     1       1.710  12.287  21.032  0.00  0.00    +0.000 NA
ATOM      6  C   UNL     1       0.438  11.987  21.116  0.00  0.00    +0.000 A 
ENDROOT
BRANCH   1  17
ATOM      7  C   UNL     1      -4.939  14.111  22.032  0.00  0.00    +0.000 C 
ATOM      8  C   UNL     1      -3.987  13.464  21.053  0.00  0.00    +0.000 A 
ATOM      9  C   UNL     1      -4.539  12.665  20.041  0.00  0.00    +0.000 A 
ATOM     10  C   UNL     1      -3.766  11.975  19.095  0.00  0.00    +0.000 A 
ATOM     11  C   UNL     1      -4.366  11.139  18.104  0.00  0.00    +0.000 A 
ATOM     12  C   UNL     1      -5.853  11.027  17.863  0.00  0.00    +0.000 C 
ATOM     13  C   UNL     1      -3.560  10.359  17.267  0.00  0.00    +0.000 A 
ATOM     14  C   UNL     1      -2.190  10.524  17.275  0.00  0.00    +0.000 A 
ATOM     15  C   UNL     1      -1.611  11.445  18.149  0.00  0.00    +0.000 A 
ATOM     16  C   UNL     1      -2.350  12.115  19.165  0.00  0.00    +0.000 A 
ATOM     17  C   UNL     1      -1.764  12.915  20.230  0.00  0.00    +0.000 A 
ATOM     18  C   UNL     1      -2.586  13.588  21.175  0.00  0.00    +0.000 A 
ATOM     19  C   UNL     1      -2.080  14.389  22.352  0.00  0.00    +0.000 C 
ENDBRANCH   1  17
BRANCH   6  20
ATOM     20  S   UNL     1      -0.204  10.714  22.120  0.00  0.00    +0.000 S 
BRANCH  20  21
ATOM     21  C   UNL     1       1.161   9.519  22.186  0.00  0.00    +0.000 C 
BRANCH  21  22
ATOM     22  C   UNL     1       0.864   8.225  21.427  0.00  0.00    +0.000 C 
ATOM     23  O   UNL     1      -0.310   7.900  21.221  0.00  0.00    +0.000 OA
ATOM     24  N   UNL     1       1.968   7.531  20.965  0.00  0.00    +0.000 N 
ATOM     25  H   UNL     1       2.864   7.796  21.373  0.00  0.00    +0.000 HD
BRANCH  24  26
ATOM     26  C   UNL     1       1.980   6.362  20.166  0.00  0.00    +0.000 A 
ATOM     27  C   UNL     1       1.711   5.093  20.689  0.00  0.00    +0.000 A 
ATOM     28  C   UNL     1       1.769   3.955  19.877  0.00  0.00    +0.000 A 
ATOM     29  C   UNL     1       2.092   4.070  18.530  0.00  0.00    +0.000 A 
ATOM     30  C   UNL     1       2.328   5.327  17.982  0.00  0.00    +0.000 A 
ATOM     31  C   UNL     1       2.260   6.467  18.790  0.00  0.00    +0.000 A 
ATOM     32 BR   UNL     1       2.584   8.154  17.971  0.00  0.00    +0.000 Br
ENDBRANCH  24  26
ENDBRANCH  21  22
ENDBRANCH  20  21
ENDBRANCH   6  20
TORSDOF 5
ENDMDL
MODEL 2
REMARK VINA RESULT:      -7.9      1.635      3.216
REMARK  Name = 
REMARK  9 active torsions:
REMARK  status: ('A' for Active; 'I' for Inactive)
REMARK    1  A    between atoms: C_1  and  C_2
REMARK    2  A    between atoms: C_5  and  C_6
REMARK    3  A    between atoms: C_11  and  N_12
REMARK    4  A    between atoms: C_13  and  C_14
REMARK    5  A    between atoms: C_17  and  S_18
REMARK    6  A    between atoms: S_18  and  C_19
REMARK    7  A    between atoms: C_19  and  C_20
REMARK    8  A    between atoms: N_22  and  C_23
REMARK    9  A    between atoms: C_30  and  C_31
REMARK                            x       y       z     vdW  Elec       q    Type
REMARK                         _______ _______ _______ _____ _____    ______ ____
ROOT
ATOM      1  N   UNL     1      -0.536  11.751  20.075  0.00  0.00    +0.000 N 
ATOM      2  C   UNL     1       0.142  12.965  20.219  0.00  0.00    +0.000 A 
ATOM      3  C   UNL     1      -0.212  14.287  19.638  0.00  0.00    +0.000 C 
ATOM      4  N   UNL     1       1.214  12.782  20.971  0.00  0.00    +0.000 NA
ATOM      5  N   UNL     1       1.246  11.482  21.380  0.00  0.00    +0.000 NA
ATOM      6  C   UNL     1       0.203  10.874  20.875  0.00  0.00    +0.000 A 
ENDROOT
BRANCH   1  17
ATOM      7  C   UNL     1      -2.820   9.797  16.038  0.00  0.00    +0.000 C 
ATOM      8  C   UNL     1      -2.819  10.554  17.346  0.00  0.00    +0.000 A 
ATOM      9  C   UNL     1      -4.015  11.172  17.740  0.00  0.00    +0.000 A 
ATOM     10  C   UNL     1      -4.138  11.939  18.909  0.00  0.00    +0.000 A 
ATOM     11  C   UNL     1      -5.365  12.586  19.253  0.00  0.00    +0.000 A 
ATOM     12  C   UNL     1      -6.669  12.401  18.515  0.00  0.00    +0.000 C 
ATOM     13  C   UNL     1      -5.412  13.454  20.350  0.00  0.00    +0.000 A 
ATOM     14  C   UNL     1      -4.332  13.552  21.202  0.00  0.00    +0.000 A 
ATOM     15  C   UNL     1      -3.178  12.811  20.943  0.00  0.00    +0.000 A 
ATOM     16  C   UNL     1      -2.989  12.074  19.740  0.00  0.00    +0.000 A 
ATOM     17  C   UNL     1      -1.734  11.463  19.326  0.00  0.00    +0.000 A 
ATOM     18  C   UNL     1      -1.652  10.704  18.126  0.00  0.00    +0.000 A 
ATOM     19  C   UNL     1      -0.389  10.084  17.576  0.00  0.00    +0.000 C 
ENDBRANCH   1  17
BRANCH   6  20
ATOM     20  S   UNL     1      -0.281   9.250  21.285  0.00  0.00    +0.000 S 
BRANCH  20  21
ATOM     21  C   UNL     1       1.306   8.406  21.543  0.00  0.00    +0.000 C 
BRANCH  21  22
ATOM     22  C   UNL     1       1.830   7.717  20.282  0.00  0.00    +0.000 C 
ATOM     23  O   UNL     1       1.825   8.329  19.210  0.00  0.00    +0.000 OA
ATOM     24  N   UNL     1       2.338   6.442  20.461  0.00  0.00    +0.000 N 
ATOM     25  H   UNL     1       2.098   5.985  21.339  0.00  0.00    +0.000 HD
BRANCH  24  26
ATOM     26  C   UNL     1       2.961   5.618  19.491  0.00  0.00    +0.000 A 
ATOM     27  C   UNL     1       4.095   6.024  18.779  0.00  0.00    +0.000 A 
ATOM     28  C   UNL     1       4.661   5.200  17.802  0.00  0.00    +0.000 A 
ATOM     29  C   UNL     1       4.104   3.957  17.522  0.00  0.00    +0.000 A 
ATOM     30  C   UNL     1       2.997   3.519  18.244  0.00  0.00    +0.000 A 
ATOM     31  C   UNL     1       2.436   4.338  19.230  0.00  0.00    +0.000 A 
ATOM     32 BR   UNL     1       0.930   3.671  20.183  0.00  0.00    +0.000 Br
ENDBRANCH  24  26
ENDBRANCH  21  22
ENDBRANCH  20  21
ENDBRANCH   6  20
TORSDOF 5
ENDMDL
MODEL 3
REMARK VINA RESULT:      -7.8      3.139      7.509
REMARK  Name = 
REMARK  9 active torsions:
REMARK  status: ('A' for Active; 'I' for Inactive)
REMARK    1  A    between atoms: C_1  and  C_2
REMARK    2  A    between atoms: C_5  and  C_6
REMARK    3  A    between atoms: C_11  and  N_12
REMARK    4  A    between atoms: C_13  and  C_14
REMARK    5  A    between atoms: C_17  and  S_18
REMARK    6  A    between atoms: S_18  and  C_19
REMARK    7  A    between atoms: C_19  and  C_20
REMARK    8  A    between atoms: N_22  and  C_23
REMARK    9  A    between atoms: C_30  and  C_31
REMARK                            x       y       z     vdW  Elec       q    Type
REMARK                         _______ _______ _______ _____ _____    ______ ____
ROOT
ATOM      1  N   UNL     1      -0.052  11.526  19.157  0.00  0.00    +0.000 N 
ATOM      2  C   UNL     1       0.706  12.680  18.935  0.00  0.00    +0.000 A 
ATOM      3  C   UNL     1       2.051  13.011  19.477  0.00  0.00    +0.000 C 
ATOM      4  N   UNL     1       0.033  13.502  18.147  0.00  0.00    +0.000 NA
ATOM      5  N   UNL     1      -1.139  12.905  17.789  0.00  0.00    +0.000 NA
ATOM      6  C   UNL     1      -1.184  11.729  18.362  0.00  0.00    +0.000 A 
ENDROOT
BRANCH   1  17
ATOM      7  C   UNL     1       0.124   9.231  23.632  0.00  0.00    +0.000 C 
ATOM      8  C   UNL     1       0.382   9.296  22.144  0.00  0.00    +0.000 A 
ATOM      9  C   UNL     1       1.143   8.266  21.572  0.00  0.00    +0.000 A 
ATOM     10  C   UNL     1       1.491   8.228  20.212  0.00  0.00    +0.000 A 
ATOM     11  C   UNL     1       2.302   7.181  19.677  0.00  0.00    +0.000 A 
ATOM     12  C   UNL     1       2.734   5.954  20.442  0.00  0.00    +0.000 C 
ATOM     13  C   UNL     1       2.742   7.249  18.350  0.00  0.00    +0.000 A 
ATOM     14  C   UNL     1       2.256   8.228  17.508  0.00  0.00    +0.000 A 
ATOM     15  C   UNL     1       1.352   9.172  17.997  0.00  0.00    +0.000 A 
ATOM     16  C   UNL     1       1.025   9.285  19.378  0.00  0.00    +0.000 A 
ATOM     17  C   UNL     1       0.262  10.375  19.967  0.00  0.00    +0.000 A 
ATOM     18  C   UNL     1      -0.057  10.378  21.352  0.00  0.00    +0.000 A 
ATOM     19  C   UNL     1      -0.787  11.488  22.073  0.00  0.00    +0.000 C 
ENDBRANCH   1  17
BRANCH   6  20
ATOM     20  S   UNL     1      -2.405  10.526  18.039  0.00  0.00    +0.000 S 
BRANCH  20  21
ATOM     21  C   UNL     1      -3.561  11.403  16.947  0.00  0.00    +0.000 C 
BRANCH  21  22
ATOM     22  C   UNL     1      -4.788  11.944  17.684  0.00  0.00    +0.000 C 
ATOM     23  O   UNL     1      -5.728  12.411  17.034  0.00  0.00    +0.000 OA
ATOM     24  N   UNL     1      -4.771  11.807  19.061  0.00  0.00    +0.000 N 
ATOM     25  H   UNL     1      -3.866  11.596  19.477  0.00  0.00    +0.000 HD
BRANCH  24  26
ATOM     26  C   UNL     1      -5.803  12.137  19.973  0.00  0.00    +0.000 A 
ATOM     27  C   UNL     1      -5.854  13.367  20.636  0.00  0.00    +0.000 A 
ATOM     28  C   UNL     1      -6.867  13.645  21.559  0.00  0.00    +0.000 A 
ATOM     29  C   UNL     1      -7.848  12.697  21.831  0.00  0.00    +0.000 A 
ATOM     30  C   UNL     1      -7.836  11.480  21.155  0.00  0.00    +0.000 A 
ATOM     31  C   UNL     1      -6.829  11.205  20.224  0.00  0.00    +0.000 A 
ATOM     32 BR   UNL     1      -6.882   9.525  19.332  0.00  0.00    +0.000 Br
ENDBRANCH  24  26
ENDBRANCH  21  22
ENDBRANCH  20  21
ENDBRANCH   6  20
TORSDOF 5
ENDMDL
MODEL 4
REMARK VINA RESULT:      -7.7      1.659      1.931
REMARK  Name = 
REMARK  9 active torsions:
REMARK  status: ('A' for Active; 'I' for Inactive)
REMARK    1  A    between atoms: C_1  and  C_2
REMARK    2  A    between atoms: C_5  and  C_6
REMARK    3  A    between atoms: C_11  and  N_12
REMARK    4  A    between atoms: C_13  and  C_14
REMARK    5  A    between atoms: C_17  and  S_18
REMARK    6  A    between atoms: S_18  and  C_19
REMARK    7  A    between atoms: C_19  and  C_20
REMARK    8  A    between atoms: N_22  and  C_23
REMARK    9  A    between atoms: C_30  and  C_31
REMARK                            x       y       z     vdW  Elec       q    Type
REMARK                         _______ _______ _______ _____ _____    ______ ____
ROOT
ATOM      1  N   UNL     1      -0.308  12.310  19.548  0.00  0.00    +0.000 N 
ATOM      2  C   UNL     1       0.613  13.301  19.197  0.00  0.00    +0.000 A 
ATOM      3  C   UNL     1       0.351  14.738  18.917  0.00  0.00    +0.000 C 
ATOM      4  N   UNL     1       1.822  12.771  19.126  0.00  0.00    +0.000 NA
ATOM      5  N   UNL     1       1.745  11.455  19.473  0.00  0.00    +0.000 NA
ATOM      6  C   UNL     1       0.494  11.182  19.747  0.00  0.00    +0.000 A 
ENDROOT
BRANCH   1  17
ATOM      7  C   UNL     1      -4.329  13.158  22.454  0.00  0.00    +0.000 C 
ATOM      8  C   UNL     1      -3.672  12.785  21.145  0.00  0.00    +0.000 A 
ATOM      9  C   UNL     1      -4.501  12.330  20.109  0.00  0.00    +0.000 A 
ATOM     10  C   UNL     1      -4.015  11.912  18.860  0.00  0.00    +0.000 A 
ATOM     11  C   UNL     1      -4.890  11.416  17.845  0.00  0.00    +0.000 A 
ATOM     12  C   UNL     1      -6.397  11.431  17.930  0.00  0.00    +0.000 C 
ATOM     13  C   UNL     1      -4.358  10.880  16.666  0.00  0.00    +0.000 A 
ATOM     14  C   UNL     1      -3.008  10.987  16.404  0.00  0.00    +0.000 A 
ATOM     15  C   UNL     1      -2.170  11.598  17.338  0.00  0.00    +0.000 A 
ATOM     16  C   UNL     1      -2.609  11.976  18.639  0.00  0.00    +0.000 A 
ATOM     17  C   UNL     1      -1.737  12.416  19.717  0.00  0.00    +0.000 A 
ATOM     18  C   UNL     1      -2.272  12.819  20.971  0.00  0.00    +0.000 A 
ATOM     19  C   UNL     1      -1.454  13.232  22.172  0.00  0.00    +0.000 C 
ENDBRANCH   1  17
BRANCH   6  20
ATOM     20  S   UNL     1      -0.056   9.673  20.425  0.00  0.00    +0.000 S 
BRANCH  20  21
ATOM     21  C   UNL     1       1.493   8.781  20.741  0.00  0.00    +0.000 C 
BRANCH  21  22
ATOM     22  C   UNL     1       1.902   7.863  19.588  0.00  0.00    +0.000 C 
ATOM     23  O   UNL     1       1.717   8.232  18.424  0.00  0.00    +0.000 OA
ATOM     24  N   UNL     1       2.521   6.680  19.951  0.00  0.00    +0.000 N 
ATOM     25  H   UNL     1       2.429   6.410  20.929  0.00  0.00    +0.000 HD
BRANCH  24  26
ATOM     26  C   UNL     1       3.075   5.698  19.094  0.00  0.00    +0.000 A 
ATOM     27  C   UNL     1       4.166   5.960  18.260  0.00  0.00    +0.000 A 
ATOM     28  C   UNL     1       4.663   4.977  17.397  0.00  0.00    +0.000 A 
ATOM     29  C   UNL     1       4.078   3.716  17.358  0.00  0.00    +0.000 A 
ATOM     30  C   UNL     1       3.013   3.424  18.206  0.00  0.00    +0.000 A 
ATOM     31  C   UNL     1       2.522   4.403  19.076  0.00  0.00    +0.000 A 
ATOM     32 BR   UNL     1       1.071   3.929  20.213  0.00  0.00    +0.000 Br
ENDBRANCH  24  26
ENDBRANCH  21  22
ENDBRANCH  20  21
ENDBRANCH   6  20
TORSDOF 5
ENDMDL
MODEL 5
REMARK VINA RESULT:      -7.6      1.939      3.514
REMARK  Name = 
REMARK  9 active torsions:
REMARK  status: ('A' for Active; 'I' for Inactive)
REMARK    1  A    between atoms: C_1  and  C_2
REMARK    2  A    between atoms: C_5  and  C_6
REMARK    3  A    between atoms: C_11  and  N_12
REMARK    4  A    between atoms: C_13  and  C_14
REMARK    5  A    between atoms: C_17  and  S_18
REMARK    6  A    between atoms: S_18  and  C_19
REMARK    7  A    between atoms: C_19  and  C_20
REMARK    8  A    between atoms: N_22  and  C_23
REMARK    9  A    between atoms: C_30  and  C_31
REMARK                            x       y       z     vdW  Elec       q    Type
REMARK                         _______ _______ _______ _____ _____    ______ ____
ROOT
ATOM      1  N   UNL     1       0.073  12.334  19.047  0.00  0.00    +0.000 N 
ATOM      2  C   UNL     1       0.787  13.487  18.703  0.00  0.00    +0.000 A 
ATOM      3  C   UNL     1       0.315  14.897  18.726  0.00  0.00    +0.000 C 
ATOM      4  N   UNL     1       2.005  13.149  18.317  0.00  0.00    +0.000 NA
ATOM      5  N   UNL     1       2.147  11.799  18.441  0.00  0.00    +0.000 NA
ATOM      6  C   UNL     1       1.018  11.315  18.895  0.00  0.00    +0.000 A 
ENDROOT
BRANCH   1  17
ATOM      7  C   UNL     1      -4.807  11.571  18.085  0.00  0.00    +0.000 C 
ATOM      8  C   UNL     1      -3.653  11.885  19.009  0.00  0.00    +0.000 A 
ATOM      9  C   UNL     1      -3.959  12.269  20.323  0.00  0.00    +0.000 A 
ATOM     10  C   UNL     1      -2.985  12.629  21.267  0.00  0.00    +0.000 A 
ATOM     11  C   UNL     1      -3.342  13.053  22.584  0.00  0.00    +0.000 A 
ATOM     12  C   UNL     1      -4.742  13.016  23.148  0.00  0.00    +0.000 C 
ATOM     13  C   UNL     1      -2.356  13.535  23.453  0.00  0.00    +0.000 A 
ATOM     14  C   UNL     1      -1.023  13.438  23.109  0.00  0.00    +0.000 A 
ATOM     15  C   UNL     1      -0.666  12.893  21.875  0.00  0.00    +0.000 A 
ATOM     16  C   UNL     1      -1.619  12.578  20.866  0.00  0.00    +0.000 A 
ATOM     17  C   UNL     1      -1.292  12.211  19.497  0.00  0.00    +0.000 A 
ATOM     18  C   UNL     1      -2.312  11.867  18.568  0.00  0.00    +0.000 A 
ATOM     19  C   UNL     1      -2.086  11.534  17.112  0.00  0.00    +0.000 C 
ENDBRANCH   1  17
BRANCH   6  20
ATOM     20  S   UNL     1       0.791   9.661  19.398  0.00  0.00    +0.000 S 
BRANCH  20  21
ATOM     21  C   UNL     1       1.959   8.753  18.346  0.00  0.00    +0.000 C 
BRANCH  21  22
ATOM     22  C   UNL     1       2.223   7.327  18.835  0.00  0.00    +0.000 C 
ATOM     23  O   UNL     1       2.209   7.090  20.047  0.00  0.00    +0.000 OA
ATOM     24  N   UNL     1       2.403   6.376  17.846  0.00  0.00    +0.000 N 
ATOM     25  H   UNL     1       2.591   6.734  16.911  0.00  0.00    +0.000 HD
BRANCH  24  26
ATOM     26  C   UNL     1       2.574   4.980  18.013  0.00  0.00    +0.000 A 
ATOM     27  C   UNL     1       1.493   4.094  18.072  0.00  0.00    +0.000 A 
ATOM     28  C   UNL     1       1.697   2.726  18.276  0.00  0.00    +0.000 A 
ATOM     29  C   UNL     1       2.985   2.222  18.423  0.00  0.00    +0.000 A 
ATOM     30  C   UNL     1       4.076   3.082  18.333  0.00  0.00    +0.000 A 
ATOM     31  C   UNL     1       3.874   4.449  18.118  0.00  0.00    +0.000 A 
ATOM     32 BR   UNL     1       5.412   5.563  17.995  0.00  0.00    +0.000 Br
ENDBRANCH  24  26
ENDBRANCH  21  22
ENDBRANCH  20  21
ENDBRANCH   6  20
TORSDOF 5
ENDMDL
MODEL 6
REMARK VINA RESULT:      -7.6      1.904      3.520
REMARK  Name = 
REMARK  9 active torsions:
REMARK  status: ('A' for Active; 'I' for Inactive)
REMARK    1  A    between atoms: C_1  and  C_2
REMARK    2  A    between atoms: C_5  and  C_6
REMARK    3  A    between atoms: C_11  and  N_12
REMARK    4  A    between atoms: C_13  and  C_14
REMARK    5  A    between atoms: C_17  and  S_18
REMARK    6  A    between atoms: S_18  and  C_19
REMARK    7  A    between atoms: C_19  and  C_20
REMARK    8  A    between atoms: N_22  and  C_23
REMARK    9  A    between atoms: C_30  and  C_31
REMARK                            x       y       z     vdW  Elec       q    Type
REMARK                         _______ _______ _______ _____ _____    ______ ____
ROOT
ATOM      1  N   UNL     1      -0.564  12.122  19.220  0.00  0.00    +0.000 N 
ATOM      2  C   UNL     1       0.251  13.216  18.914  0.00  0.00    +0.000 A 
ATOM      3  C   UNL     1      -0.155  14.630  18.701  0.00  0.00    +0.000 C 
ATOM      4  N   UNL     1       1.507  12.813  18.817  0.00  0.00    +0.000 NA
ATOM      5  N   UNL     1       1.564  11.481  19.101  0.00  0.00    +0.000 NA
ATOM      6  C   UNL     1       0.348  11.072  19.364  0.00  0.00    +0.000 A 
ENDROOT
BRANCH   1  17
ATOM      7  C   UNL     1      -5.193  11.498  17.344  0.00  0.00    +0.000 C 
ATOM      8  C   UNL     1      -4.228  11.817  18.463  0.00  0.00    +0.000 A 
ATOM      9  C   UNL     1      -4.767  12.283  19.672  0.00  0.00    +0.000 A 
ATOM     10  C   UNL     1      -3.981  12.654  20.774  0.00  0.00    +0.000 A 
ATOM     11  C   UNL     1      -4.567  13.162  21.973  0.00  0.00    +0.000 A 
ATOM     12  C   UNL     1      -6.051  13.210  22.249  0.00  0.00    +0.000 C 
ATOM     13  C   UNL     1      -3.748  13.651  22.998  0.00  0.00    +0.000 A 
ATOM     14  C   UNL     1      -2.381  13.484  22.930  0.00  0.00    +0.000 A 
ATOM     15  C   UNL     1      -1.815  12.860  21.817  0.00  0.00    +0.000 A 
ATOM     16  C   UNL     1      -2.567  12.528  20.654  0.00  0.00    +0.000 A 
ATOM     17  C   UNL     1      -1.995  12.076  19.395  0.00  0.00    +0.000 A 
ATOM     18  C   UNL     1      -2.829  11.722  18.299  0.00  0.00    +0.000 A 
ATOM     19  C   UNL     1      -2.338  11.303  16.933  0.00  0.00    +0.000 C 
ENDBRANCH   1  17
BRANCH   6  20
ATOM     20  S   UNL     1      -0.043   9.486  19.972  0.00  0.00    +0.000 S 
BRANCH  20  21
ATOM     21  C   UNL     1       1.588   8.723  20.200  0.00  0.00    +0.000 C 
BRANCH  21  22
ATOM     22  C   UNL     1       2.063   7.945  18.971  0.00  0.00    +0.000 C 
ATOM     23  O   UNL     1       1.789   8.367  17.843  0.00  0.00    +0.000 OA
ATOM     24  N   UNL     1       2.835   6.826  19.230  0.00  0.00    +0.000 N 
ATOM     25  H   UNL     1       2.814   6.481  20.188  0.00  0.00    +0.000 HD
BRANCH  24  26
ATOM     26  C   UNL     1       3.472   5.982  18.288  0.00  0.00    +0.000 A 
ATOM     27  C   UNL     1       4.582   6.393  17.542  0.00  0.00    +0.000 A 
ATOM     28  C   UNL     1       5.162   5.546  16.593  0.00  0.00    +0.000 A 
ATOM     29  C   UNL     1       4.643   4.274  16.376  0.00  0.00    +0.000 A 
ATOM     30  C   UNL     1       3.561   3.832  17.132  0.00  0.00    +0.000 A 
ATOM     31  C   UNL     1       2.986   4.675  18.090  0.00  0.00    +0.000 A 
ATOM     32 BR   UNL     1       1.516   4.001  19.093  0.00  0.00    +0.000 Br
ENDBRANCH  24  26
ENDBRANCH  21  22
ENDBRANCH  20  21
ENDBRANCH   6  20
TORSDOF 5
ENDMDL
MODEL 7
REMARK VINA RESULT:      -7.5      1.974      2.210
REMARK  Name = 
REMARK  9 active torsions:
REMARK  status: ('A' for Active; 'I' for Inactive)
REMARK    1  A    between atoms: C_1  and  C_2
REMARK    2  A    between atoms: C_5  and  C_6
REMARK    3  A    between atoms: C_11  and  N_12
REMARK    4  A    between atoms: C_13  and  C_14
REMARK    5  A    between atoms: C_17  and  S_18
REMARK    6  A    between atoms: S_18  and  C_19
REMARK    7  A    between atoms: C_19  and  C_20
REMARK    8  A    between atoms: N_22  and  C_23
REMARK    9  A    between atoms: C_30  and  C_31
REMARK                            x       y       z     vdW  Elec       q    Type
REMARK                         _______ _______ _______ _____ _____    ______ ____
ROOT
ATOM      1  N   UNL     1       0.347  12.568  18.956  0.00  0.00    +0.000 N 
ATOM      2  C   UNL     1       1.138  13.680  18.652  0.00  0.00    +0.000 A 
ATOM      3  C   UNL     1       0.751  15.116  18.679  0.00  0.00    +0.000 C 
ATOM      4  N   UNL     1       2.347  13.275  18.302  0.00  0.00    +0.000 NA
ATOM      5  N   UNL     1       2.404  11.918  18.413  0.00  0.00    +0.000 NA
ATOM      6  C   UNL     1       1.234  11.497  18.822  0.00  0.00    +0.000 A 
ENDROOT
BRANCH   1  17
ATOM      7  C   UNL     1      -3.201  12.913  22.509  0.00  0.00    +0.000 C 
ATOM      8  C   UNL     1      -2.736  12.647  21.096  0.00  0.00    +0.000 A 
ATOM      9  C   UNL     1      -3.677  12.138  20.188  0.00  0.00    +0.000 A 
ATOM     10  C   UNL     1      -3.366  11.808  18.860  0.00  0.00    +0.000 A 
ATOM     11  C   UNL     1      -4.345  11.254  17.978  0.00  0.00    +0.000 A 
ATOM     12  C   UNL     1      -5.811  11.110  18.307  0.00  0.00    +0.000 C 
ATOM     13  C   UNL     1      -3.966  10.809  16.706  0.00  0.00    +0.000 A 
ATOM     14  C   UNL     1      -2.695  11.063  16.234  0.00  0.00    +0.000 A 
ATOM     15  C   UNL     1      -1.777  11.730  17.046  0.00  0.00    +0.000 A 
ATOM     16  C   UNL     1      -2.029  12.024  18.416  0.00  0.00    +0.000 A 
ATOM     17  C   UNL     1      -1.038  12.521  19.358  0.00  0.00    +0.000 A 
ATOM     18  C   UNL     1      -1.394  12.831  20.699  0.00  0.00    +0.000 A 
ATOM     19  C   UNL     1      -0.432  13.292  21.769  0.00  0.00    +0.000 C 
ENDBRANCH   1  17
BRANCH   6  20
ATOM     20  S   UNL     1       0.893   9.853  19.293  0.00  0.00    +0.000 S 
BRANCH  20  21
ATOM     21  C   UNL     1       2.002   8.886  18.229  0.00  0.00    +0.000 C 
BRANCH  21  22
ATOM     22  C   UNL     1       2.237   7.465  18.744  0.00  0.00    +0.000 C 
ATOM     23  O   UNL     1       2.141   7.234  19.953  0.00  0.00    +0.000 OA
ATOM     24  N   UNL     1       2.489   6.509  17.775  0.00  0.00    +0.000 N 
ATOM     25  H   UNL     1       2.739   6.862  16.854  0.00  0.00    +0.000 HD
BRANCH  24  26
ATOM     26  C   UNL     1       2.653   5.115  17.963  0.00  0.00    +0.000 A 
ATOM     27  C   UNL     1       1.571   4.229  17.997  0.00  0.00    +0.000 A 
ATOM     28  C   UNL     1       1.768   2.863  18.222  0.00  0.00    +0.000 A 
ATOM     29  C   UNL     1       3.050   2.361  18.414  0.00  0.00    +0.000 A 
ATOM     30  C   UNL     1       4.144   3.219  18.348  0.00  0.00    +0.000 A 
ATOM     31  C   UNL     1       3.949   4.584  18.113  0.00  0.00    +0.000 A 
ATOM     32 BR   UNL     1       5.491   5.697  18.027  0.00  0.00    +0.000 Br
ENDBRANCH  24  26
ENDBRANCH  21  22
ENDBRANCH  20  21
ENDBRANCH   6  20
TORSDOF 5
ENDMDL
MODEL 8
REMARK VINA RESULT:      -7.4      6.630     10.074
REMARK  Name = 
REMARK  9 active torsions:
REMARK  status: ('A' for Active; 'I' for Inactive)
REMARK    1  A    between atoms: C_1  and  C_2
REMARK    2  A    between atoms: C_5  and  C_6
REMARK    3  A    between atoms: C_11  and  N_12
REMARK    4  A    between atoms: C_13  and  C_14
REMARK    5  A    between atoms: C_17  and  S_18
REMARK    6  A    between atoms: S_18  and  C_19
REMARK    7  A    between atoms: C_19  and  C_20
REMARK    8  A    between atoms: N_22  and  C_23
REMARK    9  A    between atoms: C_30  and  C_31
REMARK                            x       y       z     vdW  Elec       q    Type
REMARK                         _______ _______ _______ _____ _____    ______ ____
ROOT
ATOM      1  N   UNL     1       5.660   4.984  16.846  0.00  0.00    +0.000 N 
ATOM      2  C   UNL     1       6.105   4.608  15.575  0.00  0.00    +0.000 A 
ATOM      3  C   UNL     1       5.288   4.290  14.374  0.00  0.00    +0.000 C 
ATOM      4  N   UNL     1       7.426   4.552  15.572  0.00  0.00    +0.000 NA
ATOM      5  N   UNL     1       7.884   4.932  16.798  0.00  0.00    +0.000 NA
ATOM      6  C   UNL     1       6.847   5.212  17.547  0.00  0.00    +0.000 A 
ENDROOT
BRANCH   1  17
ATOM      7  C   UNL     1       1.806   7.940  18.166  0.00  0.00    +0.000 C 
ATOM      8  C   UNL     1       2.470   6.592  18.000  0.00  0.00    +0.000 A 
ATOM      9  C   UNL     1       1.807   5.472  18.523  0.00  0.00    +0.000 A 
ATOM     10  C   UNL     1       2.334   4.172  18.475  0.00  0.00    +0.000 A 
ATOM     11  C   UNL     1       1.645   3.064  19.056  0.00  0.00    +0.000 A 
ATOM     12  C   UNL     1       0.250   3.127  19.630  0.00  0.00    +0.000 C 
ATOM     13  C   UNL     1       2.263   1.809  19.110  0.00  0.00    +0.000 A 
ATOM     14  C   UNL     1       3.456   1.595  18.451  0.00  0.00    +0.000 A 
ATOM     15  C   UNL     1       4.063   2.647  17.764  0.00  0.00    +0.000 A 
ATOM     16  C   UNL     1       3.597   3.990  17.841  0.00  0.00    +0.000 A 
ATOM     17  C   UNL     1       4.309   5.149  17.323  0.00  0.00    +0.000 A 
ATOM     18  C   UNL     1       3.743   6.451  17.405  0.00  0.00    +0.000 A 
ATOM     19  C   UNL     1       4.422   7.723  16.956  0.00  0.00    +0.000 C 
ENDBRANCH   1  17
BRANCH   6  20
ATOM     20  S   UNL     1       6.947   5.929  19.133  0.00  0.00    +0.000 S 
BRANCH  20  21
ATOM     21  C   UNL     1       8.531   6.816  19.080  0.00  0.00    +0.000 C 
BRANCH  21  22
ATOM     22  C   UNL     1       8.402   8.239  18.534  0.00  0.00    +0.000 C 
ATOM     23  O   UNL     1       7.662   8.454  17.569  0.00  0.00    +0.000 OA
ATOM     24  N   UNL     1       9.102   9.213  19.224  0.00  0.00    +0.000 N 
ATOM     25  H   UNL     1       9.821   8.879  19.862  0.00  0.00    +0.000 HD
BRANCH  24  26
ATOM     26  C   UNL     1       9.091  10.611  18.991  0.00  0.00    +0.000 A 
ATOM     27  C   UNL     1       9.105  11.157  17.703  0.00  0.00    +0.000 A 
ATOM     28  C   UNL     1       9.132  12.542  17.511  0.00  0.00    +0.000 A 
ATOM     29  C   UNL     1       9.144  13.402  18.604  0.00  0.00    +0.000 A 
ATOM     30  C   UNL     1       9.095  12.880  19.893  0.00  0.00    +0.000 A 
ATOM     31  C   UNL     1       9.057  11.495  20.087  0.00  0.00    +0.000 A 
ATOM     32 BR   UNL     1       8.982  10.852  21.876  0.00  0.00    +0.000 Br
ENDBRANCH  24  26
ENDBRANCH  21  22
ENDBRANCH  20  21
ENDBRANCH   6  20
TORSDOF 5
ENDMDL
MODEL 9
REMARK VINA RESULT:      -7.4      1.519      1.888
REMARK  Name = 
REMARK  9 active torsions:
REMARK  status: ('A' for Active; 'I' for Inactive)
REMARK    1  A    between atoms: C_1  and  C_2
REMARK    2  A    between atoms: C_5  and  C_6
REMARK    3  A    between atoms: C_11  and  N_12
REMARK    4  A    between atoms: C_13  and  C_14
REMARK    5  A    between atoms: C_17  and  S_18
REMARK    6  A    between atoms: S_18  and  C_19
REMARK    7  A    between atoms: C_19  and  C_20
REMARK    8  A    between atoms: N_22  and  C_23
REMARK    9  A    between atoms: C_30  and  C_31
REMARK                            x       y       z     vdW  Elec       q    Type
REMARK                         _______ _______ _______ _____ _____    ______ ____
ROOT
ATOM      1  N   UNL     1      -1.906  13.383  21.968  0.00  0.00    +0.000 N 
ATOM      2  C   UNL     1      -1.487  14.664  22.341  0.00  0.00    +0.000 A 
ATOM      3  C   UNL     1      -2.080  15.971  21.951  0.00  0.00    +0.000 C 
ATOM      4  N   UNL     1      -0.423  14.569  23.119  0.00  0.00    +0.000 NA
ATOM      5  N   UNL     1      -0.145  13.250  23.323  0.00  0.00    +0.000 NA
ATOM      6  C   UNL     1      -1.032  12.545  22.666  0.00  0.00    +0.000 A 
ENDROOT
BRANCH   1  17
ATOM      7  C   UNL     1      -6.779  12.322  21.291  0.00  0.00    +0.000 C 
ATOM      8  C   UNL     1      -5.351  12.445  20.811  0.00  0.00    +0.000 A 
ATOM      9  C   UNL     1      -5.056  11.970  19.524  0.00  0.00    +0.000 A 
ATOM     10  C   UNL     1      -3.764  11.985  18.974  0.00  0.00    +0.000 A 
ATOM     11  C   UNL     1      -3.499  11.454  17.675  0.00  0.00    +0.000 A 
ATOM     12  C   UNL     1      -4.558  10.977  16.711  0.00  0.00    +0.000 C 
ATOM     13  C   UNL     1      -2.180  11.361  17.216  0.00  0.00    +0.000 A 
ATOM     14  C   UNL     1      -1.154  11.938  17.935  0.00  0.00    +0.000 A 
ATOM     15  C   UNL     1      -1.433  12.581  19.142  0.00  0.00    +0.000 A 
ATOM     16  C   UNL     1      -2.712  12.532  19.764  0.00  0.00    +0.000 A 
ATOM     17  C   UNL     1      -3.001  12.999  21.112  0.00  0.00    +0.000 A 
ATOM     18  C   UNL     1      -4.323  12.952  21.633  0.00  0.00    +0.000 A 
ATOM     19  C   UNL     1      -4.717  13.352  23.036  0.00  0.00    +0.000 C 
ENDBRANCH   1  17
BRANCH   6  20
ATOM     20  S   UNL     1      -1.195  10.813  22.789  0.00  0.00    +0.000 S 
BRANCH  20  21
ATOM     21  C   UNL     1       0.458  10.216  22.334  0.00  0.00    +0.000 C 
BRANCH  21  22
ATOM     22  C   UNL     1       0.429   8.877  21.594  0.00  0.00    +0.000 C 
ATOM     23  O   UNL     1      -0.641   8.271  21.480  0.00  0.00    +0.000 OA
ATOM     24  N   UNL     1       1.631   8.468  21.044  0.00  0.00    +0.000 N 
ATOM     25  H   UNL     1       2.463   8.950  21.380  0.00  0.00    +0.000 HD
BRANCH  24  26
ATOM     26  C   UNL     1       1.866   7.326  20.240  0.00  0.00    +0.000 A 
ATOM     27  C   UNL     1       1.881   6.029  20.765  0.00  0.00    +0.000 A 
ATOM     28  C   UNL     1       2.155   4.927  19.949  0.00  0.00    +0.000 A 
ATOM     29  C   UNL     1       2.415   5.104  18.595  0.00  0.00    +0.000 A 
ATOM     30  C   UNL     1       2.370   6.382  18.045  0.00  0.00    +0.000 A 
ATOM     31  C   UNL     1       2.086   7.485  18.858  0.00  0.00    +0.000 A 
ATOM     32 BR   UNL     1       2.032   9.200  18.037  0.00  0.00    +0.000 Br
ENDBRANCH  24  26
ENDBRANCH  21  22
ENDBRANCH  20  21
ENDBRANCH   6  20
TORSDOF 5
ENDMDL
