MODEL 1
REMARK VINA RESULT:      -8.5      0.000      0.000
REMARK  Name = 
REMARK  5 active torsions:
REMARK  status: ('A' for Active; 'I' for Inactive)
REMARK    1  A    between atoms: C_4  and  C_5
REMARK    2  A    between atoms: C_10  and  N_11
REMARK    3  A    between atoms: C_12  and  C_14
REMARK    4  A    between atoms: C_16  and  C_17
REMARK    5  A    between atoms: C_27  and  N_28
REMARK                            x       y       z     vdW  Elec       q    Type
REMARK                         _______ _______ _______ _____ _____    ______ ____
ROOT
ATOM      1  N   UNL     1       3.796   6.802  18.157  0.00  0.00    +0.000 N 
ATOM      2  C   UNL     1       2.420   7.015  18.175  0.00  0.00    +0.000 C 
ATOM      3  O   UNL     1       1.628   6.524  17.375  0.00  0.00    +0.000 OA
ATOM      4  H   UNL     1       4.314   7.048  19.003  0.00  0.00    +0.000 HD
ENDROOT
BRANCH   1  10
ATOM      5  C   UNL     1       4.475   4.646  17.130  0.00  0.00    +0.000 A 
ATOM      6  C   UNL     1       5.165   4.026  16.060  0.00  0.00    +0.000 A 
ATOM      7  C   UNL     1       5.872   4.781  15.140  0.00  0.00    +0.000 A 
ATOM      8  N   UNL     1       5.953   6.114  15.191  0.00  0.00    +0.000 NA
ATOM      9  C   UNL     1       5.260   6.718  16.188  0.00  0.00    +0.000 A 
ATOM     10  C   UNL     1       4.495   6.062  17.163  0.00  0.00    +0.000 A 
BRANCH   5  14
ATOM     11  N   UNL     1       0.765   1.766  18.605  0.00  0.00    +0.000 N 
ATOM     12  C   UNL     1       1.970   2.427  18.844  0.00  0.00    +0.000 A 
ATOM     13  C   UNL     1       2.533   3.218  17.866  0.00  0.00    +0.000 A 
ATOM     14  C   UNL     1       3.775   3.786  18.123  0.00  0.00    +0.000 A 
ATOM     15  N   UNL     1       4.405   3.563  19.296  0.00  0.00    +0.000 NA
ATOM     16  C   UNL     1       3.767   2.775  20.177  0.00  0.00    +0.000 A 
ATOM     17  N   UNL     1       2.571   2.192  20.010  0.00  0.00    +0.000 NA
ATOM     18  H   UNL     1       0.031   2.382  18.278  0.00  0.00    +0.000 HD
ATOM     19  H   UNL     1       0.503   1.270  19.454  0.00  0.00    +0.000 HD
ENDBRANCH   5  14
ENDBRANCH   1  10
BRANCH   2  20
ATOM     20  C   UNL     1       1.898   7.855  19.307  0.00  0.00    +0.000 A 
ATOM     21  N   UNL     1       1.494   9.106  18.947  0.00  0.00    +0.000 NA
ATOM     22  C   UNL     1       0.927   9.895  19.892  0.00  0.00    +0.000 A 
ATOM     23  C   UNL     1       0.754   9.442  21.199  0.00  0.00    +0.000 A 
ATOM     24  C   UNL     1       1.195   8.167  21.553  0.00  0.00    +0.000 A 
ATOM     25  C   UNL     1       1.834   7.355  20.620  0.00  0.00    +0.000 A 
BRANCH  22  26
ATOM     26  C   UNL     1       0.521  11.235  19.436  0.00  0.00    +0.000 A 
ATOM     27  C   UNL     1       1.210  12.403  19.804  0.00  0.00    +0.000 A 
ATOM     28  F   UNL     1       2.278  12.344  20.613  0.00  0.00    +0.000 F 
ATOM     29  C   UNL     1       0.819  13.670  19.361  0.00  0.00    +0.000 A 
ATOM     30  C   UNL     1      -0.288  13.806  18.540  0.00  0.00    +0.000 A 
ATOM     31  C   UNL     1      -1.005  12.674  18.160  0.00  0.00    +0.000 A 
ATOM     32  C   UNL     1      -0.595  11.415  18.604  0.00  0.00    +0.000 A 
ATOM     33  F   UNL     1      -1.308  10.362  18.173  0.00  0.00    +0.000 F 
ENDBRANCH  22  26
BRANCH  25  34
ATOM     34  N   UNL     1       2.179   6.053  21.006  0.00  0.00    +0.000 N 
ATOM     35  H   UNL     1       1.562   5.311  20.699  0.00  0.00    +0.000 HD
ATOM     36  H   UNL     1       2.467   5.976  21.984  0.00  0.00    +0.000 HD
ENDBRANCH  25  34
ENDBRANCH   2  20
TORSDOF 5
ENDMDL
MODEL 2
REMARK VINA RESULT:      -8.5      0.069      1.486
REMARK  Name = 
REMARK  5 active torsions:
REMARK  status: ('A' for Active; 'I' for Inactive)
REMARK    1  A    between atoms: C_4  and  C_5
REMARK    2  A    between atoms: C_10  and  N_11
REMARK    3  A    between atoms: C_12  and  C_14
REMARK    4  A    between atoms: C_16  and  C_17
REMARK    5  A    between atoms: C_27  and  N_28
REMARK                            x       y       z     vdW  Elec       q    Type
REMARK                         _______ _______ _______ _____ _____    ______ ____
ROOT
ATOM      1  N   UNL     1       3.786   6.850  18.152  0.00  0.00    +0.000 N 
ATOM      2  C   UNL     1       2.411   7.075  18.160  0.00  0.00    +0.000 C 
ATOM      3  O   UNL     1       1.622   6.595  17.351  0.00  0.00    +0.000 OA
ATOM      4  H   UNL     1       4.298   7.088  19.004  0.00  0.00    +0.000 HD
ENDROOT
BRANCH   1  10
ATOM      5  C   UNL     1       4.466   4.692  17.130  0.00  0.00    +0.000 A 
ATOM      6  C   UNL     1       5.158   4.071  16.062  0.00  0.00    +0.000 A 
ATOM      7  C   UNL     1       5.868   4.823  15.143  0.00  0.00    +0.000 A 
ATOM      8  N   UNL     1       5.950   6.157  15.193  0.00  0.00    +0.000 NA
ATOM      9  C   UNL     1       5.255   6.762  16.188  0.00  0.00    +0.000 A 
ATOM     10  C   UNL     1       4.487   6.108  17.161  0.00  0.00    +0.000 A 
BRANCH   5  14
ATOM     11  N   UNL     1       0.776   1.772  18.579  0.00  0.00    +0.000 N 
ATOM     12  C   UNL     1       1.967   2.455  18.829  0.00  0.00    +0.000 A 
ATOM     13  C   UNL     1       2.534   3.243  17.851  0.00  0.00    +0.000 A 
ATOM     14  C   UNL     1       3.763   3.834  18.121  0.00  0.00    +0.000 A 
ATOM     15  N   UNL     1       4.375   3.636  19.308  0.00  0.00    +0.000 NA
ATOM     16  C   UNL     1       3.735   2.849  20.188  0.00  0.00    +0.000 A 
ATOM     17  N   UNL     1       2.551   2.245  20.009  0.00  0.00    +0.000 NA
ATOM     18  H   UNL     1       0.038   2.372  18.231  0.00  0.00    +0.000 HD
ATOM     19  H   UNL     1       0.508   1.284  19.429  0.00  0.00    +0.000 HD
ENDBRANCH   5  14
ENDBRANCH   1  10
BRANCH   2  20
ATOM     20  C   UNL     1       1.887   7.915  19.291  0.00  0.00    +0.000 A 
ATOM     21  N   UNL     1       1.485   9.166  18.930  0.00  0.00    +0.000 NA
ATOM     22  C   UNL     1       0.916   9.955  19.875  0.00  0.00    +0.000 A 
ATOM     23  C   UNL     1       0.739   9.501  21.180  0.00  0.00    +0.000 A 
ATOM     24  C   UNL     1       1.179   8.226  21.535  0.00  0.00    +0.000 A 
ATOM     25  C   UNL     1       1.820   7.414  20.603  0.00  0.00    +0.000 A 
BRANCH  22  26
ATOM     26  C   UNL     1       0.512  11.296  19.418  0.00  0.00    +0.000 A 
ATOM     27  C   UNL     1      -0.575  11.506  18.553  0.00  0.00    +0.000 A 
ATOM     28  F   UNL     1      -1.294  10.474  18.088  0.00  0.00    +0.000 F 
ATOM     29  C   UNL     1      -0.954  12.784  18.129  0.00  0.00    +0.000 A 
ATOM     30  C   UNL     1      -0.242  13.894  18.553  0.00  0.00    +0.000 A 
ATOM     31  C   UNL     1       0.848  13.727  19.404  0.00  0.00    +0.000 A 
ATOM     32  C   UNL     1       1.207  12.445  19.825  0.00  0.00    +0.000 A 
ATOM     33  F   UNL     1       2.245  12.357  20.672  0.00  0.00    +0.000 F 
ENDBRANCH  22  26
BRANCH  25  34
ATOM     34  N   UNL     1       2.163   6.112  20.989  0.00  0.00    +0.000 N 
ATOM     35  H   UNL     1       1.921   5.369  20.344  0.00  0.00    +0.000 HD
ATOM     36  H   UNL     1       1.946   5.901  21.966  0.00  0.00    +0.000 HD
ENDBRANCH  25  34
ENDBRANCH   2  20
TORSDOF 5
ENDMDL
MODEL 3
REMARK VINA RESULT:      -8.5      2.543      4.417
REMARK  Name = 
REMARK  5 active torsions:
REMARK  status: ('A' for Active; 'I' for Inactive)
REMARK    1  A    between atoms: C_4  and  C_5
REMARK    2  A    between atoms: C_10  and  N_11
REMARK    3  A    between atoms: C_12  and  C_14
REMARK    4  A    between atoms: C_16  and  C_17
REMARK    5  A    between atoms: C_27  and  N_28
REMARK                            x       y       z     vdW  Elec       q    Type
REMARK                         _______ _______ _______ _____ _____    ______ ____
ROOT
ATOM      1  N   UNL     1       4.285   5.073  16.820  0.00  0.00    +0.000 N 
ATOM      2  C   UNL     1       4.168   4.273  17.954  0.00  0.00    +0.000 C 
ATOM      3  O   UNL     1       4.874   3.297  18.196  0.00  0.00    +0.000 OA
ATOM      4  H   UNL     1       3.826   5.985  16.848  0.00  0.00    +0.000 HD
ENDROOT
BRANCH   1  10
ATOM      5  C   UNL     1       6.537   5.212  15.782  0.00  0.00    +0.000 A 
ATOM      6  C   UNL     1       7.332   4.865  14.664  0.00  0.00    +0.000 A 
ATOM      7  C   UNL     1       6.774   4.240  13.562  0.00  0.00    +0.000 A 
ATOM      8  N   UNL     1       5.478   3.924  13.476  0.00  0.00    +0.000 NA
ATOM      9  C   UNL     1       4.718   4.216  14.560  0.00  0.00    +0.000 A 
ATOM     10  C   UNL     1       5.175   4.827  15.736  0.00  0.00    +0.000 A 
BRANCH   5  14
ATOM     11  N   UNL     1       8.507   5.438  20.288  0.00  0.00    +0.000 N 
ATOM     12  C   UNL     1       8.093   6.045  19.103  0.00  0.00    +0.000 A 
ATOM     13  C   UNL     1       7.492   5.297  18.113  0.00  0.00    +0.000 A 
ATOM     14  C   UNL     1       7.176   5.932  16.918  0.00  0.00    +0.000 A 
ATOM     15  N   UNL     1       7.451   7.241  16.740  0.00  0.00    +0.000 NA
ATOM     16  C   UNL     1       8.039   7.874  17.768  0.00  0.00    +0.000 A 
ATOM     17  N   UNL     1       8.375   7.339  18.951  0.00  0.00    +0.000 NA
ATOM     18  H   UNL     1       7.776   4.903  20.739  0.00  0.00    +0.000 HD
ATOM     19  H   UNL     1       8.888   6.160  20.896  0.00  0.00    +0.000 HD
ENDBRANCH   5  14
ENDBRANCH   1  10
BRANCH   2  20
ATOM     20  C   UNL     1       3.140   4.705  18.962  0.00  0.00    +0.000 A 
ATOM     21  N   UNL     1       2.859   6.039  18.949  0.00  0.00    +0.000 NA
ATOM     22  C   UNL     1       1.877   6.496  19.765  0.00  0.00    +0.000 A 
ATOM     23  C   UNL     1       1.167   5.629  20.592  0.00  0.00    +0.000 A 
ATOM     24  C   UNL     1       1.485   4.271  20.608  0.00  0.00    +0.000 A 
ATOM     25  C   UNL     1       2.527   3.780  19.825  0.00  0.00    +0.000 A 
BRANCH  22  26
ATOM     26  C   UNL     1       1.631   7.947  19.705  0.00  0.00    +0.000 A 
ATOM     27  C   UNL     1       1.285   8.704  20.838  0.00  0.00    +0.000 A 
ATOM     28  F   UNL     1       1.149   8.123  22.038  0.00  0.00    +0.000 F 
ATOM     29  C   UNL     1       1.059  10.083  20.771  0.00  0.00    +0.000 A 
ATOM     30  C   UNL     1       1.162  10.745  19.558  0.00  0.00    +0.000 A 
ATOM     31  C   UNL     1       1.493  10.028  18.410  0.00  0.00    +0.000 A 
ATOM     32  C   UNL     1       1.725   8.654  18.497  0.00  0.00    +0.000 A 
ATOM     33  F   UNL     1       2.075   8.029  17.361  0.00  0.00    +0.000 F 
ENDBRANCH  22  26
BRANCH  25  34
ATOM     34  N   UNL     1       2.747   2.397  19.813  0.00  0.00    +0.000 N 
ATOM     35  H   UNL     1       3.050   1.978  20.684  0.00  0.00    +0.000 HD
ATOM     36  H   UNL     1       3.262   2.068  18.993  0.00  0.00    +0.000 HD
ENDBRANCH  25  34
ENDBRANCH   2  20
TORSDOF 5
ENDMDL
MODEL 4
REMARK VINA RESULT:      -8.4      2.537      4.488
REMARK  Name = 
REMARK  5 active torsions:
REMARK  status: ('A' for Active; 'I' for Inactive)
REMARK    1  A    between atoms: C_4  and  C_5
REMARK    2  A    between atoms: C_10  and  N_11
REMARK    3  A    between atoms: C_12  and  C_14
REMARK    4  A    between atoms: C_16  and  C_17
REMARK    5  A    between atoms: C_27  and  N_28
REMARK                            x       y       z     vdW  Elec       q    Type
REMARK                         _______ _______ _______ _____ _____    ______ ____
ROOT
ATOM      1  N   UNL     1       4.273   5.061  16.801  0.00  0.00    +0.000 N 
ATOM      2  C   UNL     1       4.133   4.259  17.931  0.00  0.00    +0.000 C 
ATOM      3  O   UNL     1       4.818   3.268  18.172  0.00  0.00    +0.000 OA
ATOM      4  H   UNL     1       3.833   5.982  16.830  0.00  0.00    +0.000 HD
ENDROOT
BRANCH   1  10
ATOM      5  C   UNL     1       6.530   5.170  15.772  0.00  0.00    +0.000 A 
ATOM      6  C   UNL     1       7.325   4.810  14.657  0.00  0.00    +0.000 A 
ATOM      7  C   UNL     1       6.763   4.191  13.554  0.00  0.00    +0.000 A 
ATOM      8  N   UNL     1       5.463   3.892  13.463  0.00  0.00    +0.000 NA
ATOM      9  C   UNL     1       4.703   4.196  14.544  0.00  0.00    +0.000 A 
ATOM     10  C   UNL     1       5.163   4.803  15.721  0.00  0.00    +0.000 A 
BRANCH   5  14
ATOM     11  N   UNL     1       8.458   5.383  20.297  0.00  0.00    +0.000 N 
ATOM     12  C   UNL     1       8.071   5.990  19.102  0.00  0.00    +0.000 A 
ATOM     13  C   UNL     1       7.463   5.250  18.112  0.00  0.00    +0.000 A 
ATOM     14  C   UNL     1       7.174   5.882  16.909  0.00  0.00    +0.000 A 
ATOM     15  N   UNL     1       7.483   7.183  16.724  0.00  0.00    +0.000 NA
ATOM     16  C   UNL     1       8.075   7.810  17.753  0.00  0.00    +0.000 A 
ATOM     17  N   UNL     1       8.386   7.276  18.944  0.00  0.00    +0.000 NA
ATOM     18  H   UNL     1       7.709   4.869  20.743  0.00  0.00    +0.000 HD
ATOM     19  H   UNL     1       8.849   6.100  20.903  0.00  0.00    +0.000 HD
ENDBRANCH   5  14
ENDBRANCH   1  10
BRANCH   2  20
ATOM     20  C   UNL     1       3.109   4.708  18.935  0.00  0.00    +0.000 A 
ATOM     21  N   UNL     1       2.840   6.044  18.912  0.00  0.00    +0.000 NA
ATOM     22  C   UNL     1       1.861   6.515  19.724  0.00  0.00    +0.000 A 
ATOM     23  C   UNL     1       1.143   5.660  20.558  0.00  0.00    +0.000 A 
ATOM     24  C   UNL     1       1.450   4.300  20.583  0.00  0.00    +0.000 A 
ATOM     25  C   UNL     1       2.488   3.794  19.805  0.00  0.00    +0.000 A 
BRANCH  22  26
ATOM     26  C   UNL     1       1.628   7.968  19.654  0.00  0.00    +0.000 A 
ATOM     27  C   UNL     1       1.724   8.694  18.454  0.00  0.00    +0.000 A 
ATOM     28  F   UNL     1       2.051   8.084  17.306  0.00  0.00    +0.000 F 
ATOM     29  C   UNL     1       1.495  10.072  18.398  0.00  0.00    +0.000 A 
ATOM     30  C   UNL     1       1.174  10.770  19.551  0.00  0.00    +0.000 A 
ATOM     31  C   UNL     1       1.078  10.088  20.762  0.00  0.00    +0.000 A 
ATOM     32  C   UNL     1       1.300   8.710  20.799  0.00  0.00    +0.000 A 
ATOM     33  F   UNL     1       1.158   8.108  21.991  0.00  0.00    +0.000 F 
ENDBRANCH  22  26
BRANCH  25  34
ATOM     34  N   UNL     1       2.696   2.409  19.804  0.00  0.00    +0.000 N 
ATOM     35  H   UNL     1       3.442   2.062  20.394  0.00  0.00    +0.000 HD
ATOM     36  H   UNL     1       2.675   1.989  18.871  0.00  0.00    +0.000 HD
ENDBRANCH  25  34
ENDBRANCH   2  20
TORSDOF 5
ENDMDL
MODEL 5
REMARK VINA RESULT:      -8.2      0.878      1.254
REMARK  Name = 
REMARK  5 active torsions:
REMARK  status: ('A' for Active; 'I' for Inactive)
REMARK    1  A    between atoms: C_4  and  C_5
REMARK    2  A    between atoms: C_10  and  N_11
REMARK    3  A    between atoms: C_12  and  C_14
REMARK    4  A    between atoms: C_16  and  C_17
REMARK    5  A    between atoms: C_27  and  N_28
REMARK                            x       y       z     vdW  Elec       q    Type
REMARK                         _______ _______ _______ _____ _____    ______ ____
ROOT
ATOM      1  N   UNL     1       3.588   6.914  18.479  0.00  0.00    +0.000 N 
ATOM      2  C   UNL     1       2.315   7.451  18.302  0.00  0.00    +0.000 C 
ATOM      3  O   UNL     1       1.594   7.231  17.333  0.00  0.00    +0.000 OA
ATOM      4  H   UNL     1       3.983   6.960  19.420  0.00  0.00    +0.000 HD
ENDROOT
BRANCH   1  10
ATOM      5  C   UNL     1       4.034   4.714  17.416  0.00  0.00    +0.000 A 
ATOM      6  C   UNL     1       4.737   4.030  16.396  0.00  0.00    +0.000 A 
ATOM      7  C   UNL     1       5.657   4.692  15.601  0.00  0.00    +0.000 A 
ATOM      8  N   UNL     1       5.940   5.992  15.733  0.00  0.00    +0.000 NA
ATOM      9  C   UNL     1       5.240   6.663  16.680  0.00  0.00    +0.000 A 
ATOM     10  C   UNL     1       4.272   6.106  17.528  0.00  0.00    +0.000 A 
BRANCH   5  14
ATOM     11  N   UNL     1       2.659   2.669  21.678  0.00  0.00    +0.000 N 
ATOM     12  C   UNL     1       2.452   2.929  20.323  0.00  0.00    +0.000 A 
ATOM     13  C   UNL     1       3.389   3.637  19.602  0.00  0.00    +0.000 A 
ATOM     14  C   UNL     1       3.097   3.943  18.278  0.00  0.00    +0.000 A 
ATOM     15  N   UNL     1       1.929   3.556  17.724  0.00  0.00    +0.000 NA
ATOM     16  C   UNL     1       1.087   2.873  18.517  0.00  0.00    +0.000 A 
ATOM     17  N   UNL     1       1.292   2.536  19.799  0.00  0.00    +0.000 NA
ATOM     18  H   UNL     1       3.553   2.235  21.868  0.00  0.00    +0.000 HD
ATOM     19  H   UNL     1       1.879   2.109  22.014  0.00  0.00    +0.000 HD
ENDBRANCH   5  14
ENDBRANCH   1  10
BRANCH   2  20
ATOM     20  C   UNL     1       1.797   8.302  19.428  0.00  0.00    +0.000 A 
ATOM     21  N   UNL     1       1.501   9.586  19.080  0.00  0.00    +0.000 NA
ATOM     22  C   UNL     1       0.944  10.393  20.016  0.00  0.00    +0.000 A 
ATOM     23  C   UNL     1       0.673   9.925  21.301  0.00  0.00    +0.000 A 
ATOM     24  C   UNL     1       1.005   8.614  21.644  0.00  0.00    +0.000 A 
ATOM     25  C   UNL     1       1.632   7.779  20.723  0.00  0.00    +0.000 A 
BRANCH  22  26
ATOM     26  C   UNL     1       0.656  11.768  19.574  0.00  0.00    +0.000 A 
ATOM     27  C   UNL     1       1.403  12.876  20.010  0.00  0.00    +0.000 A 
ATOM     28  F   UNL     1       2.418  12.724  20.873  0.00  0.00    +0.000 F 
ATOM     29  C   UNL     1       1.125  14.177  19.580  0.00  0.00    +0.000 A 
ATOM     30  C   UNL     1       0.076  14.409  18.705  0.00  0.00    +0.000 A 
ATOM     31  C   UNL     1      -0.694  13.338  18.257  0.00  0.00    +0.000 A 
ATOM     32  C   UNL     1      -0.397  12.044  18.689  0.00  0.00    +0.000 A 
ATOM     33  F   UNL     1      -1.156  11.054  18.192  0.00  0.00    +0.000 F 
ENDBRANCH  22  26
BRANCH  25  34
ATOM     34  N   UNL     1       1.864   6.448  21.092  0.00  0.00    +0.000 N 
ATOM     35  H   UNL     1       2.651   6.278  21.707  0.00  0.00    +0.000 HD
ATOM     36  H   UNL     1       1.794   5.786  20.315  0.00  0.00    +0.000 HD
ENDBRANCH  25  34
ENDBRANCH   2  20
TORSDOF 5
ENDMDL
MODEL 6
REMARK VINA RESULT:      -8.2      0.896      1.952
REMARK  Name = 
REMARK  5 active torsions:
REMARK  status: ('A' for Active; 'I' for Inactive)
REMARK    1  A    between atoms: C_4  and  C_5
REMARK    2  A    between atoms: C_10  and  N_11
REMARK    3  A    between atoms: C_12  and  C_14
REMARK    4  A    between atoms: C_16  and  C_17
REMARK    5  A    between atoms: C_27  and  N_28
REMARK                            x       y       z     vdW  Elec       q    Type
REMARK                         _______ _______ _______ _____ _____    ______ ____
ROOT
ATOM      1  N   UNL     1       3.576   6.910  18.508  0.00  0.00    +0.000 N 
ATOM      2  C   UNL     1       2.326   7.491  18.304  0.00  0.00    +0.000 C 
ATOM      3  O   UNL     1       1.629   7.312  17.308  0.00  0.00    +0.000 OA
ATOM      4  H   UNL     1       3.943   6.925  19.462  0.00  0.00    +0.000 HD
ENDROOT
BRANCH   1  10
ATOM      5  C   UNL     1       4.026   4.709  17.449  0.00  0.00    +0.000 A 
ATOM      6  C   UNL     1       4.734   4.024  16.433  0.00  0.00    +0.000 A 
ATOM      7  C   UNL     1       5.660   4.685  15.644  0.00  0.00    +0.000 A 
ATOM      8  N   UNL     1       5.944   5.984  15.777  0.00  0.00    +0.000 NA
ATOM      9  C   UNL     1       5.239   6.657  16.720  0.00  0.00    +0.000 A 
ATOM     10  C   UNL     1       4.265   6.101  17.562  0.00  0.00    +0.000 A 
BRANCH   5  14
ATOM     11  N   UNL     1       2.606   2.691  21.709  0.00  0.00    +0.000 N 
ATOM     12  C   UNL     1       2.416   2.940  20.349  0.00  0.00    +0.000 A 
ATOM     13  C   UNL     1       3.358   3.646  19.634  0.00  0.00    +0.000 A 
ATOM     14  C   UNL     1       3.081   3.941  18.305  0.00  0.00    +0.000 A 
ATOM     15  N   UNL     1       1.923   3.542  17.738  0.00  0.00    +0.000 NA
ATOM     16  C   UNL     1       1.075   2.861  18.526  0.00  0.00    +0.000 A 
ATOM     17  N   UNL     1       1.265   2.535  19.813  0.00  0.00    +0.000 NA
ATOM     18  H   UNL     1       3.500   2.264  21.914  0.00  0.00    +0.000 HD
ATOM     19  H   UNL     1       1.825   2.130  22.039  0.00  0.00    +0.000 HD
ENDBRANCH   5  14
ENDBRANCH   1  10
BRANCH   2  20
ATOM     20  C   UNL     1       1.799   8.333  19.431  0.00  0.00    +0.000 A 
ATOM     21  N   UNL     1       1.497   9.617  19.087  0.00  0.00    +0.000 NA
ATOM     22  C   UNL     1       0.931  10.417  20.024  0.00  0.00    +0.000 A 
ATOM     23  C   UNL     1       0.658   9.942  21.306  0.00  0.00    +0.000 A 
ATOM     24  C   UNL     1       0.996   8.632  21.645  0.00  0.00    +0.000 A 
ATOM     25  C   UNL     1       1.632   7.804  20.723  0.00  0.00    +0.000 A 
BRANCH  22  26
ATOM     26  C   UNL     1       0.638  11.792  19.587  0.00  0.00    +0.000 A 
ATOM     27  C   UNL     1      -0.408  12.099  18.700  0.00  0.00    +0.000 A 
ATOM     28  F   UNL     1      -1.188  11.132  18.197  0.00  0.00    +0.000 F 
ATOM     29  C   UNL     1      -0.682  13.410  18.296  0.00  0.00    +0.000 A 
ATOM     30  C   UNL     1       0.098  14.456  18.761  0.00  0.00    +0.000 A 
ATOM     31  C   UNL     1       1.151  14.192  19.634  0.00  0.00    +0.000 A 
ATOM     32  C   UNL     1       1.405  12.879  20.035  0.00  0.00    +0.000 A 
ATOM     33  F   UNL     1       2.411  12.698  20.905  0.00  0.00    +0.000 F 
ENDBRANCH  22  26
BRANCH  25  34
ATOM     34  N   UNL     1       1.870   6.473  21.088  0.00  0.00    +0.000 N 
ATOM     35  H   UNL     1       2.826   6.147  21.015  0.00  0.00    +0.000 HD
ATOM     36  H   UNL     1       1.177   5.815  20.721  0.00  0.00    +0.000 HD
ENDBRANCH  25  34
ENDBRANCH   2  20
TORSDOF 5
ENDMDL
MODEL 7
REMARK VINA RESULT:      -8.2      1.956      4.172
REMARK  Name = 
REMARK  5 active torsions:
REMARK  status: ('A' for Active; 'I' for Inactive)
REMARK    1  A    between atoms: C_4  and  C_5
REMARK    2  A    between atoms: C_10  and  N_11
REMARK    3  A    between atoms: C_12  and  C_14
REMARK    4  A    between atoms: C_16  and  C_17
REMARK    5  A    between atoms: C_27  and  N_28
REMARK                            x       y       z     vdW  Elec       q    Type
REMARK                         _______ _______ _______ _____ _____    ______ ____
ROOT
ATOM      1  N   UNL     1       2.379   5.835  18.170  0.00  0.00    +0.000 N 
ATOM      2  C   UNL     1       2.184   6.611  19.310  0.00  0.00    +0.000 C 
ATOM      3  O   UNL     1       2.289   6.198  20.462  0.00  0.00    +0.000 OA
ATOM      4  H   UNL     1       2.514   6.333  17.289  0.00  0.00    +0.000 HD
ENDROOT
BRANCH   1  10
ATOM      5  C   UNL     1       3.898   3.908  17.789  0.00  0.00    +0.000 A 
ATOM      6  C   UNL     1       4.051   2.503  17.882  0.00  0.00    +0.000 A 
ATOM      7  C   UNL     1       2.992   1.698  18.264  0.00  0.00    +0.000 A 
ATOM      8  N   UNL     1       1.780   2.174  18.568  0.00  0.00    +0.000 NA
ATOM      9  C   UNL     1       1.638   3.521  18.521  0.00  0.00    +0.000 A 
ATOM     10  C   UNL     1       2.640   4.436  18.170  0.00  0.00    +0.000 A 
BRANCH   5  14
ATOM     11  N   UNL     1       7.399   5.110  14.542  0.00  0.00    +0.000 N 
ATOM     12  C   UNL     1       6.760   5.278  15.771  0.00  0.00    +0.000 A 
ATOM     13  C   UNL     1       5.709   4.459  16.125  0.00  0.00    +0.000 A 
ATOM     14  C   UNL     1       5.052   4.723  17.321  0.00  0.00    +0.000 A 
ATOM     15  N   UNL     1       5.438   5.750  18.106  0.00  0.00    +0.000 NA
ATOM     16  C   UNL     1       6.472   6.485  17.666  0.00  0.00    +0.000 A 
ATOM     17  N   UNL     1       7.160   6.299  16.529  0.00  0.00    +0.000 NA
ATOM     18  H   UNL     1       7.709   4.160  14.382  0.00  0.00    +0.000 HD
ATOM     19  H   UNL     1       8.162   5.780  14.489  0.00  0.00    +0.000 HD
ENDBRANCH   5  14
ENDBRANCH   1  10
BRANCH   2  20
ATOM     20  C   UNL     1       1.892   8.067  19.074  0.00  0.00    +0.000 A 
ATOM     21  N   UNL     1       1.066   8.637  19.996  0.00  0.00    +0.000 NA
ATOM     22  C   UNL     1       0.825   9.968  19.907  0.00  0.00    +0.000 A 
ATOM     23  C   UNL     1       1.408  10.739  18.903  0.00  0.00    +0.000 A 
ATOM     24  C   UNL     1       2.232  10.132  17.955  0.00  0.00    +0.000 A 
ATOM     25  C   UNL     1       2.452   8.758  17.985  0.00  0.00    +0.000 A 
BRANCH  22  26
ATOM     26  C   UNL     1      -0.080  10.517  20.931  0.00  0.00    +0.000 A 
ATOM     27  C   UNL     1      -1.031  11.512  20.647  0.00  0.00    +0.000 A 
ATOM     28  F   UNL     1      -1.145  12.022  19.412  0.00  0.00    +0.000 F 
ATOM     29  C   UNL     1      -1.890  12.021  21.626  0.00  0.00    +0.000 A 
ATOM     30  C   UNL     1      -1.812  11.555  22.928  0.00  0.00    +0.000 A 
ATOM     31  C   UNL     1      -0.876  10.575  23.252  0.00  0.00    +0.000 A 
ATOM     32  C   UNL     1      -0.032  10.070  22.260  0.00  0.00    +0.000 A 
ATOM     33  F   UNL     1       0.822   9.103  22.631  0.00  0.00    +0.000 F 
ENDBRANCH  22  26
BRANCH  25  34
ATOM     34  N   UNL     1       3.355   8.214  17.062  0.00  0.00    +0.000 N 
ATOM     35  H   UNL     1       4.126   7.679  17.443  0.00  0.00    +0.000 HD
ATOM     36  H   UNL     1       3.627   8.864  16.320  0.00  0.00    +0.000 HD
ENDBRANCH  25  34
ENDBRANCH   2  20
TORSDOF 5
ENDMDL
MODEL 8
REMARK VINA RESULT:      -8.2      1.952      4.053
REMARK  Name = 
REMARK  5 active torsions:
REMARK  status: ('A' for Active; 'I' for Inactive)
REMARK    1  A    between atoms: C_4  and  C_5
REMARK    2  A    between atoms: C_10  and  N_11
REMARK    3  A    between atoms: C_12  and  C_14
REMARK    4  A    between atoms: C_16  and  C_17
REMARK    5  A    between atoms: C_27  and  N_28
REMARK                            x       y       z     vdW  Elec       q    Type
REMARK                         _______ _______ _______ _____ _____    ______ ____
ROOT
ATOM      1  N   UNL     1       2.377   5.849  18.175  0.00  0.00    +0.000 N 
ATOM      2  C   UNL     1       2.139   6.614  19.314  0.00  0.00    +0.000 C 
ATOM      3  O   UNL     1       2.197   6.188  20.465  0.00  0.00    +0.000 OA
ATOM      4  H   UNL     1       2.548   6.355  17.305  0.00  0.00    +0.000 HD
ENDROOT
BRANCH   1  10
ATOM      5  C   UNL     1       3.885   3.916  17.781  0.00  0.00    +0.000 A 
ATOM      6  C   UNL     1       4.033   2.511  17.871  0.00  0.00    +0.000 A 
ATOM      7  C   UNL     1       2.973   1.709  18.259  0.00  0.00    +0.000 A 
ATOM      8  N   UNL     1       1.766   2.189  18.571  0.00  0.00    +0.000 NA
ATOM      9  C   UNL     1       1.628   3.537  18.528  0.00  0.00    +0.000 A 
ATOM     10  C   UNL     1       2.632   4.448  18.171  0.00  0.00    +0.000 A 
BRANCH   5  14
ATOM     11  N   UNL     1       7.398   5.080  14.533  0.00  0.00    +0.000 N 
ATOM     12  C   UNL     1       6.753   5.264  15.756  0.00  0.00    +0.000 A 
ATOM     13  C   UNL     1       5.703   4.448  16.117  0.00  0.00    +0.000 A 
ATOM     14  C   UNL     1       5.040   4.727  17.306  0.00  0.00    +0.000 A 
ATOM     15  N   UNL     1       5.419   5.767  18.078  0.00  0.00    +0.000 NA
ATOM     16  C   UNL     1       6.453   6.498  17.632  0.00  0.00    +0.000 A 
ATOM     17  N   UNL     1       7.147   6.297  16.501  0.00  0.00    +0.000 NA
ATOM     18  H   UNL     1       7.711   4.128  14.387  0.00  0.00    +0.000 HD
ATOM     19  H   UNL     1       8.159   5.751  14.473  0.00  0.00    +0.000 HD
ENDBRANCH   5  14
ENDBRANCH   1  10
BRANCH   2  20
ATOM     20  C   UNL     1       1.862   8.073  19.081  0.00  0.00    +0.000 A 
ATOM     21  N   UNL     1       1.036   8.647  20.000  0.00  0.00    +0.000 NA
ATOM     22  C   UNL     1       0.808   9.981  19.914  0.00  0.00    +0.000 A 
ATOM     23  C   UNL     1       1.405  10.750  18.917  0.00  0.00    +0.000 A 
ATOM     24  C   UNL     1       2.230  10.140  17.972  0.00  0.00    +0.000 A 
ATOM     25  C   UNL     1       2.436   8.763  17.999  0.00  0.00    +0.000 A 
BRANCH  22  26
ATOM     26  C   UNL     1      -0.100  10.534  20.934  0.00  0.00    +0.000 A 
ATOM     27  C   UNL     1      -0.064  10.131  22.279  0.00  0.00    +0.000 A 
ATOM     28  F   UNL     1       0.806   9.199  22.695  0.00  0.00    +0.000 F 
ATOM     29  C   UNL     1      -0.927  10.666  23.241  0.00  0.00    +0.000 A 
ATOM     30  C   UNL     1      -1.865  11.618  22.877  0.00  0.00    +0.000 A 
ATOM     31  C   UNL     1      -1.939  12.039  21.550  0.00  0.00    +0.000 A 
ATOM     32  C   UNL     1      -1.063  11.500  20.605  0.00  0.00    +0.000 A 
ATOM     33  F   UNL     1      -1.164  11.973  19.353  0.00  0.00    +0.000 F 
ENDBRANCH  22  26
BRANCH  25  34
ATOM     34  N   UNL     1       3.341   8.215  17.080  0.00  0.00    +0.000 N 
ATOM     35  H   UNL     1       3.920   7.454  17.414  0.00  0.00    +0.000 HD
ATOM     36  H   UNL     1       3.848   8.915  16.533  0.00  0.00    +0.000 HD
ENDBRANCH  25  34
ENDBRANCH   2  20
TORSDOF 5
ENDMDL
MODEL 9
REMARK VINA RESULT:      -8.2      2.582      4.505
REMARK  Name = 
REMARK  5 active torsions:
REMARK  status: ('A' for Active; 'I' for Inactive)
REMARK    1  A    between atoms: C_4  and  C_5
REMARK    2  A    between atoms: C_10  and  N_11
REMARK    3  A    between atoms: C_12  and  C_14
REMARK    4  A    between atoms: C_16  and  C_17
REMARK    5  A    between atoms: C_27  and  N_28
REMARK                            x       y       z     vdW  Elec       q    Type
REMARK                         _______ _______ _______ _____ _____    ______ ____
ROOT
ATOM      1  N   UNL     1       4.379   5.206  17.031  0.00  0.00    +0.000 N 
ATOM      2  C   UNL     1       4.291   4.430  18.185  0.00  0.00    +0.000 C 
ATOM      3  O   UNL     1       5.003   3.459  18.428  0.00  0.00    +0.000 OA
ATOM      4  H   UNL     1       3.922   6.119  17.051  0.00  0.00    +0.000 HD
ENDROOT
BRANCH   1  10
ATOM      5  C   UNL     1       6.598   5.344  15.924  0.00  0.00    +0.000 A 
ATOM      6  C   UNL     1       7.366   4.970  14.795  0.00  0.00    +0.000 A 
ATOM      7  C   UNL     1       6.786   4.300  13.731  0.00  0.00    +0.000 A 
ATOM      8  N   UNL     1       5.493   3.964  13.693  0.00  0.00    +0.000 NA
ATOM      9  C   UNL     1       4.760   4.280  14.789  0.00  0.00    +0.000 A 
ATOM     10  C   UNL     1       5.241   4.937  15.930  0.00  0.00    +0.000 A 
BRANCH   5  14
ATOM     11  N   UNL     1       8.272   9.485  17.994  0.00  0.00    +0.000 N 
ATOM     12  C   UNL     1       8.095   8.101  17.996  0.00  0.00    +0.000 A 
ATOM     13  C   UNL     1       7.488   7.478  16.928  0.00  0.00    +0.000 A 
ATOM     14  C   UNL     1       7.258   6.110  17.016  0.00  0.00    +0.000 A 
ATOM     15  N   UNL     1       7.621   5.421  18.118  0.00  0.00    +0.000 NA
ATOM     16  C   UNL     1       8.203   6.127  19.101  0.00  0.00    +0.000 A 
ATOM     17  N   UNL     1       8.463   7.443  19.095  0.00  0.00    +0.000 NA
ATOM     18  H   UNL     1       8.738   9.825  17.162  0.00  0.00    +0.000 HD
ATOM     19  H   UNL     1       8.767   9.741  18.845  0.00  0.00    +0.000 HD
ENDBRANCH   5  14
ENDBRANCH   1  10
BRANCH   2  20
ATOM     20  C   UNL     1       3.289   4.884  19.208  0.00  0.00    +0.000 A 
ATOM     21  N   UNL     1       2.940   6.199  19.117  0.00  0.00    +0.000 NA
ATOM     22  C   UNL     1       1.974   6.666  19.946  0.00  0.00    +0.000 A 
ATOM     23  C   UNL     1       1.347   5.827  20.866  0.00  0.00    +0.000 A 
ATOM     24  C   UNL     1       1.735   4.491  20.960  0.00  0.00    +0.000 A 
ATOM     25  C   UNL     1       2.764   3.995  20.163  0.00  0.00    +0.000 A 
BRANCH  22  26
ATOM     26  C   UNL     1       1.651   8.095  19.797  0.00  0.00    +0.000 A 
ATOM     27  C   UNL     1       1.232   8.894  20.875  0.00  0.00    +0.000 A 
ATOM     28  F   UNL     1       1.093   8.373  22.103  0.00  0.00    +0.000 F 
ATOM     29  C   UNL     1       0.934  10.252  20.724  0.00  0.00    +0.000 A 
ATOM     30  C   UNL     1       1.035  10.850  19.479  0.00  0.00    +0.000 A 
ATOM     31  C   UNL     1       1.438  10.090  18.383  0.00  0.00    +0.000 A 
ATOM     32  C   UNL     1       1.741   8.737  18.553  0.00  0.00    +0.000 A 
ATOM     33  F   UNL     1       2.157   8.072  17.464  0.00  0.00    +0.000 F 
ENDBRANCH  22  26
BRANCH  25  34
ATOM     34  N   UNL     1       3.054   2.627  20.237  0.00  0.00    +0.000 N 
ATOM     35  H   UNL     1       2.346   2.036  20.656  0.00  0.00    +0.000 HD
ATOM     36  H   UNL     1       4.006   2.423  20.553  0.00  0.00    +0.000 HD
ENDBRANCH  25  34
ENDBRANCH   2  20
TORSDOF 5
ENDMDL
