MODEL 1
REMARK VINA RESULT:      -6.4      0.000      0.000
REMARK  Name = 
REMARK  4 active torsions:
REMARK  status: ('A' for Active; 'I' for Inactive)
REMARK    1  A    between atoms: O_1  and  C_2
REMARK    2  A    between atoms: C_2  and  C_3
REMARK    3  A    between atoms: C_4  and  C_5
REMARK    4  A    between atoms: C_5  and  N_6
REMARK                            x       y       z     vdW  Elec       q    Type
REMARK                         _______ _______ _______ _____ _____    ______ ____
ROOT
ATOM      1  C   UNL     1       6.150   4.908  17.632  0.00  0.00    +0.000 C 
ATOM      2  C   UNL     1       6.596   5.182  19.092  0.00  0.00    +0.000 C 
ATOM      3  C   UNL     1       7.944   5.916  19.130  0.00  0.00    +0.000 C 
ATOM      4  C   UNL     1       7.842   7.241  18.368  0.00  0.00    +0.000 C 
ATOM      5  C   UNL     1       7.406   6.993  16.918  0.00  0.00    +0.000 C 
ATOM      6  C   UNL     1       6.056   6.251  16.877  0.00  0.00    +0.000 C 
ENDROOT
BRANCH   1   7
ATOM      7  O   UNL     1       7.079   4.073  16.985  0.00  0.00    +0.000 OA
ATOM      8  H   UNL     1       7.974   4.497  17.056  0.00  0.00    +0.000 HD
ENDBRANCH   1   7
BRANCH   1   9
ATOM      9  C   UNL     1       4.792   4.226  17.670  0.00  0.00    +0.000 C 
ATOM     10  C   UNL     1       3.627   3.641  17.702  0.00  0.00    +0.000 C 
BRANCH  10  11
ATOM     11  C   UNL     1       2.269   2.959  17.739  0.00  0.00    +0.000 C 
BRANCH  11  12
ATOM     12  N   UNL     1       2.021   2.353  19.066  0.00  0.00    +0.000 NA
ATOM     13  C   UNL     1       0.724   2.820  19.588  0.00  0.00    +0.000 C 
ATOM     14  C   UNL     1       1.048   4.019  20.459  0.00  0.00    +0.000 C 
ATOM     15  C   UNL     1       2.242   3.471  21.201  0.00  0.00    +0.000 C 
ATOM     16  C   UNL     1       3.019   2.811  20.068  0.00  0.00    +0.000 C 
ENDBRANCH  11  12
ENDBRANCH  10  11
ENDBRANCH   1   9
TORSDOF 4
ENDMDL
MODEL 2
REMARK VINA RESULT:      -6.2      2.504      5.953
REMARK  Name = 
REMARK  4 active torsions:
REMARK  status: ('A' for Active; 'I' for Inactive)
REMARK    1  A    between atoms: O_1  and  C_2
REMARK    2  A    between atoms: C_2  and  C_3
REMARK    3  A    between atoms: C_4  and  C_5
REMARK    4  A    between atoms: C_5  and  N_6
REMARK                            x       y       z     vdW  Elec       q    Type
REMARK                         _______ _______ _______ _____ _____    ______ ____
ROOT
ATOM      1  C   UNL     1       2.324   4.273  18.258  0.00  0.00    +0.000 C 
ATOM      2  C   UNL     1       1.974   4.889  19.638  0.00  0.00    +0.000 C 
ATOM      3  C   UNL     1       0.930   4.040  20.375  0.00  0.00    +0.000 C 
ATOM      4  C   UNL     1       1.456   2.614  20.569  0.00  0.00    +0.000 C 
ATOM      5  C   UNL     1       1.805   1.982  19.215  0.00  0.00    +0.000 C 
ATOM      6  C   UNL     1       2.848   2.837  18.471  0.00  0.00    +0.000 C 
ENDROOT
BRANCH   1   7
ATOM      7  O   UNL     1       1.184   4.237  17.435  0.00  0.00    +0.000 OA
ATOM      8  H   UNL     1       1.175   3.364  16.962  0.00  0.00    +0.000 HD
ENDBRANCH   1   7
BRANCH   1   9
ATOM      9  C   UNL     1       3.394   5.135  17.609  0.00  0.00    +0.000 C 
ATOM     10  C   UNL     1       4.312   5.876  17.052  0.00  0.00    +0.000 C 
BRANCH  10  11
ATOM     11  C   UNL     1       5.382   6.738  16.402  0.00  0.00    +0.000 C 
BRANCH  11  12
ATOM     12  N   UNL     1       6.732   6.202  16.682  0.00  0.00    +0.000 NA
ATOM     13  C   UNL     1       6.622   5.008  17.539  0.00  0.00    +0.000 C 
ATOM     14  C   UNL     1       6.787   5.514  18.960  0.00  0.00    +0.000 C 
ATOM     15  C   UNL     1       7.955   6.448  18.757  0.00  0.00    +0.000 C 
ATOM     16  C   UNL     1       7.544   7.163  17.475  0.00  0.00    +0.000 C 
ENDBRANCH  11  12
ENDBRANCH  10  11
ENDBRANCH   1   9
TORSDOF 4
ENDMDL
MODEL 3
REMARK VINA RESULT:      -6.2      2.485      5.857
REMARK  Name = 
REMARK  4 active torsions:
REMARK  status: ('A' for Active; 'I' for Inactive)
REMARK    1  A    between atoms: O_1  and  C_2
REMARK    2  A    between atoms: C_2  and  C_3
REMARK    3  A    between atoms: C_4  and  C_5
REMARK    4  A    between atoms: C_5  and  N_6
REMARK                            x       y       z     vdW  Elec       q    Type
REMARK                         _______ _______ _______ _____ _____    ______ ____
ROOT
ATOM      1  C   UNL     1       3.076   4.542  19.358  0.00  0.00    +0.000 C 
ATOM      2  C   UNL     1       3.606   3.195  19.917  0.00  0.00    +0.000 C 
ATOM      3  C   UNL     1       2.858   2.793  21.195  0.00  0.00    +0.000 C 
ATOM      4  C   UNL     1       1.357   2.673  20.908  0.00  0.00    +0.000 C 
ATOM      5  C   UNL     1       0.810   3.997  20.359  0.00  0.00    +0.000 C 
ATOM      6  C   UNL     1       1.564   4.407  19.080  0.00  0.00    +0.000 C 
ENDROOT
BRANCH   1   7
ATOM      7  O   UNL     1       3.288   5.575  20.289  0.00  0.00    +0.000 OA
ATOM      8  H   UNL     1       2.655   5.444  21.043  0.00  0.00    +0.000 HD
ENDBRANCH   1   7
BRANCH   1   9
ATOM      9  C   UNL     1       3.825   4.852  18.073  0.00  0.00    +0.000 C 
ATOM     10  C   UNL     1       4.468   5.119  16.970  0.00  0.00    +0.000 C 
BRANCH  10  11
ATOM     11  C   UNL     1       5.217   5.430  15.685  0.00  0.00    +0.000 C 
BRANCH  11  12
ATOM     12  N   UNL     1       6.565   5.965  15.977  0.00  0.00    +0.000 NA
ATOM     13  C   UNL     1       7.495   4.849  16.232  0.00  0.00    +0.000 C 
ATOM     14  C   UNL     1       7.500   4.665  17.738  0.00  0.00    +0.000 C 
ATOM     15  C   UNL     1       7.591   6.109  18.165  0.00  0.00    +0.000 C 
ATOM     16  C   UNL     1       6.573   6.759  17.234  0.00  0.00    +0.000 C 
ENDBRANCH  11  12
ENDBRANCH  10  11
ENDBRANCH   1   9
TORSDOF 4
ENDMDL
MODEL 4
REMARK VINA RESULT:      -6.2      2.381      5.874
REMARK  Name = 
REMARK  4 active torsions:
REMARK  status: ('A' for Active; 'I' for Inactive)
REMARK    1  A    between atoms: O_1  and  C_2
REMARK    2  A    between atoms: C_2  and  C_3
REMARK    3  A    between atoms: C_4  and  C_5
REMARK    4  A    between atoms: C_5  and  N_6
REMARK                            x       y       z     vdW  Elec       q    Type
REMARK                         _______ _______ _______ _____ _____    ______ ____
ROOT
ATOM      1  C   UNL     1       2.990   2.912  18.435  0.00  0.00    +0.000 C 
ATOM      2  C   UNL     1       1.542   3.460  18.352  0.00  0.00    +0.000 C 
ATOM      3  C   UNL     1       0.674   2.905  19.490  0.00  0.00    +0.000 C 
ATOM      4  C   UNL     1       1.286   3.276  20.845  0.00  0.00    +0.000 C 
ATOM      5  C   UNL     1       2.719   2.740  20.951  0.00  0.00    +0.000 C 
ATOM      6  C   UNL     1       3.590   3.290  19.806  0.00  0.00    +0.000 C 
ENDROOT
BRANCH   1   7
ATOM      7  O   UNL     1       2.994   1.512  18.294  0.00  0.00    +0.000 OA
ATOM      8  H   UNL     1       3.427   1.292  17.428  0.00  0.00    +0.000 HD
ENDBRANCH   1   7
BRANCH   1   9
ATOM      9  C   UNL     1       3.801   3.538  17.313  0.00  0.00    +0.000 C 
ATOM     10  C   UNL     1       4.497   4.076  16.349  0.00  0.00    +0.000 C 
BRANCH  10  11
ATOM     11  C   UNL     1       5.307   4.702  15.226  0.00  0.00    +0.000 C 
BRANCH  11  12
ATOM     12  N   UNL     1       6.285   5.675  15.761  0.00  0.00    +0.000 NA
ATOM     13  C   UNL     1       7.543   4.981  16.092  0.00  0.00    +0.000 C 
ATOM     14  C   UNL     1       7.437   4.635  17.566  0.00  0.00    +0.000 C 
ATOM     15  C   UNL     1       6.894   5.941  18.089  0.00  0.00    +0.000 C 
ATOM     16  C   UNL     1       5.823   6.256  17.050  0.00  0.00    +0.000 C 
ENDBRANCH  11  12
ENDBRANCH  10  11
ENDBRANCH   1   9
TORSDOF 4
ENDMDL
MODEL 5
REMARK VINA RESULT:      -6.2      4.450      8.101
REMARK  Name = 
REMARK  4 active torsions:
REMARK  status: ('A' for Active; 'I' for Inactive)
REMARK    1  A    between atoms: O_1  and  C_2
REMARK    2  A    between atoms: C_2  and  C_3
REMARK    3  A    between atoms: C_4  and  C_5
REMARK    4  A    between atoms: C_5  and  N_6
REMARK                            x       y       z     vdW  Elec       q    Type
REMARK                         _______ _______ _______ _____ _____    ______ ____
ROOT
ATOM      1  C   UNL     1       7.188   6.926  17.328  0.00  0.00    +0.000 C 
ATOM      2  C   UNL     1       5.658   7.117  17.160  0.00  0.00    +0.000 C 
ATOM      3  C   UNL     1       4.965   5.784  16.841  0.00  0.00    +0.000 C 
ATOM      4  C   UNL     1       5.236   4.773  17.959  0.00  0.00    +0.000 C 
ATOM      5  C   UNL     1       6.746   4.564  18.139  0.00  0.00    +0.000 C 
ATOM      6  C   UNL     1       7.443   5.901  18.452  0.00  0.00    +0.000 C 
ENDROOT
BRANCH   1   7
ATOM      7  O   UNL     1       7.757   6.456  16.130  0.00  0.00    +0.000 OA
ATOM      8  H   UNL     1       7.896   5.476  16.220  0.00  0.00    +0.000 HD
ENDBRANCH   1   7
BRANCH   1   9
ATOM      9  C   UNL     1       7.798   8.270  17.688  0.00  0.00    +0.000 C 
ATOM     10  C   UNL     1       8.323   9.424  17.997  0.00  0.00    +0.000 C 
BRANCH  10  11
ATOM     11  C   UNL     1       8.933  10.768  18.357  0.00  0.00    +0.000 C 
BRANCH  11  12
ATOM     12  N   UNL     1       9.970  10.613  19.401  0.00  0.00    +0.000 NA
ATOM     13  C   UNL     1       9.473  11.161  20.676  0.00  0.00    +0.000 C 
ATOM     14  C   UNL     1       9.976  12.592  20.724  0.00  0.00    +0.000 C 
ATOM     15  C   UNL     1      11.394  12.372  20.260  0.00  0.00    +0.000 C 
ATOM     16  C   UNL     1      11.180  11.419  19.089  0.00  0.00    +0.000 C 
ENDBRANCH  11  12
ENDBRANCH  10  11
ENDBRANCH   1   9
TORSDOF 4
ENDMDL
MODEL 6
REMARK VINA RESULT:      -6.1      1.762      2.445
REMARK  Name = 
REMARK  4 active torsions:
REMARK  status: ('A' for Active; 'I' for Inactive)
REMARK    1  A    between atoms: O_1  and  C_2
REMARK    2  A    between atoms: C_2  and  C_3
REMARK    3  A    between atoms: C_4  and  C_5
REMARK    4  A    between atoms: C_5  and  N_6
REMARK                            x       y       z     vdW  Elec       q    Type
REMARK                         _______ _______ _______ _____ _____    ______ ____
ROOT
ATOM      1  C   UNL     1       5.532   4.381  17.846  0.00  0.00    +0.000 C 
ATOM      2  C   UNL     1       5.194   5.890  17.965  0.00  0.00    +0.000 C 
ATOM      3  C   UNL     1       5.830   6.692  16.821  0.00  0.00    +0.000 C 
ATOM      4  C   UNL     1       5.337   6.161  15.471  0.00  0.00    +0.000 C 
ATOM      5  C   UNL     1       5.667   4.669  15.330  0.00  0.00    +0.000 C 
ATOM      6  C   UNL     1       5.035   3.863  16.480  0.00  0.00    +0.000 C 
ENDROOT
BRANCH   1   7
ATOM      7  O   UNL     1       6.922   4.182  17.942  0.00  0.00    +0.000 OA
ATOM      8  H   UNL     1       7.186   4.317  18.891  0.00  0.00    +0.000 HD
ENDBRANCH   1   7
BRANCH   1   9
ATOM      9  C   UNL     1       4.833   3.646  18.977  0.00  0.00    +0.000 C 
ATOM     10  C   UNL     1       4.233   3.014  19.949  0.00  0.00    +0.000 C 
BRANCH  10  11
ATOM     11  C   UNL     1       3.535   2.279  21.080  0.00  0.00    +0.000 C 
BRANCH  11  12
ATOM     12  N   UNL     1       2.479   3.122  21.683  0.00  0.00    +0.000 NA
ATOM     13  C   UNL     1       1.153   2.606  21.295  0.00  0.00    +0.000 C 
ATOM     14  C   UNL     1       0.755   3.401  20.065  0.00  0.00    +0.000 C 
ATOM     15  C   UNL     1       1.153   4.782  20.523  0.00  0.00    +0.000 C 
ATOM     16  C   UNL     1       2.517   4.508  21.146  0.00  0.00    +0.000 C 
ENDBRANCH  11  12
ENDBRANCH  10  11
ENDBRANCH   1   9
TORSDOF 4
ENDMDL
MODEL 7
REMARK VINA RESULT:      -6.1      0.999      1.408
REMARK  Name = 
REMARK  4 active torsions:
REMARK  status: ('A' for Active; 'I' for Inactive)
REMARK    1  A    between atoms: O_1  and  C_2
REMARK    2  A    between atoms: C_2  and  C_3
REMARK    3  A    between atoms: C_4  and  C_5
REMARK    4  A    between atoms: C_5  and  N_6
REMARK                            x       y       z     vdW  Elec       q    Type
REMARK                         _______ _______ _______ _____ _____    ______ ____
ROOT
ATOM      1  C   UNL     1       5.806   5.502  17.657  0.00  0.00    +0.000 C 
ATOM      2  C   UNL     1       6.364   5.389  19.100  0.00  0.00    +0.000 C 
ATOM      3  C   UNL     1       7.859   5.734  19.145  0.00  0.00    +0.000 C 
ATOM      4  C   UNL     1       8.085   7.155  18.618  0.00  0.00    +0.000 C 
ATOM      5  C   UNL     1       7.544   7.288  17.188  0.00  0.00    +0.000 C 
ATOM      6  C   UNL     1       6.045   6.936  17.140  0.00  0.00    +0.000 C 
ENDROOT
BRANCH   1   7
ATOM      7  O   UNL     1       6.454   4.585  16.809  0.00  0.00    +0.000 OA
ATOM      8  H   UNL     1       5.934   4.529  15.964  0.00  0.00    +0.000 HD
ENDBRANCH   1   7
BRANCH   1   9
ATOM      9  C   UNL     1       4.319   5.195  17.697  0.00  0.00    +0.000 C 
ATOM     10  C   UNL     1       3.041   4.931  17.731  0.00  0.00    +0.000 C 
BRANCH  10  11
ATOM     11  C   UNL     1       1.554   4.624  17.770  0.00  0.00    +0.000 C 
BRANCH  11  12
ATOM     12  N   UNL     1       1.320   3.172  17.930  0.00  0.00    +0.000 NA
ATOM     13  C   UNL     1       0.940   2.883  19.325  0.00  0.00    +0.000 C 
ATOM     14  C   UNL     1       2.234   2.512  20.026  0.00  0.00    +0.000 C 
ATOM     15  C   UNL     1       2.828   1.598  18.983  0.00  0.00    +0.000 C 
ATOM     16  C   UNL     1       2.567   2.393  17.708  0.00  0.00    +0.000 C 
ENDBRANCH  11  12
ENDBRANCH  10  11
ENDBRANCH   1   9
TORSDOF 4
ENDMDL
MODEL 8
REMARK VINA RESULT:      -6.1      0.775      1.147
REMARK  Name = 
REMARK  4 active torsions:
REMARK  status: ('A' for Active; 'I' for Inactive)
REMARK    1  A    between atoms: O_1  and  C_2
REMARK    2  A    between atoms: C_2  and  C_3
REMARK    3  A    between atoms: C_4  and  C_5
REMARK    4  A    between atoms: C_5  and  N_6
REMARK                            x       y       z     vdW  Elec       q    Type
REMARK                         _______ _______ _______ _____ _____    ______ ____
ROOT
ATOM      1  C   UNL     1       6.307   4.863  17.505  0.00  0.00    +0.000 C 
ATOM      2  C   UNL     1       6.636   5.243  18.972  0.00  0.00    +0.000 C 
ATOM      3  C   UNL     1       7.914   6.089  19.052  0.00  0.00    +0.000 C 
ATOM      4  C   UNL     1       7.754   7.362  18.216  0.00  0.00    +0.000 C 
ATOM      5  C   UNL     1       7.433   7.008  16.758  0.00  0.00    +0.000 C 
ATOM      6  C   UNL     1       6.154   6.155  16.676  0.00  0.00    +0.000 C 
ENDROOT
BRANCH   1   7
ATOM      7  O   UNL     1       7.340   4.078  16.960  0.00  0.00    +0.000 OA
ATOM      8  H   UNL     1       6.990   3.634  16.143  0.00  0.00    +0.000 HD
ENDBRANCH   1   7
BRANCH   1   9
ATOM      9  C   UNL     1       5.010   4.072  17.498  0.00  0.00    +0.000 C 
ATOM     10  C   UNL     1       3.896   3.392  17.491  0.00  0.00    +0.000 C 
BRANCH  10  11
ATOM     11  C   UNL     1       2.598   2.601  17.483  0.00  0.00    +0.000 C 
BRANCH  11  12
ATOM     12  N   UNL     1       1.480   3.419  18.004  0.00  0.00    +0.000 NA
ATOM     13  C   UNL     1       2.016   4.590  18.721  0.00  0.00    +0.000 C 
ATOM     14  C   UNL     1       2.079   4.174  20.180  0.00  0.00    +0.000 C 
ATOM     15  C   UNL     1       0.735   3.502  20.305  0.00  0.00    +0.000 C 
ATOM     16  C   UNL     1       0.694   2.676  19.025  0.00  0.00    +0.000 C 
ENDBRANCH  11  12
ENDBRANCH  10  11
ENDBRANCH   1   9
TORSDOF 4
ENDMDL
MODEL 9
REMARK VINA RESULT:      -6.0      2.453      5.769
REMARK  Name = 
REMARK  4 active torsions:
REMARK  status: ('A' for Active; 'I' for Inactive)
REMARK    1  A    between atoms: O_1  and  C_2
REMARK    2  A    between atoms: C_2  and  C_3
REMARK    3  A    between atoms: C_4  and  C_5
REMARK    4  A    between atoms: C_5  and  N_6
REMARK                            x       y       z     vdW  Elec       q    Type
REMARK                         _______ _______ _______ _____ _____    ______ ____
ROOT
ATOM      1  C   UNL     1       2.694   4.240  18.419  0.00  0.00    +0.000 C 
ATOM      2  C   UNL     1       3.197   4.660  19.824  0.00  0.00    +0.000 C 
ATOM      3  C   UNL     1       2.037   4.749  20.825  0.00  0.00    +0.000 C 
ATOM      4  C   UNL     1       1.322   3.398  20.920  0.00  0.00    +0.000 C 
ATOM      5  C   UNL     1       0.810   2.964  19.540  0.00  0.00    +0.000 C 
ATOM      6  C   UNL     1       1.972   2.880  18.532  0.00  0.00    +0.000 C 
ENDROOT
BRANCH   1   7
ATOM      7  O   UNL     1       1.800   5.201  17.911  0.00  0.00    +0.000 OA
ATOM      8  H   UNL     1       1.303   4.789  17.156  0.00  0.00    +0.000 HD
ENDBRANCH   1   7
BRANCH   1   9
ATOM      9  C   UNL     1       3.896   4.125  17.497  0.00  0.00    +0.000 C 
ATOM     10  C   UNL     1       4.928   4.027  16.705  0.00  0.00    +0.000 C 
BRANCH  10  11
ATOM     11  C   UNL     1       6.130   3.912  15.782  0.00  0.00    +0.000 C 
BRANCH  11  12
ATOM     12  N   UNL     1       7.192   4.862  16.181  0.00  0.00    +0.000 NA
ATOM     13  C   UNL     1       7.722   4.485  17.504  0.00  0.00    +0.000 C 
ATOM     14  C   UNL     1       6.935   5.313  18.504  0.00  0.00    +0.000 C 
ATOM     15  C   UNL     1       6.966   6.647  17.800  0.00  0.00    +0.000 C 
ATOM     16  C   UNL     1       6.651   6.235  16.367  0.00  0.00    +0.000 C 
ENDBRANCH  11  12
ENDBRANCH  10  11
ENDBRANCH   1   9
TORSDOF 4
ENDMDL
