MODEL 1
REMARK VINA RESULT:      -8.4      0.000      0.000
REMARK  Name = 
REMARK  4 active torsions:
REMARK  status: ('A' for Active; 'I' for Inactive)
REMARK    1  A    between atoms: C_5  and  N_6
REMARK    2  A    between atoms: N_6  and  C_7
REMARK    3  A    between atoms: C_18  and  N_19
REMARK    4  A    between atoms: N_19  and  C_20
REMARK                            x       y       z     vdW  Elec       q    Type
REMARK                         _______ _______ _______ _____ _____    ______ ____
ROOT
ATOM      1  O   UNL     1       2.458  10.392  17.370  0.00  0.00    +0.000 OA
ATOM      2  C   UNL     1       1.927   9.627  18.163  0.00  0.00    +0.000 C 
ATOM      3  C   UNL     1       2.436   8.251  18.402  0.00  0.00    +0.000 C 
ATOM      4 CL   UNL     1       3.371   7.539  17.122  0.00  0.00    +0.000 Cl
ATOM      5  C   UNL     1       2.267   7.619  19.558  0.00  0.00    +0.000 C 
ATOM      6  C   UNL     1       1.485   8.365  20.613  0.00  0.00    +0.000 C 
ATOM      7  O   UNL     1       1.632   8.115  21.803  0.00  0.00    +0.000 OA
ATOM      8  C   UNL     1       0.546   9.419  20.126  0.00  0.00    +0.000 C 
ATOM      9 CL   UNL     1      -0.733   9.881  21.198  0.00  0.00    +0.000 Cl
ATOM     10  C   UNL     1       0.726  10.043  18.952  0.00  0.00    +0.000 C 
ENDROOT
BRANCH   5  11
ATOM     11  N   UNL     1       2.845   6.391  19.870  0.00  0.00    +0.000 N 
ATOM     12  H   UNL     1       3.680   6.444  20.443  0.00  0.00    +0.000 HD
BRANCH  11  13
ATOM     13  C   UNL     1       2.189   5.138  19.889  0.00  0.00    +0.000 A 
ATOM     14  C   UNL     1       2.028   4.481  21.123  0.00  0.00    +0.000 A 
ATOM     15  C   UNL     1       1.381   3.242  21.203  0.00  0.00    +0.000 A 
ATOM     16  C   UNL     1       0.909   2.621  20.049  0.00  0.00    +0.000 A 
ATOM     17  C   UNL     1       1.113   3.225  18.811  0.00  0.00    +0.000 A 
ATOM     18  C   UNL     1       1.763   4.458  18.737  0.00  0.00    +0.000 A 
ATOM     19  F   UNL     1       1.931   5.005  17.522  0.00  0.00    +0.000 F 
ENDBRANCH  11  13
ENDBRANCH   5  11
BRANCH  10  20
ATOM     20  N   UNL     1      -0.067  11.079  18.465  0.00  0.00    +0.000 N 
ATOM     21  H   UNL     1       0.420  11.892  18.093  0.00  0.00    +0.000 HD
BRANCH  20  22
ATOM     22  C   UNL     1      -1.416  10.959  18.062  0.00  0.00    +0.000 A 
ATOM     23  C   UNL     1      -1.853   9.945  17.205  0.00  0.00    +0.000 A 
ATOM     24  C   UNL     1      -3.212   9.745  16.937  0.00  0.00    +0.000 A 
ATOM     25  C   UNL     1      -4.167  10.557  17.533  0.00  0.00    +0.000 A 
ATOM     26  C   UNL     1      -3.763  11.587  18.379  0.00  0.00    +0.000 A 
ATOM     27  C   UNL     1      -2.413  11.786  18.640  0.00  0.00    +0.000 A 
ATOM     28  F   UNL     1      -2.048  12.764  19.484  0.00  0.00    +0.000 F 
ENDBRANCH  20  22
ENDBRANCH  10  20
TORSDOF 4
ENDMDL
MODEL 2
REMARK VINA RESULT:      -8.4      5.477      7.655
REMARK  Name = 
REMARK  4 active torsions:
REMARK  status: ('A' for Active; 'I' for Inactive)
REMARK    1  A    between atoms: C_5  and  N_6
REMARK    2  A    between atoms: N_6  and  C_7
REMARK    3  A    between atoms: C_18  and  N_19
REMARK    4  A    between atoms: N_19  and  C_20
REMARK                            x       y       z     vdW  Elec       q    Type
REMARK                         _______ _______ _______ _____ _____    ______ ____
ROOT
ATOM      1  O   UNL     1       3.787   7.731  17.635  0.00  0.00    +0.000 OA
ATOM      2  C   UNL     1       4.394   6.676  17.517  0.00  0.00    +0.000 C 
ATOM      3  C   UNL     1       5.268   6.387  16.350  0.00  0.00    +0.000 C 
ATOM      4 CL   UNL     1       4.929   7.272  14.893  0.00  0.00    +0.000 Cl
ATOM      5  C   UNL     1       6.309   5.565  16.424  0.00  0.00    +0.000 C 
ATOM      6  C   UNL     1       6.534   4.900  17.761  0.00  0.00    +0.000 C 
ATOM      7  O   UNL     1       7.644   4.499  18.089  0.00  0.00    +0.000 OA
ATOM      8  C   UNL     1       5.342   4.772  18.651  0.00  0.00    +0.000 C 
ATOM      9 CL   UNL     1       5.416   3.564  19.888  0.00  0.00    +0.000 Cl
ATOM     10  C   UNL     1       4.294   5.606  18.559  0.00  0.00    +0.000 C 
ENDROOT
BRANCH   5  11
ATOM     11  N   UNL     1       7.232   5.376  15.398  0.00  0.00    +0.000 N 
ATOM     12  H   UNL     1       8.202   5.346  15.694  0.00  0.00    +0.000 HD
BRANCH  11  13
ATOM     13  C   UNL     1       6.975   4.782  14.140  0.00  0.00    +0.000 A 
ATOM     14  C   UNL     1       5.940   3.835  14.043  0.00  0.00    +0.000 A 
ATOM     15  C   UNL     1       5.636   3.219  12.822  0.00  0.00    +0.000 A 
ATOM     16  C   UNL     1       6.379   3.517  11.683  0.00  0.00    +0.000 A 
ATOM     17  C   UNL     1       7.448   4.406  11.771  0.00  0.00    +0.000 A 
ATOM     18  C   UNL     1       7.748   5.012  12.992  0.00  0.00    +0.000 A 
ATOM     19  F   UNL     1       8.784   5.868  13.028  0.00  0.00    +0.000 F 
ENDBRANCH  11  13
ENDBRANCH   5  11
BRANCH  10  20
ATOM     20  N   UNL     1       3.181   5.591  19.396  0.00  0.00    +0.000 N 
ATOM     21  H   UNL     1       2.847   6.493  19.729  0.00  0.00    +0.000 HD
BRANCH  20  22
ATOM     22  C   UNL     1       2.246   4.536  19.496  0.00  0.00    +0.000 A 
ATOM     23  C   UNL     1       1.702   3.909  18.373  0.00  0.00    +0.000 A 
ATOM     24  C   UNL     1       0.898   2.768  18.485  0.00  0.00    +0.000 A 
ATOM     25  C   UNL     1       0.628   2.226  19.734  0.00  0.00    +0.000 A 
ATOM     26  C   UNL     1       1.142   2.838  20.875  0.00  0.00    +0.000 A 
ATOM     27  C   UNL     1       1.936   3.972  20.760  0.00  0.00    +0.000 A 
ATOM     28  F   UNL     1       2.447   4.526  21.871  0.00  0.00    +0.000 F 
ENDBRANCH  20  22
ENDBRANCH  10  20
TORSDOF 4
ENDMDL
MODEL 3
REMARK VINA RESULT:      -8.2      0.953      7.135
REMARK  Name = 
REMARK  4 active torsions:
REMARK  status: ('A' for Active; 'I' for Inactive)
REMARK    1  A    between atoms: C_5  and  N_6
REMARK    2  A    between atoms: N_6  and  C_7
REMARK    3  A    between atoms: C_18  and  N_19
REMARK    4  A    between atoms: N_19  and  C_20
REMARK                            x       y       z     vdW  Elec       q    Type
REMARK                         _______ _______ _______ _____ _____    ______ ____
ROOT
ATOM      1  O   UNL     1       1.721   8.015  21.873  0.00  0.00    +0.000 OA
ATOM      2  C   UNL     1       1.514   8.251  20.691  0.00  0.00    +0.000 C 
ATOM      3  C   UNL     1       0.541   9.282  20.243  0.00  0.00    +0.000 C 
ATOM      4 CL   UNL     1      -0.724   9.688  21.364  0.00  0.00    +0.000 Cl
ATOM      5  C   UNL     1       0.666   9.928  19.089  0.00  0.00    +0.000 C 
ATOM      6  C   UNL     1       1.839   9.525  18.229  0.00  0.00    +0.000 C 
ATOM      7  O   UNL     1       2.314  10.298  17.405  0.00  0.00    +0.000 OA
ATOM      8  C   UNL     1       2.386   8.153  18.446  0.00  0.00    +0.000 C 
ATOM      9 CL   UNL     1       3.312   7.466  17.155  0.00  0.00    +0.000 Cl
ATOM     10  C   UNL     1       2.245   7.510  19.616  0.00  0.00    +0.000 C 
ENDROOT
BRANCH   5  11
ATOM     11  N   UNL     1      -0.141  10.994  18.698  0.00  0.00    +0.000 N 
ATOM     12  H   UNL     1       0.361  11.826  18.408  0.00  0.00    +0.000 HD
BRANCH  11  13
ATOM     13  C   UNL     1      -1.473  10.907  18.229  0.00  0.00    +0.000 A 
ATOM     14  C   UNL     1      -1.757  10.028  17.169  0.00  0.00    +0.000 A 
ATOM     15  C   UNL     1      -3.058   9.896  16.668  0.00  0.00    +0.000 A 
ATOM     16  C   UNL     1      -4.093  10.662  17.197  0.00  0.00    +0.000 A 
ATOM     17  C   UNL     1      -3.822  11.584  18.205  0.00  0.00    +0.000 A 
ATOM     18  C   UNL     1      -2.522  11.713  18.697  0.00  0.00    +0.000 A 
ATOM     19  F   UNL     1      -2.309  12.611  19.673  0.00  0.00    +0.000 F 
ENDBRANCH  11  13
ENDBRANCH   5  11
BRANCH  10  20
ATOM     20  N   UNL     1       2.785   6.261  19.914  0.00  0.00    +0.000 N 
ATOM     21  H   UNL     1       3.539   6.240  20.598  0.00  0.00    +0.000 HD
BRANCH  20  22
ATOM     22  C   UNL     1       2.147   5.019  19.695  0.00  0.00    +0.000 A 
ATOM     23  C   UNL     1       1.786   4.578  18.419  0.00  0.00    +0.000 A 
ATOM     24  C   UNL     1       1.296   3.285  18.200  0.00  0.00    +0.000 A 
ATOM     25  C   UNL     1       1.166   2.400  19.261  0.00  0.00    +0.000 A 
ATOM     26  C   UNL     1       1.501   2.815  20.548  0.00  0.00    +0.000 A 
ATOM     27  C   UNL     1       1.983   4.100  20.763  0.00  0.00    +0.000 A 
ATOM     28  F   UNL     1       2.330   4.468  22.006  0.00  0.00    +0.000 F 
ENDBRANCH  20  22
ENDBRANCH  10  20
TORSDOF 4
ENDMDL
MODEL 4
REMARK VINA RESULT:      -8.2      5.427      7.976
REMARK  Name = 
REMARK  4 active torsions:
REMARK  status: ('A' for Active; 'I' for Inactive)
REMARK    1  A    between atoms: C_5  and  N_6
REMARK    2  A    between atoms: N_6  and  C_7
REMARK    3  A    between atoms: C_18  and  N_19
REMARK    4  A    between atoms: N_19  and  C_20
REMARK                            x       y       z     vdW  Elec       q    Type
REMARK                         _______ _______ _______ _____ _____    ______ ____
ROOT
ATOM      1  O   UNL     1       7.756   4.677  18.126  0.00  0.00    +0.000 OA
ATOM      2  C   UNL     1       6.627   4.998  17.784  0.00  0.00    +0.000 C 
ATOM      3  C   UNL     1       5.445   4.818  18.668  0.00  0.00    +0.000 C 
ATOM      4 CL   UNL     1       5.581   3.601  19.901  0.00  0.00    +0.000 Cl
ATOM      5  C   UNL     1       4.370   5.594  18.589  0.00  0.00    +0.000 C 
ATOM      6  C   UNL     1       4.396   6.654  17.513  0.00  0.00    +0.000 C 
ATOM      7  O   UNL     1       3.718   7.670  17.610  0.00  0.00    +0.000 OA
ATOM      8  C   UNL     1       5.292   6.398  16.346  0.00  0.00    +0.000 C 
ATOM      9 CL   UNL     1       4.941   7.260  14.887  0.00  0.00    +0.000 Cl
ATOM     10  C   UNL     1       6.371   5.604  16.440  0.00  0.00    +0.000 C 
ENDROOT
BRANCH   5  11
ATOM     11  N   UNL     1       3.306   5.550  19.485  0.00  0.00    +0.000 N 
ATOM     12  H   UNL     1       2.979   6.455  19.807  0.00  0.00    +0.000 HD
BRANCH  11  13
ATOM     13  C   UNL     1       2.372   4.496  19.625  0.00  0.00    +0.000 A 
ATOM     14  C   UNL     1       2.158   3.953  20.905  0.00  0.00    +0.000 A 
ATOM     15  C   UNL     1       1.241   2.913  21.104  0.00  0.00    +0.000 A 
ATOM     16  C   UNL     1       0.543   2.377  20.025  0.00  0.00    +0.000 A 
ATOM     17  C   UNL     1       0.786   2.860  18.741  0.00  0.00    +0.000 A 
ATOM     18  C   UNL     1       1.704   3.892  18.548  0.00  0.00    +0.000 A 
ATOM     19  F   UNL     1       1.901   4.329  17.293  0.00  0.00    +0.000 F 
ENDBRANCH  11  13
ENDBRANCH   5  11
BRANCH  10  20
ATOM     20  N   UNL     1       7.287   5.374  15.417  0.00  0.00    +0.000 N 
ATOM     21  H   UNL     1       8.273   5.420  15.667  0.00  0.00    +0.000 HD
BRANCH  20  22
ATOM     22  C   UNL     1       7.012   4.696  14.208  0.00  0.00    +0.000 A 
ATOM     23  C   UNL     1       5.938   3.813  14.073  0.00  0.00    +0.000 A 
ATOM     24  C   UNL     1       5.586   3.268  12.832  0.00  0.00    +0.000 A 
ATOM     25  C   UNL     1       6.303   3.609  11.693  0.00  0.00    +0.000 A 
ATOM     26  C   UNL     1       7.389   4.474  11.797  0.00  0.00    +0.000 A 
ATOM     27  C   UNL     1       7.739   5.009  13.030  0.00  0.00    +0.000 A 
ATOM     28  F   UNL     1       8.769   5.866  13.102  0.00  0.00    +0.000 F 
ENDBRANCH  20  22
ENDBRANCH  10  20
TORSDOF 4
ENDMDL
MODEL 5
REMARK VINA RESULT:      -8.2      5.520      8.094
REMARK  Name = 
REMARK  4 active torsions:
REMARK  status: ('A' for Active; 'I' for Inactive)
REMARK    1  A    between atoms: C_5  and  N_6
REMARK    2  A    between atoms: N_6  and  C_7
REMARK    3  A    between atoms: C_18  and  N_19
REMARK    4  A    between atoms: N_19  and  C_20
REMARK                            x       y       z     vdW  Elec       q    Type
REMARK                         _______ _______ _______ _____ _____    ______ ____
ROOT
ATOM      1  O   UNL     1       7.750   4.687  18.088  0.00  0.00    +0.000 OA
ATOM      2  C   UNL     1       6.622   5.009  17.743  0.00  0.00    +0.000 C 
ATOM      3  C   UNL     1       5.437   4.817  18.620  0.00  0.00    +0.000 C 
ATOM      4 CL   UNL     1       5.570   3.588  19.842  0.00  0.00    +0.000 Cl
ATOM      5  C   UNL     1       4.360   5.591  18.544  0.00  0.00    +0.000 C 
ATOM      6  C   UNL     1       4.388   6.662  17.479  0.00  0.00    +0.000 C 
ATOM      7  O   UNL     1       3.707   7.675  17.584  0.00  0.00    +0.000 OA
ATOM      8  C   UNL     1       5.290   6.420  16.314  0.00  0.00    +0.000 C 
ATOM      9 CL   UNL     1       4.943   7.296  14.862  0.00  0.00    +0.000 Cl
ATOM     10  C   UNL     1       6.370   5.629  16.405  0.00  0.00    +0.000 C 
ENDROOT
BRANCH   5  11
ATOM     11  N   UNL     1       3.292   5.535  19.435  0.00  0.00    +0.000 N 
ATOM     12  H   UNL     1       2.937   6.437  19.736  0.00  0.00    +0.000 HD
BRANCH  11  13
ATOM     13  C   UNL     1       2.388   4.458  19.593  0.00  0.00    +0.000 A 
ATOM     14  C   UNL     1       1.781   3.917  18.445  0.00  0.00    +0.000 A 
ATOM     15  C   UNL     1       0.883   2.846  18.539  0.00  0.00    +0.000 A 
ATOM     16  C   UNL     1       0.554   2.315  19.784  0.00  0.00    +0.000 A 
ATOM     17  C   UNL     1       1.097   2.876  20.937  0.00  0.00    +0.000 A 
ATOM     18  C   UNL     1       1.987   3.946  20.837  0.00  0.00    +0.000 A 
ATOM     19  F   UNL     1       2.490   4.452  21.975  0.00  0.00    +0.000 F 
ENDBRANCH  11  13
ENDBRANCH   5  11
BRANCH  10  20
ATOM     20  N   UNL     1       7.292   5.411  15.383  0.00  0.00    +0.000 N 
ATOM     21  H   UNL     1       8.277   5.482  15.634  0.00  0.00    +0.000 HD
BRANCH  20  22
ATOM     22  C   UNL     1       7.033   4.717  14.180  0.00  0.00    +0.000 A 
ATOM     23  C   UNL     1       5.965   3.827  14.045  0.00  0.00    +0.000 A 
ATOM     24  C   UNL     1       5.628   3.265  12.807  0.00  0.00    +0.000 A 
ATOM     25  C   UNL     1       6.355   3.594  11.672  0.00  0.00    +0.000 A 
ATOM     26  C   UNL     1       7.437   4.466  11.777  0.00  0.00    +0.000 A 
ATOM     27  C   UNL     1       7.771   5.018  13.007  0.00  0.00    +0.000 A 
ATOM     28  F   UNL     1       8.797   5.881  13.079  0.00  0.00    +0.000 F 
ENDBRANCH  20  22
ENDBRANCH  10  20
TORSDOF 4
ENDMDL
MODEL 6
REMARK VINA RESULT:      -8.2      0.931      1.325
REMARK  Name = 
REMARK  4 active torsions:
REMARK  status: ('A' for Active; 'I' for Inactive)
REMARK    1  A    between atoms: C_5  and  N_6
REMARK    2  A    between atoms: N_6  and  C_7
REMARK    3  A    between atoms: C_18  and  N_19
REMARK    4  A    between atoms: N_19  and  C_20
REMARK                            x       y       z     vdW  Elec       q    Type
REMARK                         _______ _______ _______ _____ _____    ______ ____
ROOT
ATOM      1  O   UNL     1       2.324  10.483  17.482  0.00  0.00    +0.000 OA
ATOM      2  C   UNL     1       1.826   9.686  18.264  0.00  0.00    +0.000 C 
ATOM      3  C   UNL     1       2.344   8.302  18.428  0.00  0.00    +0.000 C 
ATOM      4 CL   UNL     1       3.230   7.644  17.085  0.00  0.00    +0.000 Cl
ATOM      5  C   UNL     1       2.221   7.625  19.564  0.00  0.00    +0.000 C 
ATOM      6  C   UNL     1       1.481   8.327  20.677  0.00  0.00    +0.000 C 
ATOM      7  O   UNL     1       1.674   8.030  21.850  0.00  0.00    +0.000 OA
ATOM      8  C   UNL     1       0.522   9.396  20.270  0.00  0.00    +0.000 C 
ATOM      9 CL   UNL     1      -0.714   9.813  21.408  0.00  0.00    +0.000 Cl
ATOM     10  C   UNL     1       0.656  10.067  19.115  0.00  0.00    +0.000 C 
ENDROOT
BRANCH   5  11
ATOM     11  N   UNL     1       2.812   6.387  19.804  0.00  0.00    +0.000 N 
ATOM     12  H   UNL     1       3.578   6.400  20.470  0.00  0.00    +0.000 HD
BRANCH  11  13
ATOM     13  C   UNL     1       2.211   5.121  19.614  0.00  0.00    +0.000 A 
ATOM     14  C   UNL     1       1.806   4.756  18.317  0.00  0.00    +0.000 A 
ATOM     15  C   UNL     1       1.211   3.513  18.069  0.00  0.00    +0.000 A 
ATOM     16  C   UNL     1       0.982   2.623  19.115  0.00  0.00    +0.000 A 
ATOM     17  C   UNL     1       1.319   2.990  20.416  0.00  0.00    +0.000 A 
ATOM     18  C   UNL     1       1.907   4.232  20.658  0.00  0.00    +0.000 A 
ATOM     19  F   UNL     1       2.221   4.540  21.928  0.00  0.00    +0.000 F 
ENDBRANCH  11  13
ENDBRANCH   5  11
BRANCH  10  20
ATOM     20  N   UNL     1      -0.157  11.120  18.701  0.00  0.00    +0.000 N 
ATOM     21  H   UNL     1       0.306  12.005  18.505  0.00  0.00    +0.000 HD
BRANCH  20  22
ATOM     22  C   UNL     1      -1.448  10.987  18.143  0.00  0.00    +0.000 A 
ATOM     23  C   UNL     1      -1.749  10.028  17.173  0.00  0.00    +0.000 A 
ATOM     24  C   UNL     1      -3.062   9.806  16.741  0.00  0.00    +0.000 A 
ATOM     25  C   UNL     1      -4.107  10.541  17.283  0.00  0.00    +0.000 A 
ATOM     26  C   UNL     1      -3.838  11.517  18.240  0.00  0.00    +0.000 A 
ATOM     27  C   UNL     1      -2.534  11.738  18.663  0.00  0.00    +0.000 A 
ATOM     28  F   UNL     1      -2.301  12.661  19.609  0.00  0.00    +0.000 F 
ENDBRANCH  20  22
ENDBRANCH  10  20
TORSDOF 4
ENDMDL
MODEL 7
REMARK VINA RESULT:      -8.1      0.478      7.082
REMARK  Name = 
REMARK  4 active torsions:
REMARK  status: ('A' for Active; 'I' for Inactive)
REMARK    1  A    between atoms: C_5  and  N_6
REMARK    2  A    between atoms: N_6  and  C_7
REMARK    3  A    between atoms: C_18  and  N_19
REMARK    4  A    between atoms: N_19  and  C_20
REMARK                            x       y       z     vdW  Elec       q    Type
REMARK                         _______ _______ _______ _____ _____    ______ ____
ROOT
ATOM      1  O   UNL     1       1.736   8.029  21.833  0.00  0.00    +0.000 OA
ATOM      2  C   UNL     1       1.525   8.289  20.657  0.00  0.00    +0.000 C 
ATOM      3  C   UNL     1       0.518   9.297  20.232  0.00  0.00    +0.000 C 
ATOM      4 CL   UNL     1      -0.764   9.630  21.357  0.00  0.00    +0.000 Cl
ATOM      5  C   UNL     1       0.625   9.978  19.096  0.00  0.00    +0.000 C 
ATOM      6  C   UNL     1       1.815   9.638  18.230  0.00  0.00    +0.000 C 
ATOM      7  O   UNL     1       2.266  10.449  17.429  0.00  0.00    +0.000 OA
ATOM      8  C   UNL     1       2.408   8.280  18.415  0.00  0.00    +0.000 C 
ATOM      9 CL   UNL     1       3.362   7.660  17.109  0.00  0.00    +0.000 Cl
ATOM     10  C   UNL     1       2.285   7.602  19.566  0.00  0.00    +0.000 C 
ENDROOT
BRANCH   5  11
ATOM     11  N   UNL     1      -0.216  11.025  18.729  0.00  0.00    +0.000 N 
ATOM     12  H   UNL     1       0.257  11.887  18.478  0.00  0.00    +0.000 HD
BRANCH  11  13
ATOM     13  C   UNL     1      -1.536  10.904  18.235  0.00  0.00    +0.000 A 
ATOM     14  C   UNL     1      -1.776  10.019  17.168  0.00  0.00    +0.000 A 
ATOM     15  C   UNL     1      -3.063   9.854  16.642  0.00  0.00    +0.000 A 
ATOM     16  C   UNL     1      -4.129  10.592  17.151  0.00  0.00    +0.000 A 
ATOM     17  C   UNL     1      -3.901  11.519  18.166  0.00  0.00    +0.000 A 
ATOM     18  C   UNL     1      -2.615  11.682  18.682  0.00  0.00    +0.000 A 
ATOM     19  F   UNL     1      -2.444  12.584  19.664  0.00  0.00    +0.000 F 
ENDBRANCH  11  13
ENDBRANCH   5  11
BRANCH  10  20
ATOM     20  N   UNL     1       2.866   6.365  19.833  0.00  0.00    +0.000 N 
ATOM     21  H   UNL     1       3.664   6.362  20.467  0.00  0.00    +0.000 HD
BRANCH  20  22
ATOM     22  C   UNL     1       2.239   5.111  19.661  0.00  0.00    +0.000 A 
ATOM     23  C   UNL     1       1.401   4.554  20.629  0.00  0.00    +0.000 A 
ATOM     24  C   UNL     1       0.667   3.387  20.383  0.00  0.00    +0.000 A 
ATOM     25  C   UNL     1       0.753   2.757  19.149  0.00  0.00    +0.000 A 
ATOM     26  C   UNL     1       1.593   3.279  18.168  0.00  0.00    +0.000 A 
ATOM     27  C   UNL     1       2.324   4.433  18.417  0.00  0.00    +0.000 A 
ATOM     28  F   UNL     1       3.102   4.936  17.446  0.00  0.00    +0.000 F 
ENDBRANCH  20  22
ENDBRANCH  10  20
TORSDOF 4
ENDMDL
MODEL 8
REMARK VINA RESULT:      -8.1      1.304      6.959
REMARK  Name = 
REMARK  4 active torsions:
REMARK  status: ('A' for Active; 'I' for Inactive)
REMARK    1  A    between atoms: C_5  and  N_6
REMARK    2  A    between atoms: N_6  and  C_7
REMARK    3  A    between atoms: C_18  and  N_19
REMARK    4  A    between atoms: N_19  and  C_20
REMARK                            x       y       z     vdW  Elec       q    Type
REMARK                         _______ _______ _______ _____ _____    ______ ____
ROOT
ATOM      1  O   UNL     1       1.704   8.066  21.905  0.00  0.00    +0.000 OA
ATOM      2  C   UNL     1       1.491   8.310  20.726  0.00  0.00    +0.000 C 
ATOM      3  C   UNL     1       0.518   9.346  20.291  0.00  0.00    +0.000 C 
ATOM      4 CL   UNL     1      -0.740   9.748  21.420  0.00  0.00    +0.000 Cl
ATOM      5  C   UNL     1       0.639   9.999  19.141  0.00  0.00    +0.000 C 
ATOM      6  C   UNL     1       1.806   9.600  18.271  0.00  0.00    +0.000 C 
ATOM      7  O   UNL     1       2.278  10.377  17.450  0.00  0.00    +0.000 OA
ATOM      8  C   UNL     1       2.351   8.225  18.477  0.00  0.00    +0.000 C 
ATOM      9 CL   UNL     1       3.268   7.544  17.175  0.00  0.00    +0.000 Cl
ATOM     10  C   UNL     1       2.215   7.574  19.642  0.00  0.00    +0.000 C 
ENDROOT
BRANCH   5  11
ATOM     11  N   UNL     1      -0.167  11.070  18.761  0.00  0.00    +0.000 N 
ATOM     12  H   UNL     1       0.334  11.888  18.433  0.00  0.00    +0.000 HD
BRANCH  11  13
ATOM     13  C   UNL     1      -1.519  10.995  18.349  0.00  0.00    +0.000 A 
ATOM     14  C   UNL     1      -2.466  11.806  19.000  0.00  0.00    +0.000 A 
ATOM     15  C   UNL     1      -3.817  11.779  18.630  0.00  0.00    +0.000 A 
ATOM     16  C   UNL     1      -4.251  10.921  17.624  0.00  0.00    +0.000 A 
ATOM     17  C   UNL     1      -3.339  10.065  17.009  0.00  0.00    +0.000 A 
ATOM     18  C   UNL     1      -1.996  10.093  17.385  0.00  0.00    +0.000 A 
ATOM     19  F   UNL     1      -1.153   9.254  16.760  0.00  0.00    +0.000 F 
ENDBRANCH  11  13
ENDBRANCH   5  11
BRANCH  10  20
ATOM     20  N   UNL     1       2.753   6.322  19.929  0.00  0.00    +0.000 N 
ATOM     21  H   UNL     1       3.502   6.293  20.619  0.00  0.00    +0.000 HD
BRANCH  20  22
ATOM     22  C   UNL     1       2.118   5.083  19.689  0.00  0.00    +0.000 A 
ATOM     23  C   UNL     1       1.764   4.660  18.406  0.00  0.00    +0.000 A 
ATOM     24  C   UNL     1       1.277   3.369  18.165  0.00  0.00    +0.000 A 
ATOM     25  C   UNL     1       1.143   2.468  19.214  0.00  0.00    +0.000 A 
ATOM     26  C   UNL     1       1.471   2.866  20.508  0.00  0.00    +0.000 A 
ATOM     27  C   UNL     1       1.950   4.148  20.743  0.00  0.00    +0.000 A 
ATOM     28  F   UNL     1       2.291   4.499  21.993  0.00  0.00    +0.000 F 
ENDBRANCH  20  22
ENDBRANCH  10  20
TORSDOF 4
ENDMDL
MODEL 9
REMARK VINA RESULT:      -8.1      5.464      7.739
REMARK  Name = 
REMARK  4 active torsions:
REMARK  status: ('A' for Active; 'I' for Inactive)
REMARK    1  A    between atoms: C_5  and  N_6
REMARK    2  A    between atoms: N_6  and  C_7
REMARK    3  A    between atoms: C_18  and  N_19
REMARK    4  A    between atoms: N_19  and  C_20
REMARK                            x       y       z     vdW  Elec       q    Type
REMARK                         _______ _______ _______ _____ _____    ______ ____
ROOT
ATOM      1  O   UNL     1       3.853   7.654  17.697  0.00  0.00    +0.000 OA
ATOM      2  C   UNL     1       4.476   6.610  17.566  0.00  0.00    +0.000 C 
ATOM      3  C   UNL     1       5.334   6.337  16.383  0.00  0.00    +0.000 C 
ATOM      4 CL   UNL     1       4.954   7.217  14.934  0.00  0.00    +0.000 Cl
ATOM      5  C   UNL     1       6.389   5.532  16.438  0.00  0.00    +0.000 C 
ATOM      6  C   UNL     1       6.649   4.870  17.770  0.00  0.00    +0.000 C 
ATOM      7  O   UNL     1       7.771   4.487  18.078  0.00  0.00    +0.000 OA
ATOM      8  C   UNL     1       5.475   4.721  18.681  0.00  0.00    +0.000 C 
ATOM      9 CL   UNL     1       5.591   3.513  19.915  0.00  0.00    +0.000 Cl
ATOM     10  C   UNL     1       4.412   5.537  18.608  0.00  0.00    +0.000 C 
ENDROOT
BRANCH   5  11
ATOM     11  N   UNL     1       7.297   5.360  15.396  0.00  0.00    +0.000 N 
ATOM     12  H   UNL     1       8.271   5.327  15.677  0.00  0.00    +0.000 HD
BRANCH  11  13
ATOM     13  C   UNL     1       7.022   4.784  14.134  0.00  0.00    +0.000 A 
ATOM     14  C   UNL     1       6.002   3.820  14.042  0.00  0.00    +0.000 A 
ATOM     15  C   UNL     1       5.681   3.221  12.817  0.00  0.00    +0.000 A 
ATOM     16  C   UNL     1       6.394   3.552  11.667  0.00  0.00    +0.000 A 
ATOM     17  C   UNL     1       7.449   4.458  11.748  0.00  0.00    +0.000 A 
ATOM     18  C   UNL     1       7.766   5.048  12.973  0.00  0.00    +0.000 A 
ATOM     19  F   UNL     1       8.787   5.920  13.001  0.00  0.00    +0.000 F 
ENDBRANCH  11  13
ENDBRANCH   5  11
BRANCH  10  20
ATOM     20  N   UNL     1       3.314   5.502  19.465  0.00  0.00    +0.000 N 
ATOM     21  H   UNL     1       2.922   6.400  19.742  0.00  0.00    +0.000 HD
BRANCH  20  22
ATOM     22  C   UNL     1       2.458   4.395  19.654  0.00  0.00    +0.000 A 
ATOM     23  C   UNL     1       2.185   3.867  20.918  0.00  0.00    +0.000 A 
ATOM     24  C   UNL     1       1.218   2.871  21.106  0.00  0.00    +0.000 A 
ATOM     25  C   UNL     1       0.495   2.389  20.023  0.00  0.00    +0.000 A 
ATOM     26  C   UNL     1       0.755   2.884  18.747  0.00  0.00    +0.000 A 
ATOM     27  C   UNL     1       1.718   3.868  18.564  0.00  0.00    +0.000 A 
ATOM     28  F   UNL     1       1.929   4.354  17.330  0.00  0.00    +0.000 F 
ENDBRANCH  20  22
ENDBRANCH  10  20
TORSDOF 4
ENDMDL
