MODEL 1
REMARK VINA RESULT:      -7.2      0.000      0.000
REMARK  Name = 
REMARK  2 active torsions:
REMARK  status: ('A' for Active; 'I' for Inactive)
REMARK    1  A    between atoms: C_4  and  C_5
REMARK    2  A    between atoms: C_14  and  C_15
REMARK                            x       y       z     vdW  Elec       q    Type
REMARK                         _______ _______ _______ _____ _____    ______ ____
ROOT
ATOM      1  O   UNL     1       3.036   7.834  17.580  0.00  0.00    +0.000 OA
ATOM      2  C   UNL     1       2.440   7.879  18.640  0.00  0.00    +0.000 C 
ATOM      3  O   UNL     1       1.668   8.941  19.076  0.00  0.00    +0.000 OA
ATOM      4  C   UNL     1       1.178   8.551  20.337  0.00  0.00    +0.000 C 
ATOM      5  C   UNL     1       1.543   7.331  20.734  0.00  0.00    +0.000 C 
ATOM      6  C   UNL     1       2.388   6.829  19.700  0.00  0.00    +0.000 C 
ATOM      7  C   UNL     1       3.011   5.644  19.743  0.00  0.00    +0.000 C 
ENDROOT
BRANCH   4   8
ATOM      8  C   UNL     1       0.334   9.500  21.073  0.00  0.00    +0.000 A 
ATOM      9  C   UNL     1      -0.236  10.606  20.422  0.00  0.00    +0.000 A 
ATOM     10  C   UNL     1      -1.032  11.520  21.120  0.00  0.00    +0.000 A 
ATOM     11  C   UNL     1      -1.270  11.332  22.478  0.00  0.00    +0.000 A 
ATOM     12 CL   UNL     1      -2.235  12.463  23.340  0.00  0.00    +0.000 Cl
ATOM     13  C   UNL     1      -0.728  10.231  23.139  0.00  0.00    +0.000 A 
ATOM     14  C   UNL     1       0.066   9.317  22.436  0.00  0.00    +0.000 A 
ENDBRANCH   4   8
BRANCH   7  15
ATOM     15  C   UNL     1       3.933   5.129  18.734  0.00  0.00    +0.000 A 
ATOM     16  C   UNL     1       3.453   4.426  17.630  0.00  0.00    +0.000 A 
ATOM     17  C   UNL     1       4.346   3.982  16.658  0.00  0.00    +0.000 A 
ATOM     18  C   UNL     1       5.693   4.262  16.824  0.00  0.00    +0.000 A 
ATOM     19  N   UNL     1       6.194   4.946  17.876  0.00  0.00    +0.000 NA
ATOM     20  C   UNL     1       5.304   5.354  18.812  0.00  0.00    +0.000 A 
ENDBRANCH   7  15
TORSDOF 2
ENDMDL
MODEL 2
REMARK VINA RESULT:      -7.1      0.302      1.091
REMARK  Name = 
REMARK  2 active torsions:
REMARK  status: ('A' for Active; 'I' for Inactive)
REMARK    1  A    between atoms: C_4  and  C_5
REMARK    2  A    between atoms: C_14  and  C_15
REMARK                            x       y       z     vdW  Elec       q    Type
REMARK                         _______ _______ _______ _____ _____    ______ ____
ROOT
ATOM      1  O   UNL     1       2.853   7.803  17.621  0.00  0.00    +0.000 OA
ATOM      2  C   UNL     1       2.317   7.904  18.708  0.00  0.00    +0.000 C 
ATOM      3  O   UNL     1       1.593   8.999  19.142  0.00  0.00    +0.000 OA
ATOM      4  C   UNL     1       1.166   8.671  20.443  0.00  0.00    +0.000 C 
ATOM      5  C   UNL     1       1.527   7.460  20.868  0.00  0.00    +0.000 C 
ATOM      6  C   UNL     1       2.303   6.898  19.812  0.00  0.00    +0.000 C 
ATOM      7  C   UNL     1       2.903   5.702  19.869  0.00  0.00    +0.000 C 
ENDROOT
BRANCH   4   8
ATOM      8  C   UNL     1       0.384   9.668  21.184  0.00  0.00    +0.000 A 
ATOM      9  C   UNL     1      -0.189   9.351  22.426  0.00  0.00    +0.000 A 
ATOM     10  C   UNL     1      -0.944  10.293  23.132  0.00  0.00    +0.000 A 
ATOM     11  C   UNL     1      -1.129  11.566  22.602  0.00  0.00    +0.000 A 
ATOM     12 CL   UNL     1      -2.070  12.720  23.460  0.00  0.00    +0.000 Cl
ATOM     13  C   UNL     1      -0.554  11.907  21.378  0.00  0.00    +0.000 A 
ATOM     14  C   UNL     1       0.204  10.962  20.676  0.00  0.00    +0.000 A 
ENDBRANCH   4   8
BRANCH   7  15
ATOM     15  C   UNL     1       3.757   5.126  18.833  0.00  0.00    +0.000 A 
ATOM     16  C   UNL     1       3.201   4.396  17.783  0.00  0.00    +0.000 A 
ATOM     17  C   UNL     1       4.030   3.893  16.783  0.00  0.00    +0.000 A 
ATOM     18  C   UNL     1       5.390   4.144  16.868  0.00  0.00    +0.000 A 
ATOM     19  N   UNL     1       5.963   4.853  17.865  0.00  0.00    +0.000 NA
ATOM     20  C   UNL     1       5.134   5.318  18.830  0.00  0.00    +0.000 A 
ENDBRANCH   7  15
TORSDOF 2
ENDMDL
MODEL 3
REMARK VINA RESULT:      -7.1      1.141      1.551
REMARK  Name = 
REMARK  2 active torsions:
REMARK  status: ('A' for Active; 'I' for Inactive)
REMARK    1  A    between atoms: C_4  and  C_5
REMARK    2  A    between atoms: C_14  and  C_15
REMARK                            x       y       z     vdW  Elec       q    Type
REMARK                         _______ _______ _______ _____ _____    ______ ____
ROOT
ATOM      1  O   UNL     1       4.121   7.501  16.742  0.00  0.00    +0.000 OA
ATOM      2  C   UNL     1       3.492   7.404  17.779  0.00  0.00    +0.000 C 
ATOM      3  O   UNL     1       2.666   8.381  18.305  0.00  0.00    +0.000 OA
ATOM      4  C   UNL     1       2.154   7.832  19.497  0.00  0.00    +0.000 C 
ATOM      5  C   UNL     1       2.554   6.589  19.765  0.00  0.00    +0.000 C 
ATOM      6  C   UNL     1       3.450   6.238  18.711  0.00  0.00    +0.000 C 
ATOM      7  C   UNL     1       4.117   5.079  18.641  0.00  0.00    +0.000 C 
ENDROOT
BRANCH   4   8
ATOM      8  C   UNL     1       1.251   8.660  20.305  0.00  0.00    +0.000 A 
ATOM      9  C   UNL     1       0.467   9.660  19.707  0.00  0.00    +0.000 A 
ATOM     10  C   UNL     1      -0.387  10.459  20.473  0.00  0.00    +0.000 A 
ATOM     11  C   UNL     1      -0.468  10.261  21.848  0.00  0.00    +0.000 A 
ATOM     12 CL   UNL     1      -1.505  11.254  22.794  0.00  0.00    +0.000 Cl
ATOM     13  C   UNL     1       0.288   9.263  22.460  0.00  0.00    +0.000 A 
ATOM     14  C   UNL     1       1.140   8.462  21.688  0.00  0.00    +0.000 A 
ENDBRANCH   4   8
BRANCH   7  15
ATOM     15  C   UNL     1       5.089   4.716  17.614  0.00  0.00    +0.000 A 
ATOM     16  C   UNL     1       4.669   4.140  16.415  0.00  0.00    +0.000 A 
ATOM     17  C   UNL     1       5.609   3.842  15.431  0.00  0.00    +0.000 A 
ATOM     18  C   UNL     1       6.940   4.136  15.681  0.00  0.00    +0.000 A 
ATOM     19  N   UNL     1       7.383   4.700  16.826  0.00  0.00    +0.000 NA
ATOM     20  C   UNL     1       6.448   4.967  17.769  0.00  0.00    +0.000 A 
ENDBRANCH   7  15
TORSDOF 2
ENDMDL
MODEL 4
REMARK VINA RESULT:      -7.1      6.191      7.857
REMARK  Name = 
REMARK  2 active torsions:
REMARK  status: ('A' for Active; 'I' for Inactive)
REMARK    1  A    between atoms: C_4  and  C_5
REMARK    2  A    between atoms: C_14  and  C_15
REMARK                            x       y       z     vdW  Elec       q    Type
REMARK                         _______ _______ _______ _____ _____    ______ ____
ROOT
ATOM      1  O   UNL     1       7.881   5.807  18.856  0.00  0.00    +0.000 OA
ATOM      2  C   UNL     1       7.947   6.983  18.550  0.00  0.00    +0.000 C 
ATOM      3  O   UNL     1       8.846   7.894  19.073  0.00  0.00    +0.000 OA
ATOM      4  C   UNL     1       8.557   9.112  18.430  0.00  0.00    +0.000 C 
ATOM      5  C   UNL     1       7.577   9.057  17.528  0.00  0.00    +0.000 C 
ATOM      6  C   UNL     1       7.104   7.712  17.557  0.00  0.00    +0.000 C 
ATOM      7  C   UNL     1       6.075   7.257  16.829  0.00  0.00    +0.000 C 
ENDROOT
BRANCH   4   8
ATOM      8  C   UNL     1       9.344  10.294  18.805  0.00  0.00    +0.000 A 
ATOM      9  C   UNL     1       9.961  11.086  17.823  0.00  0.00    +0.000 A 
ATOM     10  C   UNL     1      10.720  12.206  18.176  0.00  0.00    +0.000 A 
ATOM     11  C   UNL     1      10.864  12.548  19.517  0.00  0.00    +0.000 A 
ATOM     12 CL   UNL     1      11.811  13.915  19.952  0.00  0.00    +0.000 Cl
ATOM     13  C   UNL     1      10.246  11.785  20.506  0.00  0.00    +0.000 A 
ATOM     14  C   UNL     1       9.484  10.666  20.149  0.00  0.00    +0.000 A 
ENDBRANCH   4   8
BRANCH   7  15
ATOM     15  C   UNL     1       5.524   5.906  16.884  0.00  0.00    +0.000 A 
ATOM     16  C   UNL     1       4.463   5.608  17.738  0.00  0.00    +0.000 A 
ATOM     17  C   UNL     1       3.924   4.323  17.741  0.00  0.00    +0.000 A 
ATOM     18  C   UNL     1       4.468   3.380  16.883  0.00  0.00    +0.000 A 
ATOM     19  N   UNL     1       5.490   3.633  16.038  0.00  0.00    +0.000 NA
ATOM     20  C   UNL     1       6.001   4.887  16.066  0.00  0.00    +0.000 A 
ENDBRANCH   7  15
TORSDOF 2
ENDMDL
MODEL 5
REMARK VINA RESULT:      -7.1      6.214      7.854
REMARK  Name = 
REMARK  2 active torsions:
REMARK  status: ('A' for Active; 'I' for Inactive)
REMARK    1  A    between atoms: C_4  and  C_5
REMARK    2  A    between atoms: C_14  and  C_15
REMARK                            x       y       z     vdW  Elec       q    Type
REMARK                         _______ _______ _______ _____ _____    ______ ____
ROOT
ATOM      1  O   UNL     1       7.862   5.815  18.817  0.00  0.00    +0.000 OA
ATOM      2  C   UNL     1       7.930   6.993  18.522  0.00  0.00    +0.000 C 
ATOM      3  O   UNL     1       8.835   7.896  19.050  0.00  0.00    +0.000 OA
ATOM      4  C   UNL     1       8.547   9.122  18.421  0.00  0.00    +0.000 C 
ATOM      5  C   UNL     1       7.562   9.080  17.523  0.00  0.00    +0.000 C 
ATOM      6  C   UNL     1       7.084   7.736  17.542  0.00  0.00    +0.000 C 
ATOM      7  C   UNL     1       6.051   7.292  16.814  0.00  0.00    +0.000 C 
ENDROOT
BRANCH   4   8
ATOM      8  C   UNL     1       9.339  10.297  18.804  0.00  0.00    +0.000 A 
ATOM      9  C   UNL     1       9.942  11.106  17.827  0.00  0.00    +0.000 A 
ATOM     10  C   UNL     1      10.706  12.220  18.187  0.00  0.00    +0.000 A 
ATOM     11  C   UNL     1      10.872  12.538  19.531  0.00  0.00    +0.000 A 
ATOM     12 CL   UNL     1      11.825  13.898  19.975  0.00  0.00    +0.000 Cl
ATOM     13  C   UNL     1      10.268  11.759  20.517  0.00  0.00    +0.000 A 
ATOM     14  C   UNL     1       9.500  10.646  20.152  0.00  0.00    +0.000 A 
ENDBRANCH   4   8
BRANCH   7  15
ATOM     15  C   UNL     1       5.495   5.942  16.858  0.00  0.00    +0.000 A 
ATOM     16  C   UNL     1       5.954   4.960  15.980  0.00  0.00    +0.000 A 
ATOM     17  C   UNL     1       5.441   3.667  16.069  0.00  0.00    +0.000 A 
ATOM     18  C   UNL     1       4.488   3.402  17.040  0.00  0.00    +0.000 A 
ATOM     19  N   UNL     1       4.026   4.325  17.911  0.00  0.00    +0.000 NA
ATOM     20  C   UNL     1       4.533   5.576  17.793  0.00  0.00    +0.000 A 
ENDBRANCH   7  15
TORSDOF 2
ENDMDL
MODEL 6
REMARK VINA RESULT:      -7.1      6.188      7.912
REMARK  Name = 
REMARK  2 active torsions:
REMARK  status: ('A' for Active; 'I' for Inactive)
REMARK    1  A    between atoms: C_4  and  C_5
REMARK    2  A    between atoms: C_14  and  C_15
REMARK                            x       y       z     vdW  Elec       q    Type
REMARK                         _______ _______ _______ _____ _____    ______ ____
ROOT
ATOM      1  O   UNL     1       7.897   5.819  18.845  0.00  0.00    +0.000 OA
ATOM      2  C   UNL     1       7.960   6.996  18.543  0.00  0.00    +0.000 C 
ATOM      3  O   UNL     1       8.856   7.908  19.070  0.00  0.00    +0.000 OA
ATOM      4  C   UNL     1       8.563   9.128  18.431  0.00  0.00    +0.000 C 
ATOM      5  C   UNL     1       7.584   9.073  17.529  0.00  0.00    +0.000 C 
ATOM      6  C   UNL     1       7.114   7.727  17.553  0.00  0.00    +0.000 C 
ATOM      7  C   UNL     1       6.087   7.272  16.823  0.00  0.00    +0.000 C 
ENDROOT
BRANCH   4   8
ATOM      8  C   UNL     1       9.346  10.310  18.811  0.00  0.00    +0.000 A 
ATOM      9  C   UNL     1       9.481  10.678  20.159  0.00  0.00    +0.000 A 
ATOM     10  C   UNL     1      10.218  11.809  20.526  0.00  0.00    +0.000 A 
ATOM     11  C   UNL     1      10.831  12.581  19.545  0.00  0.00    +0.000 A 
ATOM     12 CL   UNL     1      11.722  13.981  19.994  0.00  0.00    +0.000 Cl
ATOM     13  C   UNL     1      10.725  12.224  18.202  0.00  0.00    +0.000 A 
ATOM     14  C   UNL     1       9.989  11.089  17.839  0.00  0.00    +0.000 A 
ENDBRANCH   4   8
BRANCH   7  15
ATOM     15  C   UNL     1       5.540   5.918  16.873  0.00  0.00    +0.000 A 
ATOM     16  C   UNL     1       4.467   5.619  17.712  0.00  0.00    +0.000 A 
ATOM     17  C   UNL     1       3.934   4.332  17.710  0.00  0.00    +0.000 A 
ATOM     18  C   UNL     1       4.492   3.389  16.862  0.00  0.00    +0.000 A 
ATOM     19  N   UNL     1       5.526   3.644  16.031  0.00  0.00    +0.000 NA
ATOM     20  C   UNL     1       6.032   4.899  16.064  0.00  0.00    +0.000 A 
ENDBRANCH   7  15
TORSDOF 2
ENDMDL
MODEL 7
REMARK VINA RESULT:      -7.1      0.652      1.084
REMARK  Name = 
REMARK  2 active torsions:
REMARK  status: ('A' for Active; 'I' for Inactive)
REMARK    1  A    between atoms: C_4  and  C_5
REMARK    2  A    between atoms: C_14  and  C_15
REMARK                            x       y       z     vdW  Elec       q    Type
REMARK                         _______ _______ _______ _____ _____    ______ ____
ROOT
ATOM      1  O   UNL     1       2.899   7.898  17.592  0.00  0.00    +0.000 OA
ATOM      2  C   UNL     1       2.330   7.957  18.667  0.00  0.00    +0.000 C 
ATOM      3  O   UNL     1       1.563   9.020  19.105  0.00  0.00    +0.000 OA
ATOM      4  C   UNL     1       1.109   8.647  20.385  0.00  0.00    +0.000 C 
ATOM      5  C   UNL     1       1.492   7.437  20.791  0.00  0.00    +0.000 C 
ATOM      6  C   UNL     1       2.314   6.924  19.744  0.00  0.00    +0.000 C 
ATOM      7  C   UNL     1       2.946   5.743  19.790  0.00  0.00    +0.000 C 
ENDROOT
BRANCH   4   8
ATOM      8  C   UNL     1       0.278   9.603  21.127  0.00  0.00    +0.000 A 
ATOM      9  C   UNL     1      -0.195  10.772  20.510  0.00  0.00    +0.000 A 
ATOM     10  C   UNL     1      -0.979  11.691  21.215  0.00  0.00    +0.000 A 
ATOM     11  C   UNL     1      -1.301  11.445  22.546  0.00  0.00    +0.000 A 
ATOM     12 CL   UNL     1      -2.250  12.583  23.418  0.00  0.00    +0.000 Cl
ATOM     13  C   UNL     1      -0.857  10.282  23.172  0.00  0.00    +0.000 A 
ATOM     14  C   UNL     1      -0.075   9.363  22.462  0.00  0.00    +0.000 A 
ENDBRANCH   4   8
BRANCH   7  15
ATOM     15  C   UNL     1       3.845   5.218  18.766  0.00  0.00    +0.000 A 
ATOM     16  C   UNL     1       5.222   5.417  18.863  0.00  0.00    +0.000 A 
ATOM     17  C   UNL     1       6.064   4.869  17.898  0.00  0.00    +0.000 A 
ATOM     18  C   UNL     1       5.496   4.136  16.868  0.00  0.00    +0.000 A 
ATOM     19  N   UNL     1       4.169   3.917  16.745  0.00  0.00    +0.000 NA
ATOM     20  C   UNL     1       3.374   4.472  17.690  0.00  0.00    +0.000 A 
ENDBRANCH   7  15
TORSDOF 2
ENDMDL
MODEL 8
REMARK VINA RESULT:      -7.1      6.177      7.884
REMARK  Name = 
REMARK  2 active torsions:
REMARK  status: ('A' for Active; 'I' for Inactive)
REMARK    1  A    between atoms: C_4  and  C_5
REMARK    2  A    between atoms: C_14  and  C_15
REMARK                            x       y       z     vdW  Elec       q    Type
REMARK                         _______ _______ _______ _____ _____    ______ ____
ROOT
ATOM      1  O   UNL     1       7.815   5.755  18.736  0.00  0.00    +0.000 OA
ATOM      2  C   UNL     1       7.875   6.940  18.467  0.00  0.00    +0.000 C 
ATOM      3  O   UNL     1       8.801   7.829  18.983  0.00  0.00    +0.000 OA
ATOM      4  C   UNL     1       8.493   9.070  18.394  0.00  0.00    +0.000 C 
ATOM      5  C   UNL     1       7.476   9.050  17.531  0.00  0.00    +0.000 C 
ATOM      6  C   UNL     1       6.996   7.707  17.535  0.00  0.00    +0.000 C 
ATOM      7  C   UNL     1       5.937   7.281  16.835  0.00  0.00    +0.000 C 
ENDROOT
BRANCH   4   8
ATOM      8  C   UNL     1       9.301  10.234  18.776  0.00  0.00    +0.000 A 
ATOM      9  C   UNL     1       9.440  10.599  20.125  0.00  0.00    +0.000 A 
ATOM     10  C   UNL     1      10.201  11.713  20.494  0.00  0.00    +0.000 A 
ATOM     11  C   UNL     1      10.833  12.472  19.515  0.00  0.00    +0.000 A 
ATOM     12 CL   UNL     1      11.754  13.851  19.966  0.00  0.00    +0.000 Cl
ATOM     13  C   UNL     1      10.723  12.117  18.171  0.00  0.00    +0.000 A 
ATOM     14  C   UNL     1       9.963  10.999  17.806  0.00  0.00    +0.000 A 
ENDBRANCH   4   8
BRANCH   7  15
ATOM     15  C   UNL     1       5.381   5.931  16.867  0.00  0.00    +0.000 A 
ATOM     16  C   UNL     1       5.804   4.970  15.949  0.00  0.00    +0.000 A 
ATOM     17  C   UNL     1       5.292   3.677  16.026  0.00  0.00    +0.000 A 
ATOM     18  C   UNL     1       4.375   3.390  17.025  0.00  0.00    +0.000 A 
ATOM     19  N   UNL     1       3.948   4.292  17.935  0.00  0.00    +0.000 NA
ATOM     20  C   UNL     1       4.452   5.544  17.828  0.00  0.00    +0.000 A 
ENDBRANCH   7  15
TORSDOF 2
ENDMDL
MODEL 9
REMARK VINA RESULT:      -7.0      4.295      8.033
REMARK  Name = 
REMARK  2 active torsions:
REMARK  status: ('A' for Active; 'I' for Inactive)
REMARK    1  A    between atoms: C_4  and  C_5
REMARK    2  A    between atoms: C_14  and  C_15
REMARK                            x       y       z     vdW  Elec       q    Type
REMARK                         _______ _______ _______ _____ _____    ______ ____
ROOT
ATOM      1  O   UNL     1       0.975   8.709  21.106  0.00  0.00    +0.000 OA
ATOM      2  C   UNL     1       1.498   8.532  20.022  0.00  0.00    +0.000 C 
ATOM      3  O   UNL     1       2.213   7.406  19.656  0.00  0.00    +0.000 OA
ATOM      4  C   UNL     1       2.621   7.640  18.328  0.00  0.00    +0.000 C 
ATOM      5  C   UNL     1       2.210   8.796  17.806  0.00  0.00    +0.000 C 
ATOM      6  C   UNL     1       1.492   9.455  18.848  0.00  0.00    +0.000 C 
ATOM      7  C   UNL     1       0.961  10.680  18.742  0.00  0.00    +0.000 C 
ENDROOT
BRANCH   4   8
ATOM      8  C   UNL     1       3.436   6.615  17.666  0.00  0.00    +0.000 A 
ATOM      9  C   UNL     1       4.549   6.974  16.890  0.00  0.00    +0.000 A 
ATOM     10  C   UNL     1       5.323   6.002  16.249  0.00  0.00    +0.000 A 
ATOM     11  C   UNL     1       4.992   4.658  16.383  0.00  0.00    +0.000 A 
ATOM     12 CL   UNL     1       5.933   3.463  15.581  0.00  0.00    +0.000 Cl
ATOM     13  C   UNL     1       3.901   4.277  17.163  0.00  0.00    +0.000 A 
ATOM     14  C   UNL     1       3.131   5.254  17.806  0.00  0.00    +0.000 A 
ENDBRANCH   4   8
BRANCH   7  15
ATOM     15  C   UNL     1       0.278  11.408  19.808  0.00  0.00    +0.000 A 
ATOM     16  C   UNL     1      -1.106  11.315  19.954  0.00  0.00    +0.000 A 
ATOM     17  C   UNL     1      -1.731  11.983  21.004  0.00  0.00    +0.000 A 
ATOM     18  C   UNL     1      -0.945  12.719  21.877  0.00  0.00    +0.000 A 
ATOM     19  N   UNL     1       0.397  12.825  21.772  0.00  0.00    +0.000 NA
ATOM     20  C   UNL     1       0.976  12.176  20.734  0.00  0.00    +0.000 A 
ENDBRANCH   7  15
TORSDOF 2
ENDMDL
