MODEL 1
REMARK VINA RESULT:      -7.5      0.000      0.000
REMARK  Name = 
REMARK  10 active torsions:
REMARK  status: ('A' for Active; 'I' for Inactive)
REMARK    1  A    between atoms: C_1  and  C_2
REMARK    2  A    between atoms: C_2  and  O_3
REMARK    3  A    between atoms: O_3  and  C_4
REMARK    4  A    between atoms: C_4  and  C_6
REMARK    5  A    between atoms: C_6  and  N_7
REMARK    6  A    between atoms: C_6  and  O_11
REMARK    7  A    between atoms: C_6  and  C_19
REMARK    8  A    between atoms: C_8  and  C_9
REMARK    9  A    between atoms: O_11  and  C_12
REMARK   10  A    between atoms: C_12  and  C_13
REMARK                            x       y       z     vdW  Elec       q    Type
REMARK                         _______ _______ _______ _____ _____    ______ ____
ROOT
ATOM      1  C   UNL     1       5.711   4.749  16.726  0.00  0.00    +0.000 C 
ENDROOT
BRANCH   1   2
ATOM      2  N   UNL     1       5.780   4.028  15.427  0.00  0.00    +0.000 N 
ATOM      3  C   UNL     1       6.420   4.485  14.322  0.00  0.00    +0.000 C 
ATOM      4  C   UNL     1       6.265   3.616  13.100  0.00  0.00    +0.000 C 
ATOM      5  O   UNL     1       7.073   5.516  14.307  0.00  0.00    +0.000 OA
ATOM      6  H   UNL     1       5.168   3.238  15.317  0.00  0.00    +0.000 HD
ENDBRANCH   1   2
BRANCH   1   7
ATOM      7  C   UNL     1       5.371   6.287  16.681  0.00  0.00    +0.000 C 
ATOM      8  F   UNL     1       4.696   6.783  17.733  0.00  0.00    +0.000 F 
ATOM      9  F   UNL     1       6.493   7.036  16.521  0.00  0.00    +0.000 F 
ATOM     10  F   UNL     1       4.593   6.582  15.598  0.00  0.00    +0.000 F 
ENDBRANCH   1   7
BRANCH   1  11
ATOM     11  C   UNL     1       7.118   4.643  17.401  0.00  0.00    +0.000 C 
ATOM     12  O   UNL     1       8.139   4.209  16.889  0.00  0.00    +0.000 OA
BRANCH  11  13
ATOM     13  O   UNL     1       7.037   4.919  18.752  0.00  0.00    +0.000 OA
BRANCH  13  15
ATOM     14  C   UNL     1       8.184   7.021  18.784  0.00  0.00    +0.000 C 
ATOM     15  C   UNL     1       8.190   5.591  19.296  0.00  0.00    +0.000 C 
ENDBRANCH  13  15
ENDBRANCH  11  13
ENDBRANCH   1  11
BRANCH   1  16
ATOM     16  O   UNL     1       4.741   3.988  17.490  0.00  0.00    +0.000 OA
BRANCH  16  17
ATOM     17  C   UNL     1       3.391   4.026  17.023  0.00  0.00    +0.000 C 
BRANCH  17  18
ATOM     18  C   UNL     1       2.462   3.924  18.206  0.00  0.00    +0.000 A 
ATOM     19  C   UNL     1       2.443   4.927  19.177  0.00  0.00    +0.000 A 
ATOM     20  C   UNL     1       1.596   4.825  20.277  0.00  0.00    +0.000 A 
ATOM     21  C   UNL     1       0.753   3.725  20.410  0.00  0.00    +0.000 A 
ATOM     22  C   UNL     1       0.741   2.730  19.433  0.00  0.00    +0.000 A 
ATOM     23  C   UNL     1       1.592   2.831  18.330  0.00  0.00    +0.000 A 
ENDBRANCH  17  18
ENDBRANCH  16  17
ENDBRANCH   1  16
TORSDOF 8
ENDMDL
MODEL 2
REMARK VINA RESULT:      -7.4      0.322      1.413
REMARK  Name = 
REMARK  10 active torsions:
REMARK  status: ('A' for Active; 'I' for Inactive)
REMARK    1  A    between atoms: C_1  and  C_2
REMARK    2  A    between atoms: C_2  and  O_3
REMARK    3  A    between atoms: O_3  and  C_4
REMARK    4  A    between atoms: C_4  and  C_6
REMARK    5  A    between atoms: C_6  and  N_7
REMARK    6  A    between atoms: C_6  and  O_11
REMARK    7  A    between atoms: C_6  and  C_19
REMARK    8  A    between atoms: C_8  and  C_9
REMARK    9  A    between atoms: O_11  and  C_12
REMARK   10  A    between atoms: C_12  and  C_13
REMARK                            x       y       z     vdW  Elec       q    Type
REMARK                         _______ _______ _______ _____ _____    ______ ____
ROOT
ATOM      1  C   UNL     1       5.745   4.721  16.698  0.00  0.00    +0.000 C 
ENDROOT
BRANCH   1   2
ATOM      2  N   UNL     1       5.763   4.005  15.395  0.00  0.00    +0.000 N 
ATOM      3  C   UNL     1       6.376   4.457  14.272  0.00  0.00    +0.000 C 
ATOM      4  C   UNL     1       6.171   3.595  13.053  0.00  0.00    +0.000 C 
ATOM      5  O   UNL     1       7.044   5.477  14.242  0.00  0.00    +0.000 OA
ATOM      6  H   UNL     1       5.137   3.224  15.301  0.00  0.00    +0.000 HD
ENDBRANCH   1   2
BRANCH   1   7
ATOM      7  C   UNL     1       5.436   6.266  16.668  0.00  0.00    +0.000 C 
ATOM      8  F   UNL     1       4.699   6.711  15.635  0.00  0.00    +0.000 F 
ATOM      9  F   UNL     1       4.827   6.671  17.813  0.00  0.00    +0.000 F 
ATOM     10  F   UNL     1       6.592   6.991  16.609  0.00  0.00    +0.000 F 
ENDBRANCH   1   7
BRANCH   1  11
ATOM     11  C   UNL     1       7.167   4.582  17.335  0.00  0.00    +0.000 C 
ATOM     12  O   UNL     1       8.190   4.242  16.760  0.00  0.00    +0.000 OA
BRANCH  11  13
ATOM     13  O   UNL     1       7.105   4.700  18.709  0.00  0.00    +0.000 OA
BRANCH  13  15
ATOM     14  C   UNL     1       8.533   5.317  20.529  0.00  0.00    +0.000 C 
ATOM     15  C   UNL     1       7.866   5.796  19.252  0.00  0.00    +0.000 C 
ENDBRANCH  13  15
ENDBRANCH  11  13
ENDBRANCH   1  11
BRANCH   1  16
ATOM     16  O   UNL     1       4.780   3.977  17.485  0.00  0.00    +0.000 OA
BRANCH  16  17
ATOM     17  C   UNL     1       3.439   3.952  16.992  0.00  0.00    +0.000 C 
BRANCH  17  18
ATOM     18  C   UNL     1       2.492   3.832  18.158  0.00  0.00    +0.000 A 
ATOM     19  C   UNL     1       1.645   2.728  18.268  0.00  0.00    +0.000 A 
ATOM     20  C   UNL     1       0.760   2.625  19.338  0.00  0.00    +0.000 A 
ATOM     21  C   UNL     1       0.722   3.619  20.313  0.00  0.00    +0.000 A 
ATOM     22  C   UNL     1       1.583   4.712  20.230  0.00  0.00    +0.000 A 
ATOM     23  C   UNL     1       2.470   4.818  19.156  0.00  0.00    +0.000 A 
ENDBRANCH  17  18
ENDBRANCH  16  17
ENDBRANCH   1  16
TORSDOF 8
ENDMDL
MODEL 3
REMARK VINA RESULT:      -7.4      1.903      3.644
REMARK  Name = 
REMARK  10 active torsions:
REMARK  status: ('A' for Active; 'I' for Inactive)
REMARK    1  A    between atoms: C_1  and  C_2
REMARK    2  A    between atoms: C_2  and  O_3
REMARK    3  A    between atoms: O_3  and  C_4
REMARK    4  A    between atoms: C_4  and  C_6
REMARK    5  A    between atoms: C_6  and  N_7
REMARK    6  A    between atoms: C_6  and  O_11
REMARK    7  A    between atoms: C_6  and  C_19
REMARK    8  A    between atoms: C_8  and  C_9
REMARK    9  A    between atoms: O_11  and  C_12
REMARK   10  A    between atoms: C_12  and  C_13
REMARK                            x       y       z     vdW  Elec       q    Type
REMARK                         _______ _______ _______ _____ _____    ______ ____
ROOT
ATOM      1  C   UNL     1       5.902   5.646  17.026  0.00  0.00    +0.000 C 
ENDROOT
BRANCH   1   2
ATOM      2  N   UNL     1       6.411   7.043  17.043  0.00  0.00    +0.000 N 
ATOM      3  C   UNL     1       7.500   7.462  17.735  0.00  0.00    +0.000 C 
ATOM      4  C   UNL     1       7.758   8.945  17.668  0.00  0.00    +0.000 C 
ATOM      5  O   UNL     1       8.222   6.705  18.364  0.00  0.00    +0.000 OA
ATOM      6  H   UNL     1       5.808   7.747  16.655  0.00  0.00    +0.000 HD
ENDBRANCH   1   2
BRANCH   1   7
ATOM      7  C   UNL     1       6.154   4.771  18.313  0.00  0.00    +0.000 C 
ATOM      8  F   UNL     1       7.379   4.232  18.440  0.00  0.00    +0.000 F 
ATOM      9  F   UNL     1       5.892   5.472  19.447  0.00  0.00    +0.000 F 
ATOM     10  F   UNL     1       5.299   3.706  18.351  0.00  0.00    +0.000 F 
ENDBRANCH   1   7
BRANCH   1  11
ATOM     11  C   UNL     1       6.616   4.896  15.854  0.00  0.00    +0.000 C 
ATOM     12  O   UNL     1       7.811   4.654  15.767  0.00  0.00    +0.000 OA
BRANCH  11  13
ATOM     13  O   UNL     1       5.751   4.700  14.796  0.00  0.00    +0.000 OA
BRANCH  13  15
ATOM     14  C   UNL     1       5.184   3.645  12.722  0.00  0.00    +0.000 C 
ATOM     15  C   UNL     1       6.306   3.946  13.700  0.00  0.00    +0.000 C 
ENDBRANCH  13  15
ENDBRANCH  11  13
ENDBRANCH   1  11
BRANCH   1  16
ATOM     16  O   UNL     1       4.491   5.798  16.725  0.00  0.00    +0.000 OA
BRANCH  16  17
ATOM     17  C   UNL     1       3.734   6.615  17.620  0.00  0.00    +0.000 C 
BRANCH  17  18
ATOM     18  C   UNL     1       2.814   5.733  18.425  0.00  0.00    +0.000 A 
ATOM     19  C   UNL     1       2.571   6.010  19.772  0.00  0.00    +0.000 A 
ATOM     20  C   UNL     1       1.733   5.187  20.519  0.00  0.00    +0.000 A 
ATOM     21  C   UNL     1       1.121   4.087  19.924  0.00  0.00    +0.000 A 
ATOM     22  C   UNL     1       1.332   3.816  18.573  0.00  0.00    +0.000 A 
ATOM     23  C   UNL     1       2.175   4.640  17.822  0.00  0.00    +0.000 A 
ENDBRANCH  17  18
ENDBRANCH  16  17
ENDBRANCH   1  16
TORSDOF 8
ENDMDL
MODEL 4
REMARK VINA RESULT:      -7.4      0.304      1.033
REMARK  Name = 
REMARK  10 active torsions:
REMARK  status: ('A' for Active; 'I' for Inactive)
REMARK    1  A    between atoms: C_1  and  C_2
REMARK    2  A    between atoms: C_2  and  O_3
REMARK    3  A    between atoms: O_3  and  C_4
REMARK    4  A    between atoms: C_4  and  C_6
REMARK    5  A    between atoms: C_6  and  N_7
REMARK    6  A    between atoms: C_6  and  O_11
REMARK    7  A    between atoms: C_6  and  C_19
REMARK    8  A    between atoms: C_8  and  C_9
REMARK    9  A    between atoms: O_11  and  C_12
REMARK   10  A    between atoms: C_12  and  C_13
REMARK                            x       y       z     vdW  Elec       q    Type
REMARK                         _______ _______ _______ _____ _____    ______ ____
ROOT
ATOM      1  C   UNL     1       5.682   4.691  16.791  0.00  0.00    +0.000 C 
ENDROOT
BRANCH   1   2
ATOM      2  N   UNL     1       5.757   4.003  15.475  0.00  0.00    +0.000 N 
ATOM      3  C   UNL     1       6.380   4.499  14.377  0.00  0.00    +0.000 C 
ATOM      4  C   UNL     1       6.234   3.657  13.135  0.00  0.00    +0.000 C 
ATOM      5  O   UNL     1       7.012   5.543  14.383  0.00  0.00    +0.000 OA
ATOM      6  H   UNL     1       5.161   3.204  15.350  0.00  0.00    +0.000 HD
ENDBRANCH   1   2
BRANCH   1   7
ATOM      7  C   UNL     1       5.287   6.217  16.787  0.00  0.00    +0.000 C 
ATOM      8  F   UNL     1       4.606   6.663  17.858  0.00  0.00    +0.000 F 
ATOM      9  F   UNL     1       6.380   7.010  16.633  0.00  0.00    +0.000 F 
ATOM     10  F   UNL     1       4.487   6.509  15.719  0.00  0.00    +0.000 F 
ENDBRANCH   1   7
BRANCH   1  11
ATOM     11  C   UNL     1       7.102   4.621  17.443  0.00  0.00    +0.000 C 
ATOM     12  O   UNL     1       8.124   4.209  16.916  0.00  0.00    +0.000 OA
BRANCH  11  13
ATOM     13  O   UNL     1       7.037   4.901  18.794  0.00  0.00    +0.000 OA
BRANCH  13  15
ATOM     14  C   UNL     1       8.204   6.991  18.837  0.00  0.00    +0.000 C 
ATOM     15  C   UNL     1       8.206   5.554  19.327  0.00  0.00    +0.000 C 
ENDBRANCH  13  15
ENDBRANCH  11  13
ENDBRANCH   1  11
BRANCH   1  16
ATOM     16  O   UNL     1       4.752   3.879  17.551  0.00  0.00    +0.000 OA
BRANCH  16  17
ATOM     17  C   UNL     1       3.377   3.959  17.169  0.00  0.00    +0.000 C 
BRANCH  17  18
ATOM     18  C   UNL     1       2.518   3.746  18.389  0.00  0.00    +0.000 A 
ATOM     19  C   UNL     1       2.117   2.459  18.753  0.00  0.00    +0.000 A 
ATOM     20  C   UNL     1       1.311   2.263  19.872  0.00  0.00    +0.000 A 
ATOM     21  C   UNL     1       0.910   3.352  20.643  0.00  0.00    +0.000 A 
ATOM     22  C   UNL     1       1.328   4.638  20.307  0.00  0.00    +0.000 A 
ATOM     23  C   UNL     1       2.134   4.836  19.184  0.00  0.00    +0.000 A 
ENDBRANCH  17  18
ENDBRANCH  16  17
ENDBRANCH   1  16
TORSDOF 8
ENDMDL
MODEL 5
REMARK VINA RESULT:      -7.3      1.919      3.738
REMARK  Name = 
REMARK  10 active torsions:
REMARK  status: ('A' for Active; 'I' for Inactive)
REMARK    1  A    between atoms: C_1  and  C_2
REMARK    2  A    between atoms: C_2  and  O_3
REMARK    3  A    between atoms: O_3  and  C_4
REMARK    4  A    between atoms: C_4  and  C_6
REMARK    5  A    between atoms: C_6  and  N_7
REMARK    6  A    between atoms: C_6  and  O_11
REMARK    7  A    between atoms: C_6  and  C_19
REMARK    8  A    between atoms: C_8  and  C_9
REMARK    9  A    between atoms: O_11  and  C_12
REMARK   10  A    between atoms: C_12  and  C_13
REMARK                            x       y       z     vdW  Elec       q    Type
REMARK                         _______ _______ _______ _____ _____    ______ ____
ROOT
ATOM      1  C   UNL     1       6.073   5.839  17.163  0.00  0.00    +0.000 C 
ENDROOT
BRANCH   1   2
ATOM      2  N   UNL     1       6.501   7.263  17.182  0.00  0.00    +0.000 N 
ATOM      3  C   UNL     1       7.590   7.735  17.838  0.00  0.00    +0.000 C 
ATOM      4  C   UNL     1       7.758   9.233  17.784  0.00  0.00    +0.000 C 
ATOM      5  O   UNL     1       8.379   7.014  18.427  0.00  0.00    +0.000 OA
ATOM      6  H   UNL     1       5.843   7.936  16.828  0.00  0.00    +0.000 HD
ENDBRANCH   1   2
BRANCH   1   7
ATOM      7  C   UNL     1       6.293   5.002  18.480  0.00  0.00    +0.000 C 
ATOM      8  F   UNL     1       7.532   4.518  18.684  0.00  0.00    +0.000 F 
ATOM      9  F   UNL     1       5.943   5.715  19.582  0.00  0.00    +0.000 F 
ATOM     10  F   UNL     1       5.483   3.903  18.498  0.00  0.00    +0.000 F 
ENDBRANCH   1   7
BRANCH   1  11
ATOM     11  C   UNL     1       6.901   5.111  16.053  0.00  0.00    +0.000 C 
ATOM     12  O   UNL     1       7.885   4.407  16.224  0.00  0.00    +0.000 OA
BRANCH  11  13
ATOM     13  O   UNL     1       6.506   5.522  14.795  0.00  0.00    +0.000 OA
BRANCH  13  15
ATOM     14  C   UNL     1       6.012   3.732  13.283  0.00  0.00    +0.000 C 
ATOM     15  C   UNL     1       7.056   4.748  13.711  0.00  0.00    +0.000 C 
ENDBRANCH  13  15
ENDBRANCH  11  13
ENDBRANCH   1  11
BRANCH   1  16
ATOM     16  O   UNL     1       4.678   5.904  16.772  0.00  0.00    +0.000 OA
BRANCH  16  17
ATOM     17  C   UNL     1       3.830   6.727  17.575  0.00  0.00    +0.000 C 
BRANCH  17  18
ATOM     18  C   UNL     1       2.915   5.843  18.383  0.00  0.00    +0.000 A 
ATOM     19  C   UNL     1       2.315   4.726  17.797  0.00  0.00    +0.000 A 
ATOM     20  C   UNL     1       1.458   3.918  18.539  0.00  0.00    +0.000 A 
ATOM     21  C   UNL     1       1.203   4.212  19.877  0.00  0.00    +0.000 A 
ATOM     22  C   UNL     1       1.818   5.307  20.481  0.00  0.00    +0.000 A 
ATOM     23  C   UNL     1       2.677   6.120  19.737  0.00  0.00    +0.000 A 
ENDBRANCH  17  18
ENDBRANCH  16  17
ENDBRANCH   1  16
TORSDOF 8
ENDMDL
MODEL 6
REMARK VINA RESULT:      -7.3      3.322      5.263
REMARK  Name = 
REMARK  10 active torsions:
REMARK  status: ('A' for Active; 'I' for Inactive)
REMARK    1  A    between atoms: C_1  and  C_2
REMARK    2  A    between atoms: C_2  and  O_3
REMARK    3  A    between atoms: O_3  and  C_4
REMARK    4  A    between atoms: C_4  and  C_6
REMARK    5  A    between atoms: C_6  and  N_7
REMARK    6  A    between atoms: C_6  and  O_11
REMARK    7  A    between atoms: C_6  and  C_19
REMARK    8  A    between atoms: C_8  and  C_9
REMARK    9  A    between atoms: O_11  and  C_12
REMARK   10  A    between atoms: C_12  and  C_13
REMARK                            x       y       z     vdW  Elec       q    Type
REMARK                         _______ _______ _______ _____ _____    ______ ____
ROOT
ATOM      1  C   UNL     1       3.291   4.195  18.759  0.00  0.00    +0.000 C 
ENDROOT
BRANCH   1   2
ATOM      2  N   UNL     1       2.914   3.578  20.058  0.00  0.00    +0.000 N 
ATOM      3  C   UNL     1       1.693   3.062  20.345  0.00  0.00    +0.000 C 
ATOM      4  C   UNL     1       1.531   2.580  21.764  0.00  0.00    +0.000 C 
ATOM      5  O   UNL     1       0.792   2.986  19.527  0.00  0.00    +0.000 OA
ATOM      6  H   UNL     1       3.555   3.711  20.822  0.00  0.00    +0.000 HD
ENDBRANCH   1   2
BRANCH   1   7
ATOM      7  C   UNL     1       3.130   3.308  17.466  0.00  0.00    +0.000 C 
ATOM      8  F   UNL     1       3.120   1.975  17.650  0.00  0.00    +0.000 F 
ATOM      9  F   UNL     1       2.005   3.636  16.778  0.00  0.00    +0.000 F 
ATOM     10  F   UNL     1       4.156   3.531  16.592  0.00  0.00    +0.000 F 
ENDBRANCH   1   7
BRANCH   1  11
ATOM     11  C   UNL     1       4.808   4.568  18.833  0.00  0.00    +0.000 C 
ATOM     12  O   UNL     1       5.700   3.888  19.317  0.00  0.00    +0.000 OA
BRANCH  11  13
ATOM     13  O   UNL     1       5.011   5.881  18.457  0.00  0.00    +0.000 OA
BRANCH  13  15
ATOM     14  C   UNL     1       5.121   6.634  16.186  0.00  0.00    +0.000 C 
ATOM     15  C   UNL     1       5.912   6.053  17.345  0.00  0.00    +0.000 C 
ENDBRANCH  13  15
ENDBRANCH  11  13
ENDBRANCH   1  11
BRANCH   1  16
ATOM     16  O   UNL     1       2.490   5.403  18.706  0.00  0.00    +0.000 OA
BRANCH  16  17
ATOM     17  C   UNL     1       2.541   6.251  19.856  0.00  0.00    +0.000 C 
BRANCH  17  18
ATOM     18  C   UNL     1       2.057   7.625  19.470  0.00  0.00    +0.000 A 
ATOM     19  C   UNL     1       2.295   8.122  18.187  0.00  0.00    +0.000 A 
ATOM     20  C   UNL     1       1.860   9.397  17.835  0.00  0.00    +0.000 A 
ATOM     21  C   UNL     1       1.174  10.182  18.760  0.00  0.00    +0.000 A 
ATOM     22  C   UNL     1       0.906   9.686  20.035  0.00  0.00    +0.000 A 
ATOM     23  C   UNL     1       1.343   8.407  20.389  0.00  0.00    +0.000 A 
ENDBRANCH  17  18
ENDBRANCH  16  17
ENDBRANCH   1  16
TORSDOF 8
ENDMDL
MODEL 7
REMARK VINA RESULT:      -7.2      3.241      4.996
REMARK  Name = 
REMARK  10 active torsions:
REMARK  status: ('A' for Active; 'I' for Inactive)
REMARK    1  A    between atoms: C_1  and  C_2
REMARK    2  A    between atoms: C_2  and  O_3
REMARK    3  A    between atoms: O_3  and  C_4
REMARK    4  A    between atoms: C_4  and  C_6
REMARK    5  A    between atoms: C_6  and  N_7
REMARK    6  A    between atoms: C_6  and  O_11
REMARK    7  A    between atoms: C_6  and  C_19
REMARK    8  A    between atoms: C_8  and  C_9
REMARK    9  A    between atoms: O_11  and  C_12
REMARK   10  A    between atoms: C_12  and  C_13
REMARK                            x       y       z     vdW  Elec       q    Type
REMARK                         _______ _______ _______ _____ _____    ______ ____
ROOT
ATOM      1  C   UNL     1       3.640   4.299  18.644  0.00  0.00    +0.000 C 
ENDROOT
BRANCH   1   2
ATOM      2  N   UNL     1       3.286   3.687  19.952  0.00  0.00    +0.000 N 
ATOM      3  C   UNL     1       2.076   3.152  20.253  0.00  0.00    +0.000 C 
ATOM      4  C   UNL     1       1.934   2.679  21.678  0.00  0.00    +0.000 C 
ATOM      5  O   UNL     1       1.169   3.054  19.443  0.00  0.00    +0.000 OA
ATOM      6  H   UNL     1       3.930   3.837  20.709  0.00  0.00    +0.000 HD
ENDBRANCH   1   2
BRANCH   1   7
ATOM      7  C   UNL     1       3.505   3.392  17.362  0.00  0.00    +0.000 C 
ATOM      8  F   UNL     1       4.348   3.658  16.348  0.00  0.00    +0.000 F 
ATOM      9  F   UNL     1       3.637   2.076  17.673  0.00  0.00    +0.000 F 
ATOM     10  F   UNL     1       2.258   3.503  16.817  0.00  0.00    +0.000 F 
ENDBRANCH   1   7
BRANCH   1  11
ATOM     11  C   UNL     1       5.145   4.721  18.711  0.00  0.00    +0.000 C 
ATOM     12  O   UNL     1       6.014   4.206  19.400  0.00  0.00    +0.000 OA
BRANCH  11  13
ATOM     13  O   UNL     1       5.355   5.905  18.033  0.00  0.00    +0.000 OA
BRANCH  13  15
ATOM     14  C   UNL     1       7.351   7.132  17.541  0.00  0.00    +0.000 C 
ATOM     15  C   UNL     1       6.521   5.912  17.186  0.00  0.00    +0.000 C 
ENDBRANCH  13  15
ENDBRANCH  11  13
ENDBRANCH   1  11
BRANCH   1  16
ATOM     16  O   UNL     1       2.802   5.481  18.579  0.00  0.00    +0.000 OA
BRANCH  16  17
ATOM     17  C   UNL     1       2.709   6.262  19.772  0.00  0.00    +0.000 C 
BRANCH  17  18
ATOM     18  C   UNL     1       2.126   7.609  19.428  0.00  0.00    +0.000 A 
ATOM     19  C   UNL     1       1.427   8.341  20.390  0.00  0.00    +0.000 A 
ATOM     20  C   UNL     1       0.876   9.579  20.069  0.00  0.00    +0.000 A 
ATOM     21  C   UNL     1       1.029  10.100  18.786  0.00  0.00    +0.000 A 
ATOM     22  C   UNL     1       1.750   9.393  17.825  0.00  0.00    +0.000 A 
ATOM     23  C   UNL     1       2.301   8.150  18.146  0.00  0.00    +0.000 A 
ENDBRANCH  17  18
ENDBRANCH  16  17
ENDBRANCH   1  16
TORSDOF 8
ENDMDL
MODEL 8
REMARK VINA RESULT:      -7.2      2.163      3.817
REMARK  Name = 
REMARK  10 active torsions:
REMARK  status: ('A' for Active; 'I' for Inactive)
REMARK    1  A    between atoms: C_1  and  C_2
REMARK    2  A    between atoms: C_2  and  O_3
REMARK    3  A    between atoms: O_3  and  C_4
REMARK    4  A    between atoms: C_4  and  C_6
REMARK    5  A    between atoms: C_6  and  N_7
REMARK    6  A    between atoms: C_6  and  O_11
REMARK    7  A    between atoms: C_6  and  C_19
REMARK    8  A    between atoms: C_8  and  C_9
REMARK    9  A    between atoms: O_11  and  C_12
REMARK   10  A    between atoms: C_12  and  C_13
REMARK                            x       y       z     vdW  Elec       q    Type
REMARK                         _______ _______ _______ _____ _____    ______ ____
ROOT
ATOM      1  C   UNL     1       4.906   5.645  17.299  0.00  0.00    +0.000 C 
ENDROOT
BRANCH   1   2
ATOM      2  N   UNL     1       4.148   6.921  17.214  0.00  0.00    +0.000 N 
ATOM      3  C   UNL     1       3.146   7.282  18.054  0.00  0.00    +0.000 C 
ATOM      4  C   UNL     1       2.468   8.582  17.702  0.00  0.00    +0.000 C 
ATOM      5  O   UNL     1       2.812   6.617  19.020  0.00  0.00    +0.000 OA
ATOM      6  H   UNL     1       4.274   7.465  16.378  0.00  0.00    +0.000 HD
ENDBRANCH   1   2
BRANCH   1   7
ATOM      7  C   UNL     1       5.890   5.470  18.517  0.00  0.00    +0.000 C 
ATOM      8  F   UNL     1       5.331   5.445  19.741  0.00  0.00    +0.000 F 
ATOM      9  F   UNL     1       6.645   4.347  18.386  0.00  0.00    +0.000 F 
ATOM     10  F   UNL     1       6.790   6.496  18.567  0.00  0.00    +0.000 F 
ENDBRANCH   1   7
BRANCH   1  11
ATOM     11  C   UNL     1       5.794   5.536  16.016  0.00  0.00    +0.000 C 
ATOM     12  O   UNL     1       6.768   6.223  15.746  0.00  0.00    +0.000 OA
BRANCH  11  13
ATOM     13  O   UNL     1       5.224   4.681  15.093  0.00  0.00    +0.000 OA
BRANCH  13  15
ATOM     14  C   UNL     1       5.991   3.730  13.034  0.00  0.00    +0.000 C 
ATOM     15  C   UNL     1       6.128   3.700  14.546  0.00  0.00    +0.000 C 
ENDBRANCH  13  15
ENDBRANCH  11  13
ENDBRANCH   1  11
BRANCH   1  16
ATOM     16  O   UNL     1       3.873   4.627  17.268  0.00  0.00    +0.000 OA
BRANCH  16  17
ATOM     17  C   UNL     1       4.163   3.405  17.950  0.00  0.00    +0.000 C 
BRANCH  17  18
ATOM     18  C   UNL     1       3.132   3.193  19.029  0.00  0.00    +0.000 A 
ATOM     19  C   UNL     1       1.772   3.321  18.741  0.00  0.00    +0.000 A 
ATOM     20  C   UNL     1       0.821   3.139  19.741  0.00  0.00    +0.000 A 
ATOM     21  C   UNL     1       1.220   2.816  21.036  0.00  0.00    +0.000 A 
ATOM     22  C   UNL     1       2.573   2.657  21.330  0.00  0.00    +0.000 A 
ATOM     23  C   UNL     1       3.529   2.841  20.327  0.00  0.00    +0.000 A 
ENDBRANCH  17  18
ENDBRANCH  16  17
ENDBRANCH   1  16
TORSDOF 8
ENDMDL
MODEL 9
REMARK VINA RESULT:      -7.1      2.128      5.586
REMARK  Name = 
REMARK  10 active torsions:
REMARK  status: ('A' for Active; 'I' for Inactive)
REMARK    1  A    between atoms: C_1  and  C_2
REMARK    2  A    between atoms: C_2  and  O_3
REMARK    3  A    between atoms: O_3  and  C_4
REMARK    4  A    between atoms: C_4  and  C_6
REMARK    5  A    between atoms: C_6  and  N_7
REMARK    6  A    between atoms: C_6  and  O_11
REMARK    7  A    between atoms: C_6  and  C_19
REMARK    8  A    between atoms: C_8  and  C_9
REMARK    9  A    between atoms: O_11  and  C_12
REMARK   10  A    between atoms: C_12  and  C_13
REMARK                            x       y       z     vdW  Elec       q    Type
REMARK                         _______ _______ _______ _____ _____    ______ ____
ROOT
ATOM      1  C   UNL     1       4.541   5.117  17.726  0.00  0.00    +0.000 C 
ENDROOT
BRANCH   1   2
ATOM      2  N   UNL     1       5.795   5.861  18.019  0.00  0.00    +0.000 N 
ATOM      3  C   UNL     1       6.306   6.850  17.244  0.00  0.00    +0.000 C 
ATOM      4  C   UNL     1       7.639   7.384  17.703  0.00  0.00    +0.000 C 
ATOM      5  O   UNL     1       5.740   7.282  16.253  0.00  0.00    +0.000 OA
ATOM      6  H   UNL     1       6.382   5.486  18.743  0.00  0.00    +0.000 HD
ENDBRANCH   1   2
BRANCH   1   7
ATOM      7  C   UNL     1       3.179   5.848  18.035  0.00  0.00    +0.000 C 
ATOM      8  F   UNL     1       2.074   5.313  17.485  0.00  0.00    +0.000 F 
ATOM      9  F   UNL     1       2.966   5.950  19.373  0.00  0.00    +0.000 F 
ATOM     10  F   UNL     1       3.205   7.136  17.582  0.00  0.00    +0.000 F 
ENDBRANCH   1   7
BRANCH   1  11
ATOM     11  C   UNL     1       4.540   3.825  18.608  0.00  0.00    +0.000 C 
ATOM     12  O   UNL     1       5.380   3.512  19.438  0.00  0.00    +0.000 OA
BRANCH  11  13
ATOM     13  O   UNL     1       3.558   2.947  18.195  0.00  0.00    +0.000 OA
BRANCH  13  15
ATOM     14  C   UNL     1       1.324   2.319  18.787  0.00  0.00    +0.000 C 
ATOM     15  C   UNL     1       2.765   2.390  19.262  0.00  0.00    +0.000 C 
ENDBRANCH  13  15
ENDBRANCH  11  13
ENDBRANCH   1  11
BRANCH   1  16
ATOM     16  O   UNL     1       4.673   4.756  16.328  0.00  0.00    +0.000 OA
BRANCH  16  17
ATOM     17  C   UNL     1       5.651   3.762  16.016  0.00  0.00    +0.000 C 
BRANCH  17  18
ATOM     18  C   UNL     1       6.156   3.996  14.616  0.00  0.00    +0.000 A 
ATOM     19  C   UNL     1       5.537   3.375  13.529  0.00  0.00    +0.000 A 
ATOM     20  C   UNL     1       6.013   3.581  12.237  0.00  0.00    +0.000 A 
ATOM     21  C   UNL     1       7.105   4.417  12.018  0.00  0.00    +0.000 A 
ATOM     22  C   UNL     1       7.715   5.065  13.092  0.00  0.00    +0.000 A 
ATOM     23  C   UNL     1       7.239   4.858  14.389  0.00  0.00    +0.000 A 
ENDBRANCH  17  18
ENDBRANCH  16  17
ENDBRANCH   1  16
TORSDOF 8
ENDMDL
