MODEL 1
REMARK VINA RESULT:      -6.2      0.000      0.000
REMARK  Name = 
REMARK  9 active torsions:
REMARK  status: ('A' for Active; 'I' for Inactive)
REMARK    1  A    between atoms: C_1  and  C_2
REMARK    2  A    between atoms: C_2  and  C_3
REMARK    3  A    between atoms: C_3  and  C_4
REMARK    4  A    between atoms: C_4  and  N_5
REMARK    5  A    between atoms: N_5  and  C_6
REMARK    6  A    between atoms: C_6  and  N_8
REMARK    7  A    between atoms: N_8  and  N_9
REMARK    8  A    between atoms: C_10  and  C_11
REMARK    9  A    between atoms: C_14  and  C_15
REMARK                            x       y       z     vdW  Elec       q    Type
REMARK                         _______ _______ _______ _____ _____    ______ ____
ROOT
ATOM      1  N   UNL     1       7.062   5.075  19.097  0.00  0.00    +0.000 N 
ATOM      2  H   UNL     1       7.740   4.991  19.845  0.00  0.00    +0.000 HD
ENDROOT
BRANCH   1   3
ATOM      3  C   UNL     1       7.426   5.685  17.923  0.00  0.00    +0.000 C 
ATOM      4  S   UNL     1       7.598   7.331  17.678  0.00  0.00    +0.000 S 
BRANCH   3   5
ATOM      5  N   UNL     1       7.616   4.857  16.848  0.00  0.00    +0.000 N 
ATOM      6  H   UNL     1       8.522   4.999  16.414  0.00  0.00    +0.000 HD
BRANCH   5   7
ATOM      7  C   UNL     1       6.572   4.322  15.987  0.00  0.00    +0.000 C 
BRANCH   7   8
ATOM      8  C   UNL     1       6.813   4.612  14.501  0.00  0.00    +0.000 C 
BRANCH   8  10
ATOM      9  C   UNL     1       6.540   3.571  12.221  0.00  0.00    +0.000 C 
ATOM     10  C   UNL     1       5.892   3.813  13.577  0.00  0.00    +0.000 C 
ENDBRANCH   8  10
ENDBRANCH   7   8
ENDBRANCH   5   7
ENDBRANCH   3   5
ENDBRANCH   1   3
BRANCH   1  11
ATOM     11  N   UNL     1       5.851   4.463  19.221  0.00  0.00    +0.000 NA
ATOM     12  C   UNL     1       4.809   5.231  19.252  0.00  0.00    +0.000 C 
BRANCH  12  13
ATOM     13  C   UNL     1       3.515   4.644  19.499  0.00  0.00    +0.000 A 
ATOM     14  C   UNL     1       2.566   5.033  20.421  0.00  0.00    +0.000 A 
ATOM     15  C   UNL     1       1.388   4.241  20.350  0.00  0.00    +0.000 A 
ATOM     16  C   UNL     1       1.476   3.266  19.378  0.00  0.00    +0.000 A 
ATOM     17  C   UNL     1       0.457   2.245  19.004  0.00  0.00    +0.000 C 
ATOM     18  S   UNL     1       2.980   3.324  18.559  0.00  0.00    +0.000 S 
ENDBRANCH  12  13
ENDBRANCH   1  11
TORSDOF 7
ENDMDL
MODEL 2
REMARK VINA RESULT:      -5.9      2.226      3.522
REMARK  Name = 
REMARK  9 active torsions:
REMARK  status: ('A' for Active; 'I' for Inactive)
REMARK    1  A    between atoms: C_1  and  C_2
REMARK    2  A    between atoms: C_2  and  C_3
REMARK    3  A    between atoms: C_3  and  C_4
REMARK    4  A    between atoms: C_4  and  N_5
REMARK    5  A    between atoms: N_5  and  C_6
REMARK    6  A    between atoms: C_6  and  N_8
REMARK    7  A    between atoms: N_8  and  N_9
REMARK    8  A    between atoms: C_10  and  C_11
REMARK    9  A    between atoms: C_14  and  C_15
REMARK                            x       y       z     vdW  Elec       q    Type
REMARK                         _______ _______ _______ _____ _____    ______ ____
ROOT
ATOM      1  N   UNL     1       5.157   5.566  15.908  0.00  0.00    +0.000 N 
ATOM      2  H   UNL     1       5.042   6.572  15.883  0.00  0.00    +0.000 HD
ENDROOT
BRANCH   1   3
ATOM      3  C   UNL     1       6.309   5.008  15.412  0.00  0.00    +0.000 C 
ATOM      4  S   UNL     1       6.453   4.146  13.985  0.00  0.00    +0.000 S 
BRANCH   3   5
ATOM      5  N   UNL     1       7.425   5.135  16.196  0.00  0.00    +0.000 N 
ATOM      6  H   UNL     1       8.276   5.146  15.646  0.00  0.00    +0.000 HD
BRANCH   5   7
ATOM      7  C   UNL     1       7.559   4.678  17.571  0.00  0.00    +0.000 C 
BRANCH   7   8
ATOM      8  C   UNL     1       7.233   5.768  18.599  0.00  0.00    +0.000 C 
BRANCH   8  10
ATOM      9  C   UNL     1       7.591   8.056  17.603  0.00  0.00    +0.000 C 
ATOM     10  C   UNL     1       8.166   6.977  18.509  0.00  0.00    +0.000 C 
ENDBRANCH   8  10
ENDBRANCH   7   8
ENDBRANCH   5   7
ENDBRANCH   3   5
ENDBRANCH   1   3
BRANCH   1  11
ATOM     11  N   UNL     1       4.232   4.803  16.554  0.00  0.00    +0.000 NA
ATOM     12  C   UNL     1       3.686   5.317  17.610  0.00  0.00    +0.000 C 
BRANCH  12  13
ATOM     13  C   UNL     1       2.789   4.507  18.397  0.00  0.00    +0.000 A 
ATOM     14  C   UNL     1       1.725   3.745  17.959  0.00  0.00    +0.000 A 
ATOM     15  C   UNL     1       1.090   3.045  19.020  0.00  0.00    +0.000 A 
ATOM     16  C   UNL     1       1.684   3.300  20.239  0.00  0.00    +0.000 A 
ATOM     17  C   UNL     1       1.308   2.761  21.576  0.00  0.00    +0.000 C 
ATOM     18  S   UNL     1       3.008   4.377  20.084  0.00  0.00    +0.000 S 
ENDBRANCH  12  13
ENDBRANCH   1  11
TORSDOF 7
ENDMDL
MODEL 3
REMARK VINA RESULT:      -5.9      1.508      1.917
REMARK  Name = 
REMARK  9 active torsions:
REMARK  status: ('A' for Active; 'I' for Inactive)
REMARK    1  A    between atoms: C_1  and  C_2
REMARK    2  A    between atoms: C_2  and  C_3
REMARK    3  A    between atoms: C_3  and  C_4
REMARK    4  A    between atoms: C_4  and  N_5
REMARK    5  A    between atoms: N_5  and  C_6
REMARK    6  A    between atoms: C_6  and  N_8
REMARK    7  A    between atoms: N_8  and  N_9
REMARK    8  A    between atoms: C_10  and  C_11
REMARK    9  A    between atoms: C_14  and  C_15
REMARK                            x       y       z     vdW  Elec       q    Type
REMARK                         _______ _______ _______ _____ _____    ______ ____
ROOT
ATOM      1  N   UNL     1       6.395   4.151  16.969  0.00  0.00    +0.000 N 
ATOM      2  H   UNL     1       6.879   3.354  16.576  0.00  0.00    +0.000 HD
ENDROOT
BRANCH   1   3
ATOM      3  C   UNL     1       6.630   5.402  16.455  0.00  0.00    +0.000 C 
ATOM      4  S   UNL     1       7.041   6.768  17.331  0.00  0.00    +0.000 S 
BRANCH   3   5
ATOM      5  N   UNL     1       6.459   5.539  15.102  0.00  0.00    +0.000 N 
ATOM      6  H   UNL     1       6.572   6.500  14.801  0.00  0.00    +0.000 HD
BRANCH   5   7
ATOM      7  C   UNL     1       5.626   4.698  14.258  0.00  0.00    +0.000 C 
BRANCH   7   8
ATOM      8  C   UNL     1       6.414   3.588  13.552  0.00  0.00    +0.000 C 
BRANCH   8  10
ATOM      9  C   UNL     1       4.522   3.421  11.894  0.00  0.00    +0.000 C 
ATOM     10  C   UNL     1       6.032   3.425  12.079  0.00  0.00    +0.000 C 
ENDBRANCH   8  10
ENDBRANCH   7   8
ENDBRANCH   5   7
ENDBRANCH   3   5
ENDBRANCH   1   3
BRANCH   1  11
ATOM     11  N   UNL     1       5.425   3.950  17.903  0.00  0.00    +0.000 NA
ATOM     12  C   UNL     1       4.256   3.605  17.466  0.00  0.00    +0.000 C 
BRANCH  12  13
ATOM     13  C   UNL     1       3.164   3.493  18.402  0.00  0.00    +0.000 A 
ATOM     14  C   UNL     1       1.831   3.779  18.193  0.00  0.00    +0.000 A 
ATOM     15  C   UNL     1       1.035   3.508  19.338  0.00  0.00    +0.000 A 
ATOM     16  C   UNL     1       1.786   3.029  20.391  0.00  0.00    +0.000 A 
ATOM     17  C   UNL     1       1.320   2.637  21.751  0.00  0.00    +0.000 C 
ATOM     18  S   UNL     1       3.445   2.907  19.980  0.00  0.00    +0.000 S 
ENDBRANCH  12  13
ENDBRANCH   1  11
TORSDOF 7
ENDMDL
MODEL 4
REMARK VINA RESULT:      -5.8      1.847      2.182
REMARK  Name = 
REMARK  9 active torsions:
REMARK  status: ('A' for Active; 'I' for Inactive)
REMARK    1  A    between atoms: C_1  and  C_2
REMARK    2  A    between atoms: C_2  and  C_3
REMARK    3  A    between atoms: C_3  and  C_4
REMARK    4  A    between atoms: C_4  and  N_5
REMARK    5  A    between atoms: N_5  and  C_6
REMARK    6  A    between atoms: C_6  and  N_8
REMARK    7  A    between atoms: N_8  and  N_9
REMARK    8  A    between atoms: C_10  and  C_11
REMARK    9  A    between atoms: C_14  and  C_15
REMARK                            x       y       z     vdW  Elec       q    Type
REMARK                         _______ _______ _______ _____ _____    ______ ____
ROOT
ATOM      1  N   UNL     1       5.069   6.063  16.505  0.00  0.00    +0.000 N 
ATOM      2  H   UNL     1       4.772   6.899  16.019  0.00  0.00    +0.000 HD
ENDROOT
BRANCH   1   3
ATOM      3  C   UNL     1       6.309   5.536  16.244  0.00  0.00    +0.000 C 
ATOM      4  S   UNL     1       7.300   4.751  17.342  0.00  0.00    +0.000 S 
BRANCH   3   5
ATOM      5  N   UNL     1       6.786   5.721  14.973  0.00  0.00    +0.000 N 
ATOM      6  H   UNL     1       6.548   6.636  14.608  0.00  0.00    +0.000 HD
BRANCH   5   7
ATOM      7  C   UNL     1       7.010   4.677  13.985  0.00  0.00    +0.000 C 
BRANCH   7   8
ATOM      8  C   UNL     1       5.822   3.718  13.846  0.00  0.00    +0.000 C 
BRANCH   8  10
ATOM      9  C   UNL     1       5.792   2.394  11.700  0.00  0.00    +0.000 C 
ATOM     10  C   UNL     1       5.282   3.636  12.416  0.00  0.00    +0.000 C 
ENDBRANCH   8  10
ENDBRANCH   7   8
ENDBRANCH   5   7
ENDBRANCH   3   5
ENDBRANCH   1   3
BRANCH   1  11
ATOM     11  N   UNL     1       4.292   5.558  17.504  0.00  0.00    +0.000 NA
ATOM     12  C   UNL     1       3.676   4.445  17.258  0.00  0.00    +0.000 C 
BRANCH  12  13
ATOM     13  C   UNL     1       2.750   3.929  18.235  0.00  0.00    +0.000 A 
ATOM     14  C   UNL     1       1.423   3.595  18.057  0.00  0.00    +0.000 A 
ATOM     15  C   UNL     1       0.833   3.076  19.242  0.00  0.00    +0.000 A 
ATOM     16  C   UNL     1       1.727   3.034  20.291  0.00  0.00    +0.000 A 
ATOM     17  C   UNL     1       1.490   2.562  21.684  0.00  0.00    +0.000 C 
ATOM     18  S   UNL     1       3.271   3.618  19.830  0.00  0.00    +0.000 S 
ENDBRANCH  12  13
ENDBRANCH   1  11
TORSDOF 7
ENDMDL
MODEL 5
REMARK VINA RESULT:      -5.8      1.646      1.847
REMARK  Name = 
REMARK  9 active torsions:
REMARK  status: ('A' for Active; 'I' for Inactive)
REMARK    1  A    between atoms: C_1  and  C_2
REMARK    2  A    between atoms: C_2  and  C_3
REMARK    3  A    between atoms: C_3  and  C_4
REMARK    4  A    between atoms: C_4  and  N_5
REMARK    5  A    between atoms: N_5  and  C_6
REMARK    6  A    between atoms: C_6  and  N_8
REMARK    7  A    between atoms: N_8  and  N_9
REMARK    8  A    between atoms: C_10  and  C_11
REMARK    9  A    between atoms: C_14  and  C_15
REMARK                            x       y       z     vdW  Elec       q    Type
REMARK                         _______ _______ _______ _____ _____    ______ ____
ROOT
ATOM      1  N   UNL     1       5.243   5.963  16.203  0.00  0.00    +0.000 N 
ATOM      2  H   UNL     1       4.818   6.447  15.422  0.00  0.00    +0.000 HD
ENDROOT
BRANCH   1   3
ATOM      3  C   UNL     1       6.604   6.016  16.368  0.00  0.00    +0.000 C 
ATOM      4  S   UNL     1       7.433   7.020  17.420  0.00  0.00    +0.000 S 
BRANCH   3   5
ATOM      5  N   UNL     1       7.341   5.198  15.553  0.00  0.00    +0.000 N 
ATOM      6  H   UNL     1       8.286   5.070  15.897  0.00  0.00    +0.000 HD
BRANCH   5   7
ATOM      7  C   UNL     1       7.155   5.028  14.120  0.00  0.00    +0.000 C 
BRANCH   7   8
ATOM      8  C   UNL     1       6.206   3.876  13.771  0.00  0.00    +0.000 C 
BRANCH   8  10
ATOM      9  C   UNL     1       4.954   2.963  11.782  0.00  0.00    +0.000 C 
ATOM     10  C   UNL     1       6.300   3.444  12.306  0.00  0.00    +0.000 C 
ENDBRANCH   8  10
ENDBRANCH   7   8
ENDBRANCH   5   7
ENDBRANCH   3   5
ENDBRANCH   1   3
BRANCH   1  11
ATOM     11  N   UNL     1       4.446   5.387  17.146  0.00  0.00    +0.000 NA
ATOM     12  C   UNL     1       3.741   6.187  17.883  0.00  0.00    +0.000 C 
BRANCH  12  13
ATOM     13  C   UNL     1       2.972   5.637  18.971  0.00  0.00    +0.000 A 
ATOM     14  C   UNL     1       2.172   6.309  19.873  0.00  0.00    +0.000 A 
ATOM     15  C   UNL     1       1.533   5.430  20.787  0.00  0.00    +0.000 A 
ATOM     16  C   UNL     1       1.867   4.111  20.559  0.00  0.00    +0.000 A 
ATOM     17  C   UNL     1       1.407   2.903  21.301  0.00  0.00    +0.000 C 
ATOM     18  S   UNL     1       2.947   3.952  19.238  0.00  0.00    +0.000 S 
ENDBRANCH  12  13
ENDBRANCH   1  11
TORSDOF 7
ENDMDL
MODEL 6
REMARK VINA RESULT:      -5.7      2.657      3.483
REMARK  Name = 
REMARK  9 active torsions:
REMARK  status: ('A' for Active; 'I' for Inactive)
REMARK    1  A    between atoms: C_1  and  C_2
REMARK    2  A    between atoms: C_2  and  C_3
REMARK    3  A    between atoms: C_3  and  C_4
REMARK    4  A    between atoms: C_4  and  N_5
REMARK    5  A    between atoms: N_5  and  C_6
REMARK    6  A    between atoms: C_6  and  N_8
REMARK    7  A    between atoms: N_8  and  N_9
REMARK    8  A    between atoms: C_10  and  C_11
REMARK    9  A    between atoms: C_14  and  C_15
REMARK                            x       y       z     vdW  Elec       q    Type
REMARK                         _______ _______ _______ _____ _____    ______ ____
ROOT
ATOM      1  N   UNL     1       6.365   5.287  15.070  0.00  0.00    +0.000 N 
ATOM      2  H   UNL     1       6.890   6.037  15.502  0.00  0.00    +0.000 HD
ENDROOT
BRANCH   1   3
ATOM      3  C   UNL     1       6.838   4.711  13.918  0.00  0.00    +0.000 C 
ATOM      4  S   UNL     1       8.043   5.322  12.931  0.00  0.00    +0.000 S 
BRANCH   3   5
ATOM      5  N   UNL     1       6.221   3.551  13.528  0.00  0.00    +0.000 N 
ATOM      6  H   UNL     1       6.519   2.757  14.084  0.00  0.00    +0.000 HD
BRANCH   5   7
ATOM      7  C   UNL     1       5.740   3.249  12.189  0.00  0.00    +0.000 C 
BRANCH   7   8
ATOM      8  C   UNL     1       4.235   3.495  12.023  0.00  0.00    +0.000 C 
BRANCH   8  10
ATOM      9  C   UNL     1       3.107   4.100   9.851  0.00  0.00    +0.000 C 
ATOM     10  C   UNL     1       3.685   2.973  10.694  0.00  0.00    +0.000 C 
ENDBRANCH   8  10
ENDBRANCH   7   8
ENDBRANCH   5   7
ENDBRANCH   3   5
ENDBRANCH   1   3
BRANCH   1  11
ATOM     11  N   UNL     1       5.277   4.777  15.711  0.00  0.00    +0.000 NA
ATOM     12  C   UNL     1       4.773   5.493  16.666  0.00  0.00    +0.000 C 
BRANCH  12  13
ATOM     13  C   UNL     1       3.695   4.948  17.454  0.00  0.00    +0.000 A 
ATOM     14  C   UNL     1       2.865   3.890  17.144  0.00  0.00    +0.000 A 
ATOM     15  C   UNL     1       1.939   3.609  18.185  0.00  0.00    +0.000 A 
ATOM     16  C   UNL     1       2.087   4.464  19.257  0.00  0.00    +0.000 A 
ATOM     17  C   UNL     1       1.309   4.490  20.527  0.00  0.00    +0.000 C 
ATOM     18  S   UNL     1       3.348   5.595  18.994  0.00  0.00    +0.000 S 
ENDBRANCH  12  13
ENDBRANCH   1  11
TORSDOF 7
ENDMDL
MODEL 7
REMARK VINA RESULT:      -5.6      4.658      7.817
REMARK  Name = 
REMARK  9 active torsions:
REMARK  status: ('A' for Active; 'I' for Inactive)
REMARK    1  A    between atoms: C_1  and  C_2
REMARK    2  A    between atoms: C_2  and  C_3
REMARK    3  A    between atoms: C_3  and  C_4
REMARK    4  A    between atoms: C_4  and  N_5
REMARK    5  A    between atoms: N_5  and  C_6
REMARK    6  A    between atoms: C_6  and  N_8
REMARK    7  A    between atoms: N_8  and  N_9
REMARK    8  A    between atoms: C_10  and  C_11
REMARK    9  A    between atoms: C_14  and  C_15
REMARK                            x       y       z     vdW  Elec       q    Type
REMARK                         _______ _______ _______ _____ _____    ______ ____
ROOT
ATOM      1  N   UNL     1       7.509   7.950  17.201  0.00  0.00    +0.000 N 
ATOM      2  H   UNL     1       7.172   8.377  16.347  0.00  0.00    +0.000 HD
ENDROOT
BRANCH   1   3
ATOM      3  C   UNL     1       7.395   6.593  17.368  0.00  0.00    +0.000 C 
ATOM      4  S   UNL     1       7.536   5.760  18.812  0.00  0.00    +0.000 S 
BRANCH   3   5
ATOM      5  N   UNL     1       7.196   5.861  16.226  0.00  0.00    +0.000 N 
ATOM      6  H   UNL     1       7.981   5.932  15.588  0.00  0.00    +0.000 HD
BRANCH   5   7
ATOM      7  C   UNL     1       5.909   5.552  15.624  0.00  0.00    +0.000 C 
BRANCH   7   8
ATOM      8  C   UNL     1       5.507   4.081  15.787  0.00  0.00    +0.000 C 
BRANCH   8  10
ATOM      9  C   UNL     1       3.825   5.043  17.400  0.00  0.00    +0.000 C 
ATOM     10  C   UNL     1       4.662   3.825  17.037  0.00  0.00    +0.000 C 
ENDBRANCH   8  10
ENDBRANCH   7   8
ENDBRANCH   5   7
ENDBRANCH   3   5
ENDBRANCH   1   3
BRANCH   1  11
ATOM     11  N   UNL     1       8.188   8.710  18.105  0.00  0.00    +0.000 NA
ATOM     12  C   UNL     1       8.470   9.925  17.752  0.00  0.00    +0.000 C 
BRANCH  12  13
ATOM     13  C   UNL     1       9.288  10.733  18.622  0.00  0.00    +0.000 A 
ATOM     14  C   UNL     1       9.405  10.656  19.995  0.00  0.00    +0.000 A 
ATOM     15  C   UNL     1      10.343  11.592  20.509  0.00  0.00    +0.000 A 
ATOM     16  C   UNL     1      10.910  12.359  19.514  0.00  0.00    +0.000 A 
ATOM     17  C   UNL     1      11.926  13.441  19.652  0.00  0.00    +0.000 C 
ATOM     18  S   UNL     1      10.307  11.935  17.967  0.00  0.00    +0.000 S 
ENDBRANCH  12  13
ENDBRANCH   1  11
TORSDOF 7
ENDMDL
MODEL 8
REMARK VINA RESULT:      -5.6      2.132      2.727
REMARK  Name = 
REMARK  9 active torsions:
REMARK  status: ('A' for Active; 'I' for Inactive)
REMARK    1  A    between atoms: C_1  and  C_2
REMARK    2  A    between atoms: C_2  and  C_3
REMARK    3  A    between atoms: C_3  and  C_4
REMARK    4  A    between atoms: C_4  and  N_5
REMARK    5  A    between atoms: N_5  and  C_6
REMARK    6  A    between atoms: C_6  and  N_8
REMARK    7  A    between atoms: N_8  and  N_9
REMARK    8  A    between atoms: C_10  and  C_11
REMARK    9  A    between atoms: C_14  and  C_15
REMARK                            x       y       z     vdW  Elec       q    Type
REMARK                         _______ _______ _______ _____ _____    ______ ____
ROOT
ATOM      1  N   UNL     1       6.249   3.743  16.543  0.00  0.00    +0.000 N 
ATOM      2  H   UNL     1       7.060   3.154  16.684  0.00  0.00    +0.000 HD
ENDROOT
BRANCH   1   3
ATOM      3  C   UNL     1       6.023   4.296  15.307  0.00  0.00    +0.000 C 
ATOM      4  S   UNL     1       5.395   5.817  15.007  0.00  0.00    +0.000 S 
BRANCH   3   5
ATOM      5  N   UNL     1       6.298   3.495  14.230  0.00  0.00    +0.000 N 
ATOM      6  H   UNL     1       6.891   2.711  14.481  0.00  0.00    +0.000 HD
BRANCH   5   7
ATOM      7  C   UNL     1       6.359   3.924  12.842  0.00  0.00    +0.000 C 
BRANCH   7   8
ATOM      8  C   UNL     1       5.605   2.987  11.891  0.00  0.00    +0.000 C 
BRANCH   8  10
ATOM      9  C   UNL     1       3.689   3.630  10.384  0.00  0.00    +0.000 C 
ATOM     10  C   UNL     1       4.108   3.294  11.808  0.00  0.00    +0.000 C 
ENDBRANCH   8  10
ENDBRANCH   7   8
ENDBRANCH   5   7
ENDBRANCH   3   5
ENDBRANCH   1   3
BRANCH   1  11
ATOM     11  N   UNL     1       5.329   3.863  17.541  0.00  0.00    +0.000 NA
ATOM     12  C   UNL     1       4.314   3.059  17.500  0.00  0.00    +0.000 C 
BRANCH  12  13
ATOM     13  C   UNL     1       3.255   3.221  18.464  0.00  0.00    +0.000 A 
ATOM     14  C   UNL     1       2.038   3.851  18.295  0.00  0.00    +0.000 A 
ATOM     15  C   UNL     1       1.227   3.779  19.459  0.00  0.00    +0.000 A 
ATOM     16  C   UNL     1       1.850   3.101  20.485  0.00  0.00    +0.000 A 
ATOM     17  C   UNL     1       1.329   2.820  21.853  0.00  0.00    +0.000 C 
ATOM     18  S   UNL     1       3.408   2.554  20.027  0.00  0.00    +0.000 S 
ENDBRANCH  12  13
ENDBRANCH   1  11
TORSDOF 7
ENDMDL
MODEL 9
REMARK VINA RESULT:      -5.5      3.400      5.644
REMARK  Name = 
REMARK  9 active torsions:
REMARK  status: ('A' for Active; 'I' for Inactive)
REMARK    1  A    between atoms: C_1  and  C_2
REMARK    2  A    between atoms: C_2  and  C_3
REMARK    3  A    between atoms: C_3  and  C_4
REMARK    4  A    between atoms: C_4  and  N_5
REMARK    5  A    between atoms: N_5  and  C_6
REMARK    6  A    between atoms: C_6  and  N_8
REMARK    7  A    between atoms: N_8  and  N_9
REMARK    8  A    between atoms: C_10  and  C_11
REMARK    9  A    between atoms: C_14  and  C_15
REMARK                            x       y       z     vdW  Elec       q    Type
REMARK                         _______ _______ _______ _____ _____    ______ ____
ROOT
ATOM      1  N   UNL     1       3.843   4.376  17.845  0.00  0.00    +0.000 N 
ATOM      2  H   UNL     1       3.351   3.658  17.330  0.00  0.00    +0.000 HD
ENDROOT
BRANCH   1   3
ATOM      3  C   UNL     1       5.031   4.071  18.460  0.00  0.00    +0.000 C 
ATOM      4  S   UNL     1       6.531   4.708  18.082  0.00  0.00    +0.000 S 
BRANCH   3   5
ATOM      5  N   UNL     1       4.972   3.116  19.442  0.00  0.00    +0.000 N 
ATOM      6  H   UNL     1       5.872   2.675  19.597  0.00  0.00    +0.000 HD
BRANCH   5   7
ATOM      7  C   UNL     1       3.803   2.326  19.794  0.00  0.00    +0.000 C 
BRANCH   7   8
ATOM      8  C   UNL     1       3.132   2.793  21.092  0.00  0.00    +0.000 C 
BRANCH   8  10
ATOM      9  C   UNL     1       0.983   3.169  19.827  0.00  0.00    +0.000 C 
ATOM     10  C   UNL     1       1.614   2.594  21.087  0.00  0.00    +0.000 C 
ENDBRANCH   8  10
ENDBRANCH   7   8
ENDBRANCH   5   7
ENDBRANCH   3   5
ENDBRANCH   1   3
BRANCH   1  11
ATOM     11  N   UNL     1       3.388   5.660  17.802  0.00  0.00    +0.000 NA
ATOM     12  C   UNL     1       2.944   6.160  18.912  0.00  0.00    +0.000 C 
BRANCH  12  13
ATOM     13  C   UNL     1       2.344   7.470  18.897  0.00  0.00    +0.000 A 
ATOM     14  C   UNL     1       2.261   8.357  17.843  0.00  0.00    +0.000 A 
ATOM     15  C   UNL     1       1.558   9.543  18.190  0.00  0.00    +0.000 A 
ATOM     16  C   UNL     1       1.130   9.528  19.501  0.00  0.00    +0.000 A 
ATOM     17  C   UNL     1       0.369  10.580  20.232  0.00  0.00    +0.000 C 
ATOM     18  S   UNL     1       1.579   8.078  20.297  0.00  0.00    +0.000 S 
ENDBRANCH  12  13
ENDBRANCH   1  11
TORSDOF 7
ENDMDL
