MODEL 1
REMARK VINA RESULT:      -9.0      0.000      0.000
REMARK  Name = 
REMARK  7 active torsions:
REMARK  status: ('A' for Active; 'I' for Inactive)
REMARK    1  A    between atoms: C_2  and  C_3
REMARK    2  A    between atoms: C_11  and  C_12
REMARK    3  A    between atoms: C_12  and  N_13
REMARK    4  A    between atoms: N_13  and  C_14
REMARK    5  A    between atoms: C_14  and  C_15
REMARK    6  A    between atoms: C_14  and  C_25
REMARK    7  A    between atoms: C_18  and  C_19
REMARK                            x       y       z     vdW  Elec       q    Type
REMARK                         _______ _______ _______ _____ _____    ______ ____
ROOT
ATOM      1  C   UNL     1       3.205   5.574  18.830  0.00  0.00    +0.000 C 
ENDROOT
BRANCH   1   2
ATOM      2  C   UNL     1       2.530   6.941  18.955  0.00  0.00    +0.000 A 
ATOM      3  C   UNL     1       2.375   7.778  17.839  0.00  0.00    +0.000 A 
ATOM      4  C   UNL     1       1.715   9.004  17.946  0.00  0.00    +0.000 A 
ATOM      5  C   UNL     1       1.197   9.431  19.176  0.00  0.00    +0.000 A 
ATOM      6  C   UNL     1       1.372   8.611  20.301  0.00  0.00    +0.000 A 
ATOM      7  C   UNL     1       2.029   7.380  20.191  0.00  0.00    +0.000 A 
BRANCH   5   8
ATOM      8  C   UNL     1       0.454  10.739  19.297  0.00  0.00    +0.000 C 
ATOM      9  F   UNL     1      -0.888  10.627  19.081  0.00  0.00    +0.000 F 
ATOM     10  F   UNL     1       0.585  11.303  20.530  0.00  0.00    +0.000 F 
ATOM     11  F   UNL     1       0.894  11.674  18.409  0.00  0.00    +0.000 F 
ENDBRANCH   5   8
ENDBRANCH   1   2
BRANCH   1  12
ATOM     12  C   UNL     1       2.489   4.533  19.682  0.00  0.00    +0.000 A 
ATOM     13  C   UNL     1       1.311   3.899  19.268  0.00  0.00    +0.000 A 
ATOM     14  C   UNL     1       0.677   2.985  20.104  0.00  0.00    +0.000 A 
ATOM     15  C   UNL     1       1.243   2.733  21.340  0.00  0.00    +0.000 A 
ATOM     16  N   UNL     1       2.374   3.322  21.783  0.00  0.00    +0.000 NA
ATOM     17  C   UNL     1       2.965   4.209  20.950  0.00  0.00    +0.000 A 
ENDBRANCH   1  12
BRANCH   1  18
ATOM     18  N   UNL     1       3.324   5.103  17.430  0.00  0.00    +0.000 NA
ATOM     19  H   UNL     1       3.398   4.086  17.467  0.00  0.00    +0.000 HD
BRANCH  18  20
ATOM     20  C   UNL     1       4.507   5.630  16.756  0.00  0.00    +0.000 C 
BRANCH  20  25
ATOM     21  O   UNL     1       7.899   5.611  13.776  0.00  0.00    +0.000 OA
ATOM     22  C   UNL     1       7.138   4.706  14.103  0.00  0.00    +0.000 C 
ATOM     23  N   UNL     1       6.875   4.404  15.422  0.00  0.00    +0.000 N 
ATOM     24  C   UNL     1       5.860   3.612  16.096  0.00  0.00    +0.000 C 
ATOM     25  C   UNL     1       5.733   4.775  17.088  0.00  0.00    +0.000 C 
ATOM     26  C   UNL     1       7.120   5.243  16.587  0.00  0.00    +0.000 C 
BRANCH  22  27
ATOM     27  C   UNL     1       6.409   3.941  13.049  0.00  0.00    +0.000 A 
ATOM     28  C   UNL     1       7.018   2.941  12.286  0.00  0.00    +0.000 A 
ATOM     29  C   UNL     1       6.265   2.168  11.402  0.00  0.00    +0.000 A 
ATOM     30  C   UNL     1       4.909   2.433  11.229  0.00  0.00    +0.000 A 
ATOM     31  C   UNL     1       4.305   3.471  11.936  0.00  0.00    +0.000 A 
ATOM     32  C   UNL     1       5.051   4.225  12.848  0.00  0.00    +0.000 A 
ENDBRANCH  22  27
ENDBRANCH  20  25
ENDBRANCH  18  20
ENDBRANCH   1  18
TORSDOF 7
ENDMDL
MODEL 2
REMARK VINA RESULT:      -9.0      0.173      1.425
REMARK  Name = 
REMARK  7 active torsions:
REMARK  status: ('A' for Active; 'I' for Inactive)
REMARK    1  A    between atoms: C_2  and  C_3
REMARK    2  A    between atoms: C_11  and  C_12
REMARK    3  A    between atoms: C_12  and  N_13
REMARK    4  A    between atoms: N_13  and  C_14
REMARK    5  A    between atoms: C_14  and  C_15
REMARK    6  A    between atoms: C_14  and  C_25
REMARK    7  A    between atoms: C_18  and  C_19
REMARK                            x       y       z     vdW  Elec       q    Type
REMARK                         _______ _______ _______ _____ _____    ______ ____
ROOT
ATOM      1  C   UNL     1       3.202   5.682  18.907  0.00  0.00    +0.000 C 
ENDROOT
BRANCH   1   2
ATOM      2  C   UNL     1       2.474   7.022  19.033  0.00  0.00    +0.000 A 
ATOM      3  C   UNL     1       1.949   7.449  20.262  0.00  0.00    +0.000 A 
ATOM      4  C   UNL     1       1.328   8.695  20.384  0.00  0.00    +0.000 A 
ATOM      5  C   UNL     1       1.209   9.545  19.277  0.00  0.00    +0.000 A 
ATOM      6  C   UNL     1       1.708   9.112  18.039  0.00  0.00    +0.000 A 
ATOM      7  C   UNL     1       2.335   7.866  17.919  0.00  0.00    +0.000 A 
BRANCH   5   8
ATOM      8  C   UNL     1       0.569  10.906  19.404  0.00  0.00    +0.000 C 
ATOM      9  F   UNL     1       0.935  11.578  20.532  0.00  0.00    +0.000 F 
ATOM     10  F   UNL     1       0.880  11.729  18.364  0.00  0.00    +0.000 F 
ATOM     11  F   UNL     1      -0.792  10.842  19.437  0.00  0.00    +0.000 F 
ENDBRANCH   5   8
ENDBRANCH   1   2
BRANCH   1  12
ATOM     12  C   UNL     1       2.506   4.606  19.730  0.00  0.00    +0.000 A 
ATOM     13  C   UNL     1       1.374   3.918  19.274  0.00  0.00    +0.000 A 
ATOM     14  C   UNL     1       0.754   2.973  20.084  0.00  0.00    +0.000 A 
ATOM     15  C   UNL     1       1.287   2.742  21.340  0.00  0.00    +0.000 A 
ATOM     16  N   UNL     1       2.373   3.382  21.824  0.00  0.00    +0.000 NA
ATOM     17  C   UNL     1       2.951   4.300  21.014  0.00  0.00    +0.000 A 
ENDBRANCH   1  12
BRANCH   1  18
ATOM     18  N   UNL     1       3.368   5.233  17.504  0.00  0.00    +0.000 NA
ATOM     19  H   UNL     1       3.465   4.218  17.529  0.00  0.00    +0.000 HD
BRANCH  18  20
ATOM     20  C   UNL     1       4.555   5.797  16.868  0.00  0.00    +0.000 C 
BRANCH  20  25
ATOM     21  O   UNL     1       7.839   5.614  13.775  0.00  0.00    +0.000 OA
ATOM     22  C   UNL     1       7.085   4.731  14.171  0.00  0.00    +0.000 C 
ATOM     23  N   UNL     1       6.866   4.493  15.511  0.00  0.00    +0.000 N 
ATOM     24  C   UNL     1       5.871   3.741  16.256  0.00  0.00    +0.000 C 
ATOM     25  C   UNL     1       5.787   4.950  17.197  0.00  0.00    +0.000 C 
ATOM     26  C   UNL     1       7.158   5.383  16.626  0.00  0.00    +0.000 C 
BRANCH  22  27
ATOM     27  C   UNL     1       6.314   3.923  13.180  0.00  0.00    +0.000 A 
ATOM     28  C   UNL     1       4.945   4.100  12.965  0.00  0.00    +0.000 A 
ATOM     29  C   UNL     1       4.294   3.411  11.941  0.00  0.00    +0.000 A 
ATOM     30  C   UNL     1       4.997   2.492  11.165  0.00  0.00    +0.000 A 
ATOM     31  C   UNL     1       6.349   2.260  11.414  0.00  0.00    +0.000 A 
ATOM     32  C   UNL     1       7.010   2.974  12.417  0.00  0.00    +0.000 A 
ENDBRANCH  22  27
ENDBRANCH  20  25
ENDBRANCH  18  20
ENDBRANCH   1  18
TORSDOF 7
ENDMDL
MODEL 3
REMARK VINA RESULT:      -9.0      0.641      1.151
REMARK  Name = 
REMARK  7 active torsions:
REMARK  status: ('A' for Active; 'I' for Inactive)
REMARK    1  A    between atoms: C_2  and  C_3
REMARK    2  A    between atoms: C_11  and  C_12
REMARK    3  A    between atoms: C_12  and  N_13
REMARK    4  A    between atoms: N_13  and  C_14
REMARK    5  A    between atoms: C_14  and  C_15
REMARK    6  A    between atoms: C_14  and  C_25
REMARK    7  A    between atoms: C_18  and  C_19
REMARK                            x       y       z     vdW  Elec       q    Type
REMARK                         _______ _______ _______ _____ _____    ______ ____
ROOT
ATOM      1  C   UNL     1       3.110   5.947  18.817  0.00  0.00    +0.000 C 
ENDROOT
BRANCH   1   2
ATOM      2  C   UNL     1       2.373   7.278  18.977  0.00  0.00    +0.000 A 
ATOM      3  C   UNL     1       2.159   8.126  17.879  0.00  0.00    +0.000 A 
ATOM      4  C   UNL     1       1.444   9.317  18.020  0.00  0.00    +0.000 A 
ATOM      5  C   UNL     1       0.927   9.698  19.266  0.00  0.00    +0.000 A 
ATOM      6  C   UNL     1       1.161   8.867  20.373  0.00  0.00    +0.000 A 
ATOM      7  C   UNL     1       1.874   7.671  20.230  0.00  0.00    +0.000 A 
BRANCH   5   8
ATOM      8  C   UNL     1       0.126  10.966  19.423  0.00  0.00    +0.000 C 
ATOM      9  F   UNL     1       0.487  11.951  18.552  0.00  0.00    +0.000 F 
ATOM     10  F   UNL     1      -1.208  10.769  19.228  0.00  0.00    +0.000 F 
ATOM     11  F   UNL     1       0.245  11.510  20.666  0.00  0.00    +0.000 F 
ENDBRANCH   5   8
ENDBRANCH   1   2
BRANCH   1  12
ATOM     12  C   UNL     1       2.425   4.846  19.616  0.00  0.00    +0.000 A 
ATOM     13  C   UNL     1       2.748   4.566  20.950  0.00  0.00    +0.000 A 
ATOM     14  C   UNL     1       2.118   3.522  21.619  0.00  0.00    +0.000 A 
ATOM     15  C   UNL     1       1.179   2.779  20.928  0.00  0.00    +0.000 A 
ATOM     16  N   UNL     1       0.838   3.008  19.642  0.00  0.00    +0.000 NA
ATOM     17  C   UNL     1       1.470   4.027  19.016  0.00  0.00    +0.000 A 
ENDBRANCH   1  12
BRANCH   1  18
ATOM     18  N   UNL     1       3.275   5.534  17.403  0.00  0.00    +0.000 NA
ATOM     19  H   UNL     1       3.262   4.514  17.391  0.00  0.00    +0.000 HD
BRANCH  18  20
ATOM     20  C   UNL     1       4.536   5.989  16.825  0.00  0.00    +0.000 C 
BRANCH  20  25
ATOM     21  O   UNL     1       8.095   5.667  14.066  0.00  0.00    +0.000 OA
ATOM     22  C   UNL     1       7.257   4.823  14.366  0.00  0.00    +0.000 C 
ATOM     23  N   UNL     1       6.894   4.575  15.672  0.00  0.00    +0.000 N 
ATOM     24  C   UNL     1       5.789   3.869  16.298  0.00  0.00    +0.000 C 
ATOM     25  C   UNL     1       5.680   5.065  17.254  0.00  0.00    +0.000 C 
ATOM     26  C   UNL     1       7.123   5.427  16.831  0.00  0.00    +0.000 C 
BRANCH  22  27
ATOM     27  C   UNL     1       6.545   4.079  13.285  0.00  0.00    +0.000 A 
ATOM     28  C   UNL     1       7.216   3.322  12.322  0.00  0.00    +0.000 A 
ATOM     29  C   UNL     1       6.504   2.542  11.410  0.00  0.00    +0.000 A 
ATOM     30  C   UNL     1       5.111   2.565  11.416  0.00  0.00    +0.000 A 
ATOM     31  C   UNL     1       4.430   3.369  12.330  0.00  0.00    +0.000 A 
ATOM     32  C   UNL     1       5.143   4.123  13.267  0.00  0.00    +0.000 A 
ENDBRANCH  22  27
ENDBRANCH  20  25
ENDBRANCH  18  20
ENDBRANCH   1  18
TORSDOF 7
ENDMDL
MODEL 4
REMARK VINA RESULT:      -8.9      1.196      1.951
REMARK  Name = 
REMARK  7 active torsions:
REMARK  status: ('A' for Active; 'I' for Inactive)
REMARK    1  A    between atoms: C_2  and  C_3
REMARK    2  A    between atoms: C_11  and  C_12
REMARK    3  A    between atoms: C_12  and  N_13
REMARK    4  A    between atoms: N_13  and  C_14
REMARK    5  A    between atoms: C_14  and  C_15
REMARK    6  A    between atoms: C_14  and  C_25
REMARK    7  A    between atoms: C_18  and  C_19
REMARK                            x       y       z     vdW  Elec       q    Type
REMARK                         _______ _______ _______ _____ _____    ______ ____
ROOT
ATOM      1  C   UNL     1       3.471   5.387  19.590  0.00  0.00    +0.000 C 
ENDROOT
BRANCH   1   2
ATOM      2  C   UNL     1       2.689   6.685  19.377  0.00  0.00    +0.000 A 
ATOM      3  C   UNL     1       1.986   7.288  20.431  0.00  0.00    +0.000 A 
ATOM      4  C   UNL     1       1.313   8.499  20.246  0.00  0.00    +0.000 A 
ATOM      5  C   UNL     1       1.319   9.135  18.998  0.00  0.00    +0.000 A 
ATOM      6  C   UNL     1       1.997   8.522  17.933  0.00  0.00    +0.000 A 
ATOM      7  C   UNL     1       2.676   7.312  18.121  0.00  0.00    +0.000 A 
BRANCH   5   8
ATOM      8  C   UNL     1       0.622  10.458  18.795  0.00  0.00    +0.000 C 
ATOM      9  F   UNL     1       1.478  11.503  18.611  0.00  0.00    +0.000 F 
ATOM     10  F   UNL     1      -0.199  10.455  17.708  0.00  0.00    +0.000 F 
ATOM     11  F   UNL     1      -0.162  10.804  19.855  0.00  0.00    +0.000 F 
ENDBRANCH   5   8
ENDBRANCH   1   2
BRANCH   1  12
ATOM     12  C   UNL     1       2.588   4.317  20.218  0.00  0.00    +0.000 A 
ATOM     13  C   UNL     1       1.536   3.701  19.528  0.00  0.00    +0.000 A 
ATOM     14  C   UNL     1       0.736   2.758  20.165  0.00  0.00    +0.000 A 
ATOM     15  C   UNL     1       1.012   2.457  21.486  0.00  0.00    +0.000 A 
ATOM     16  N   UNL     1       2.012   3.026  22.193  0.00  0.00    +0.000 NA
ATOM     17  C   UNL     1       2.770   3.943  21.548  0.00  0.00    +0.000 A 
ENDBRANCH   1  12
BRANCH   1  18
ATOM     18  N   UNL     1       4.103   4.873  18.352  0.00  0.00    +0.000 NA
ATOM     19  H   UNL     1       3.413   4.278  17.893  0.00  0.00    +0.000 HD
BRANCH  18  20
ATOM     20  C   UNL     1       5.298   4.077  18.617  0.00  0.00    +0.000 C 
BRANCH  20  25
ATOM     21  O   UNL     1       5.359   7.063  15.230  0.00  0.00    +0.000 OA
ATOM     22  C   UNL     1       6.032   6.051  15.395  0.00  0.00    +0.000 C 
ATOM     23  N   UNL     1       6.670   5.774  16.585  0.00  0.00    +0.000 N 
ATOM     24  C   UNL     1       7.282   4.585  17.153  0.00  0.00    +0.000 C 
ATOM     25  C   UNL     1       6.555   4.937  18.457  0.00  0.00    +0.000 C 
ATOM     26  C   UNL     1       6.406   6.368  17.889  0.00  0.00    +0.000 C 
BRANCH  22  27
ATOM     27  C   UNL     1       6.116   5.038  14.302  0.00  0.00    +0.000 A 
ATOM     28  C   UNL     1       5.113   4.093  14.071  0.00  0.00    +0.000 A 
ATOM     29  C   UNL     1       5.176   3.249  12.961  0.00  0.00    +0.000 A 
ATOM     30  C   UNL     1       6.277   3.304  12.109  0.00  0.00    +0.000 A 
ATOM     31  C   UNL     1       7.315   4.198  12.367  0.00  0.00    +0.000 A 
ATOM     32  C   UNL     1       7.237   5.067  13.459  0.00  0.00    +0.000 A 
ENDBRANCH  22  27
ENDBRANCH  20  25
ENDBRANCH  18  20
ENDBRANCH   1  18
TORSDOF 7
ENDMDL
MODEL 5
REMARK VINA RESULT:      -8.9      4.372      8.977
REMARK  Name = 
REMARK  7 active torsions:
REMARK  status: ('A' for Active; 'I' for Inactive)
REMARK    1  A    between atoms: C_2  and  C_3
REMARK    2  A    between atoms: C_11  and  C_12
REMARK    3  A    between atoms: C_12  and  N_13
REMARK    4  A    between atoms: N_13  and  C_14
REMARK    5  A    between atoms: C_14  and  C_15
REMARK    6  A    between atoms: C_14  and  C_25
REMARK    7  A    between atoms: C_18  and  C_19
REMARK                            x       y       z     vdW  Elec       q    Type
REMARK                         _______ _______ _______ _____ _____    ______ ____
ROOT
ATOM      1  C   UNL     1       2.358   6.006  18.923  0.00  0.00    +0.000 C 
ENDROOT
BRANCH   1   2
ATOM      2  C   UNL     1       3.400   5.639  17.865  0.00  0.00    +0.000 A 
ATOM      3  C   UNL     1       4.200   6.624  17.263  0.00  0.00    +0.000 A 
ATOM      4  C   UNL     1       5.183   6.280  16.333  0.00  0.00    +0.000 A 
ATOM      5  C   UNL     1       5.389   4.942  15.972  0.00  0.00    +0.000 A 
ATOM      6  C   UNL     1       4.574   3.957  16.550  0.00  0.00    +0.000 A 
ATOM      7  C   UNL     1       3.592   4.301  17.486  0.00  0.00    +0.000 A 
BRANCH   5   8
ATOM      8  C   UNL     1       6.470   4.557  14.992  0.00  0.00    +0.000 C 
ATOM      9  F   UNL     1       7.694   4.389  15.568  0.00  0.00    +0.000 F 
ATOM     10  F   UNL     1       6.199   3.388  14.348  0.00  0.00    +0.000 F 
ATOM     11  F   UNL     1       6.646   5.490  14.015  0.00  0.00    +0.000 F 
ENDBRANCH   5   8
ENDBRANCH   1   2
BRANCH   1  12
ATOM     12  C   UNL     1       1.998   4.795  19.775  0.00  0.00    +0.000 A 
ATOM     13  C   UNL     1       1.092   3.814  19.351  0.00  0.00    +0.000 A 
ATOM     14  C   UNL     1       0.770   2.750  20.187  0.00  0.00    +0.000 A 
ATOM     15  C   UNL     1       1.366   2.698  21.434  0.00  0.00    +0.000 A 
ATOM     16  N   UNL     1       2.241   3.621  21.887  0.00  0.00    +0.000 NA
ATOM     17  C   UNL     1       2.531   4.647  21.054  0.00  0.00    +0.000 A 
ENDBRANCH   1  12
BRANCH   1  18
ATOM     18  N   UNL     1       2.769   7.139  19.785  0.00  0.00    +0.000 NA
ATOM     19  H   UNL     1       3.046   6.741  20.683  0.00  0.00    +0.000 HD
BRANCH  18  20
ATOM     20  C   UNL     1       1.689   8.095  20.014  0.00  0.00    +0.000 C 
BRANCH  20  25
ATOM     21  O   UNL     1       1.757  12.603  20.247  0.00  0.00    +0.000 OA
ATOM     22  C   UNL     1       0.816  11.843  20.048  0.00  0.00    +0.000 C 
ATOM     23  N   UNL     1       0.875  10.821  19.125  0.00  0.00    +0.000 N 
ATOM     24  C   UNL     1       0.066   9.641  18.868  0.00  0.00    +0.000 C 
ATOM     25  C   UNL     1       1.386   8.872  18.730  0.00  0.00    +0.000 C 
ATOM     26  C   UNL     1       2.067  10.245  18.518  0.00  0.00    +0.000 C 
BRANCH  22  27
ATOM     27  C   UNL     1      -0.420  11.971  20.876  0.00  0.00    +0.000 A 
ATOM     28  C   UNL     1      -0.523  11.437  22.163  0.00  0.00    +0.000 A 
ATOM     29  C   UNL     1      -1.649  11.689  22.947  0.00  0.00    +0.000 A 
ATOM     30  C   UNL     1      -2.709  12.426  22.423  0.00  0.00    +0.000 A 
ATOM     31  C   UNL     1      -2.645  12.908  21.116  0.00  0.00    +0.000 A 
ATOM     32  C   UNL     1      -1.502  12.685  20.342  0.00  0.00    +0.000 A 
ENDBRANCH  22  27
ENDBRANCH  20  25
ENDBRANCH  18  20
ENDBRANCH   1  18
TORSDOF 7
ENDMDL
MODEL 6
REMARK VINA RESULT:      -8.9      0.852      1.620
REMARK  Name = 
REMARK  7 active torsions:
REMARK  status: ('A' for Active; 'I' for Inactive)
REMARK    1  A    between atoms: C_2  and  C_3
REMARK    2  A    between atoms: C_11  and  C_12
REMARK    3  A    between atoms: C_12  and  N_13
REMARK    4  A    between atoms: N_13  and  C_14
REMARK    5  A    between atoms: C_14  and  C_15
REMARK    6  A    between atoms: C_14  and  C_25
REMARK    7  A    between atoms: C_18  and  C_19
REMARK                            x       y       z     vdW  Elec       q    Type
REMARK                         _______ _______ _______ _____ _____    ______ ____
ROOT
ATOM      1  C   UNL     1       3.106   6.095  18.742  0.00  0.00    +0.000 C 
ENDROOT
BRANCH   1   2
ATOM      2  C   UNL     1       2.315   7.395  18.905  0.00  0.00    +0.000 A 
ATOM      3  C   UNL     1       1.852   7.809  20.163  0.00  0.00    +0.000 A 
ATOM      4  C   UNL     1       1.172   9.020  20.316  0.00  0.00    +0.000 A 
ATOM      5  C   UNL     1       0.931   9.847  19.211  0.00  0.00    +0.000 A 
ATOM      6  C   UNL     1       1.367   9.425  17.946  0.00  0.00    +0.000 A 
ATOM      7  C   UNL     1       2.053   8.214  17.795  0.00  0.00    +0.000 A 
BRANCH   5   8
ATOM      8  C   UNL     1       0.226  11.172  19.370  0.00  0.00    +0.000 C 
ATOM      9  F   UNL     1      -0.433  11.578  18.247  0.00  0.00    +0.000 F 
ATOM     10  F   UNL     1      -0.708  11.152  20.361  0.00  0.00    +0.000 F 
ATOM     11  F   UNL     1       1.081  12.185  19.683  0.00  0.00    +0.000 F 
ENDBRANCH   5   8
ENDBRANCH   1   2
BRANCH   1  12
ATOM     12  C   UNL     1       2.384   4.932  19.412  0.00  0.00    +0.000 A 
ATOM     13  C   UNL     1       2.483   4.670  20.784  0.00  0.00    +0.000 A 
ATOM     14  C   UNL     1       1.835   3.569  21.335  0.00  0.00    +0.000 A 
ATOM     15  C   UNL     1       1.103   2.754  20.491  0.00  0.00    +0.000 A 
ATOM     16  N   UNL     1       0.982   2.965  19.163  0.00  0.00    +0.000 NA
ATOM     17  C   UNL     1       1.628   4.040  18.654  0.00  0.00    +0.000 A 
ENDBRANCH   1  12
BRANCH   1  18
ATOM     18  N   UNL     1       3.414   5.768  17.330  0.00  0.00    +0.000 NA
ATOM     19  H   UNL     1       3.449   4.750  17.264  0.00  0.00    +0.000 HD
BRANCH  18  20
ATOM     20  C   UNL     1       4.700   6.305  16.894  0.00  0.00    +0.000 C 
BRANCH  20  25
ATOM     21  O   UNL     1       8.092   5.665  13.984  0.00  0.00    +0.000 OA
ATOM     22  C   UNL     1       7.247   4.873  14.390  0.00  0.00    +0.000 C 
ATOM     23  N   UNL     1       6.949   4.734  15.728  0.00  0.00    +0.000 N 
ATOM     24  C   UNL     1       5.860   4.113  16.463  0.00  0.00    +0.000 C 
ATOM     25  C   UNL     1       5.838   5.379  17.330  0.00  0.00    +0.000 C 
ATOM     26  C   UNL     1       7.266   5.662  16.806  0.00  0.00    +0.000 C 
BRANCH  22  27
ATOM     27  C   UNL     1       6.456   4.075  13.408  0.00  0.00    +0.000 A 
ATOM     28  C   UNL     1       5.059   4.102  13.366  0.00  0.00    +0.000 A 
ATOM     29  C   UNL     1       4.368   3.440  12.351  0.00  0.00    +0.000 A 
ATOM     30  C   UNL     1       5.068   2.692  11.407  0.00  0.00    +0.000 A 
ATOM     31  C   UNL     1       6.458   2.604  11.478  0.00  0.00    +0.000 A 
ATOM     32  C   UNL     1       7.154   3.296  12.474  0.00  0.00    +0.000 A 
ENDBRANCH  22  27
ENDBRANCH  20  25
ENDBRANCH  18  20
ENDBRANCH   1  18
TORSDOF 7
ENDMDL
MODEL 7
REMARK VINA RESULT:      -8.8      4.331      8.906
REMARK  Name = 
REMARK  7 active torsions:
REMARK  status: ('A' for Active; 'I' for Inactive)
REMARK    1  A    between atoms: C_2  and  C_3
REMARK    2  A    between atoms: C_11  and  C_12
REMARK    3  A    between atoms: C_12  and  N_13
REMARK    4  A    between atoms: N_13  and  C_14
REMARK    5  A    between atoms: C_14  and  C_15
REMARK    6  A    between atoms: C_14  and  C_25
REMARK    7  A    between atoms: C_18  and  C_19
REMARK                            x       y       z     vdW  Elec       q    Type
REMARK                         _______ _______ _______ _____ _____    ______ ____
ROOT
ATOM      1  C   UNL     1       2.438   6.039  18.751  0.00  0.00    +0.000 C 
ENDROOT
BRANCH   1   2
ATOM      2  C   UNL     1       3.529   5.653  17.751  0.00  0.00    +0.000 A 
ATOM      3  C   UNL     1       3.790   4.308  17.445  0.00  0.00    +0.000 A 
ATOM      4  C   UNL     1       4.754   3.961  16.495  0.00  0.00    +0.000 A 
ATOM      5  C   UNL     1       5.490   4.950  15.830  0.00  0.00    +0.000 A 
ATOM      6  C   UNL     1       5.253   6.296  16.152  0.00  0.00    +0.000 A 
ATOM      7  C   UNL     1       4.283   6.643  17.100  0.00  0.00    +0.000 A 
BRANCH   5   8
ATOM      8  C   UNL     1       6.511   4.587  14.780  0.00  0.00    +0.000 C 
ATOM      9  F   UNL     1       6.618   5.509  13.782  0.00  0.00    +0.000 F 
ATOM     10  F   UNL     1       7.765   4.451  15.295  0.00  0.00    +0.000 F 
ATOM     11  F   UNL     1       6.230   3.405  14.164  0.00  0.00    +0.000 F 
ENDBRANCH   5   8
ENDBRANCH   1   2
BRANCH   1  12
ATOM     12  C   UNL     1       2.034   4.844  19.604  0.00  0.00    +0.000 A 
ATOM     13  C   UNL     1       1.150   3.856  19.152  0.00  0.00    +0.000 A 
ATOM     14  C   UNL     1       0.784   2.807  19.989  0.00  0.00    +0.000 A 
ATOM     15  C   UNL     1       1.315   2.777  21.266  0.00  0.00    +0.000 A 
ATOM     16  N   UNL     1       2.167   3.707  21.747  0.00  0.00    +0.000 NA
ATOM     17  C   UNL     1       2.501   4.719  20.911  0.00  0.00    +0.000 A 
ENDBRANCH   1  12
BRANCH   1  18
ATOM     18  N   UNL     1       2.810   7.186  19.612  0.00  0.00    +0.000 NA
ATOM     19  H   UNL     1       3.045   6.803  20.529  0.00  0.00    +0.000 HD
BRANCH  18  20
ATOM     20  C   UNL     1       1.722   8.146  19.776  0.00  0.00    +0.000 C 
BRANCH  20  25
ATOM     21  O   UNL     1       1.851  12.657  19.904  0.00  0.00    +0.000 OA
ATOM     22  C   UNL     1       0.905  11.906  19.692  0.00  0.00    +0.000 C 
ATOM     23  N   UNL     1       0.979  10.861  18.796  0.00  0.00    +0.000 N 
ATOM     24  C   UNL     1       0.161   9.687  18.541  0.00  0.00    +0.000 C 
ATOM     25  C   UNL     1       1.473   8.896  18.465  0.00  0.00    +0.000 C 
ATOM     26  C   UNL     1       2.181  10.254  18.242  0.00  0.00    +0.000 C 
BRANCH  22  27
ATOM     27  C   UNL     1      -0.355  12.072  20.475  0.00  0.00    +0.000 A 
ATOM     28  C   UNL     1      -0.475  11.660  21.805  0.00  0.00    +0.000 A 
ATOM     29  C   UNL     1      -1.629  11.949  22.534  0.00  0.00    +0.000 A 
ATOM     30  C   UNL     1      -2.696  12.598  21.918  0.00  0.00    +0.000 A 
ATOM     31  C   UNL     1      -2.613  12.955  20.573  0.00  0.00    +0.000 A 
ATOM     32  C   UNL     1      -1.444  12.696  19.850  0.00  0.00    +0.000 A 
ENDBRANCH  22  27
ENDBRANCH  20  25
ENDBRANCH  18  20
ENDBRANCH   1  18
TORSDOF 7
ENDMDL
MODEL 8
REMARK VINA RESULT:      -8.8      0.704      1.351
REMARK  Name = 
REMARK  7 active torsions:
REMARK  status: ('A' for Active; 'I' for Inactive)
REMARK    1  A    between atoms: C_2  and  C_3
REMARK    2  A    between atoms: C_11  and  C_12
REMARK    3  A    between atoms: C_12  and  N_13
REMARK    4  A    between atoms: N_13  and  C_14
REMARK    5  A    between atoms: C_14  and  C_15
REMARK    6  A    between atoms: C_14  and  C_25
REMARK    7  A    between atoms: C_18  and  C_19
REMARK                            x       y       z     vdW  Elec       q    Type
REMARK                         _______ _______ _______ _____ _____    ______ ____
ROOT
ATOM      1  C   UNL     1       3.413   5.722  18.407  0.00  0.00    +0.000 C 
ENDROOT
BRANCH   1   2
ATOM      2  C   UNL     1       2.641   6.981  18.805  0.00  0.00    +0.000 A 
ATOM      3  C   UNL     1       2.333   7.972  17.861  0.00  0.00    +0.000 A 
ATOM      4  C   UNL     1       1.586   9.097  18.218  0.00  0.00    +0.000 A 
ATOM      5  C   UNL     1       1.133   9.266  19.532  0.00  0.00    +0.000 A 
ATOM      6  C   UNL     1       1.462   8.292  20.488  0.00  0.00    +0.000 A 
ATOM      7  C   UNL     1       2.205   7.162  20.128  0.00  0.00    +0.000 A 
BRANCH   5   8
ATOM      8  C   UNL     1       0.299  10.462  19.921  0.00  0.00    +0.000 C 
ATOM      9  F   UNL     1       1.025  11.484  20.456  0.00  0.00    +0.000 F 
ATOM     10  F   UNL     1      -0.372  10.998  18.863  0.00  0.00    +0.000 F 
ATOM     11  F   UNL     1      -0.651  10.157  20.850  0.00  0.00    +0.000 F 
ENDBRANCH   5   8
ENDBRANCH   1   2
BRANCH   1  12
ATOM     12  C   UNL     1       2.710   4.469  18.914  0.00  0.00    +0.000 A 
ATOM     13  C   UNL     1       1.467   4.047  18.423  0.00  0.00    +0.000 A 
ATOM     14  C   UNL     1       0.853   2.917  18.951  0.00  0.00    +0.000 A 
ATOM     15  C   UNL     1       1.501   2.237  19.966  0.00  0.00    +0.000 A 
ATOM     16  N   UNL     1       2.696   2.607  20.473  0.00  0.00    +0.000 NA
ATOM     17  C   UNL     1       3.268   3.713  19.943  0.00  0.00    +0.000 A 
ENDBRANCH   1  12
BRANCH   1  18
ATOM     18  N   UNL     1       3.660   5.621  16.949  0.00  0.00    +0.000 NA
ATOM     19  H   UNL     1       3.691   4.626  16.724  0.00  0.00    +0.000 HD
BRANCH  18  20
ATOM     20  C   UNL     1       4.927   6.227  16.549  0.00  0.00    +0.000 C 
BRANCH  20  25
ATOM     21  O   UNL     1       8.080   5.505  13.397  0.00  0.00    +0.000 OA
ATOM     22  C   UNL     1       7.269   4.726  13.888  0.00  0.00    +0.000 C 
ATOM     23  N   UNL     1       7.076   4.621  15.248  0.00  0.00    +0.000 N 
ATOM     24  C   UNL     1       6.048   4.021  16.082  0.00  0.00    +0.000 C 
ATOM     25  C   UNL     1       6.095   5.307  16.917  0.00  0.00    +0.000 C 
ATOM     26  C   UNL     1       7.478   5.573  16.275  0.00  0.00    +0.000 C 
BRANCH  22  27
ATOM     27  C   UNL     1       6.401   3.907  12.991  0.00  0.00    +0.000 A 
ATOM     28  C   UNL     1       5.031   4.141  12.847  0.00  0.00    +0.000 A 
ATOM     29  C   UNL     1       4.286   3.433  11.904  0.00  0.00    +0.000 A 
ATOM     30  C   UNL     1       4.896   2.441  11.140  0.00  0.00    +0.000 A 
ATOM     31  C   UNL     1       6.248   2.153  11.321  0.00  0.00    +0.000 A 
ATOM     32  C   UNL     1       7.003   2.886  12.242  0.00  0.00    +0.000 A 
ENDBRANCH  22  27
ENDBRANCH  20  25
ENDBRANCH  18  20
ENDBRANCH   1  18
TORSDOF 7
ENDMDL
MODEL 9
REMARK VINA RESULT:      -8.7      1.338      2.082
REMARK  Name = 
REMARK  7 active torsions:
REMARK  status: ('A' for Active; 'I' for Inactive)
REMARK    1  A    between atoms: C_2  and  C_3
REMARK    2  A    between atoms: C_11  and  C_12
REMARK    3  A    between atoms: C_12  and  N_13
REMARK    4  A    between atoms: N_13  and  C_14
REMARK    5  A    between atoms: C_14  and  C_15
REMARK    6  A    between atoms: C_14  and  C_25
REMARK    7  A    between atoms: C_18  and  C_19
REMARK                            x       y       z     vdW  Elec       q    Type
REMARK                         _______ _______ _______ _____ _____    ______ ____
ROOT
ATOM      1  C   UNL     1       3.478   5.339  19.478  0.00  0.00    +0.000 C 
ENDROOT
BRANCH   1   2
ATOM      2  C   UNL     1       2.756   6.673  19.279  0.00  0.00    +0.000 A 
ATOM      3  C   UNL     1       2.015   7.259  20.317  0.00  0.00    +0.000 A 
ATOM      4  C   UNL     1       1.397   8.500  20.147  0.00  0.00    +0.000 A 
ATOM      5  C   UNL     1       1.497   9.187  18.931  0.00  0.00    +0.000 A 
ATOM      6  C   UNL     1       2.214   8.594  17.880  0.00  0.00    +0.000 A 
ATOM      7  C   UNL     1       2.837   7.352  18.053  0.00  0.00    +0.000 A 
BRANCH   5   8
ATOM      8  C   UNL     1       0.860  10.542  18.747  0.00  0.00    +0.000 C 
ATOM      9  F   UNL     1       0.438  11.110  19.912  0.00  0.00    +0.000 F 
ATOM     10  F   UNL     1       1.708  11.445  18.180  0.00  0.00    +0.000 F 
ATOM     11  F   UNL     1      -0.236  10.500  17.938  0.00  0.00    +0.000 F 
ENDBRANCH   5   8
ENDBRANCH   1   2
BRANCH   1  12
ATOM     12  C   UNL     1       2.507   4.257  19.932  0.00  0.00    +0.000 A 
ATOM     13  C   UNL     1       2.450   3.798  21.255  0.00  0.00    +0.000 A 
ATOM     14  C   UNL     1       1.571   2.779  21.605  0.00  0.00    +0.000 A 
ATOM     15  C   UNL     1       0.770   2.241  20.614  0.00  0.00    +0.000 A 
ATOM     16  N   UNL     1       0.792   2.647  19.327  0.00  0.00    +0.000 NA
ATOM     17  C   UNL     1       1.661   3.638  19.015  0.00  0.00    +0.000 A 
ENDBRANCH   1  12
BRANCH   1  18
ATOM     18  N   UNL     1       4.227   4.892  18.280  0.00  0.00    +0.000 NA
ATOM     19  H   UNL     1       3.607   4.270  17.760  0.00  0.00    +0.000 HD
BRANCH  18  20
ATOM     20  C   UNL     1       5.444   4.159  18.616  0.00  0.00    +0.000 C 
BRANCH  20  25
ATOM     21  O   UNL     1       5.364   7.093  15.185  0.00  0.00    +0.000 OA
ATOM     22  C   UNL     1       6.069   6.104  15.354  0.00  0.00    +0.000 C 
ATOM     23  N   UNL     1       6.733   5.864  16.538  0.00  0.00    +0.000 N 
ATOM     24  C   UNL     1       7.389   4.702  17.113  0.00  0.00    +0.000 C 
ATOM     25  C   UNL     1       6.672   5.053  18.423  0.00  0.00    +0.000 C 
ATOM     26  C   UNL     1       6.472   6.470  17.836  0.00  0.00    +0.000 C 
BRANCH  22  27
ATOM     27  C   UNL     1       6.166   5.078  14.275  0.00  0.00    +0.000 A 
ATOM     28  C   UNL     1       5.181   4.109  14.064  0.00  0.00    +0.000 A 
ATOM     29  C   UNL     1       5.253   3.252  12.966  0.00  0.00    +0.000 A 
ATOM     30  C   UNL     1       6.347   3.316  12.105  0.00  0.00    +0.000 A 
ATOM     31  C   UNL     1       7.369   4.234  12.343  0.00  0.00    +0.000 A 
ATOM     32  C   UNL     1       7.280   5.117  13.424  0.00  0.00    +0.000 A 
ENDBRANCH  22  27
ENDBRANCH  20  25
ENDBRANCH  18  20
ENDBRANCH   1  18
TORSDOF 7
ENDMDL
