MODEL 1
REMARK VINA RESULT:      -8.1      0.000      0.000
REMARK  Name = 
REMARK  18 active torsions:
REMARK  status: ('A' for Active; 'I' for Inactive)
REMARK    1  A    between atoms: C_1  and  C_2
REMARK    2  A    between atoms: C_2  and  C_3
REMARK    3  A    between atoms: C_3  and  C_4
REMARK    4  A    between atoms: C_4  and  C_5
REMARK    5  A    between atoms: C_5  and  C_6
REMARK    6  A    between atoms: C_6  and  C_7
REMARK    7  A    between atoms: C_7  and  N_8
REMARK    8  A    between atoms: C_7  and  C_18
REMARK    9  A    between atoms: C_9  and  C_11
REMARK   10  A    between atoms: C_11  and  N_12
REMARK   11  A    between atoms: C_11  and  C_13
REMARK   12  A    between atoms: C_13  and  C_14
REMARK   13  A    between atoms: C_14  and  C_15
REMARK   14  A    between atoms: C_15  and  O_17
REMARK   15  A    between atoms: N_20  and  C_21
REMARK   16  A    between atoms: C_21  and  C_22
REMARK   17  A    between atoms: C_21  and  C_32
REMARK   18  A    between atoms: C_22  and  C_23
REMARK                            x       y       z     vdW  Elec       q    Type
REMARK                         _______ _______ _______ _____ _____    ______ ____
ROOT
ATOM      1  C   UNL     1       6.516   6.546  17.894  0.00  0.00    +0.000 C 
ENDROOT
BRANCH   1   2
ATOM      2  C   UNL     1       5.732   5.506  18.737  0.00  0.00    +0.000 C 
ATOM      3  O   UNL     1       6.196   4.959  19.734  0.00  0.00    +0.000 OA
ATOM      4  N   UNL     1       4.453   5.242  18.277  0.00  0.00    +0.000 N 
ATOM      5  H   UNL     1       4.194   5.529  17.341  0.00  0.00    +0.000 HD
BRANCH   4   6
ATOM      6  C   UNL     1       3.513   4.381  19.015  0.00  0.00    +0.000 C 
BRANCH   6   7
ATOM      7  C   UNL     1       3.333   2.989  18.343  0.00  0.00    +0.000 C 
ATOM      8  N   UNL     1       2.466   2.895  17.298  0.00  0.00    +0.000 N 
ATOM      9  O   UNL     1       3.992   2.000  18.656  0.00  0.00    +0.000 OA
ATOM     10  H   UNL     1       2.035   3.708  16.876  0.00  0.00    +0.000 HD
ATOM     11  H   UNL     1       2.449   2.023  16.786  0.00  0.00    +0.000 HD
ENDBRANCH   6   7
BRANCH   6  12
ATOM     12  C   UNL     1       2.107   4.995  19.139  0.00  0.00    +0.000 C 
BRANCH  12  13
ATOM     13  C   UNL     1       1.957   6.311  19.851  0.00  0.00    +0.000 A 
ATOM     14  C   UNL     1       1.593   6.478  21.176  0.00  0.00    +0.000 A 
ATOM     15  N   UNL     1       1.288   7.799  21.380  0.00  0.00    +0.000 N 
ATOM     16  C   UNL     1       1.422   8.503  20.207  0.00  0.00    +0.000 A 
ATOM     17  C   UNL     1       1.106   9.838  19.918  0.00  0.00    +0.000 A 
ATOM     18  C   UNL     1       1.305  10.283  18.609  0.00  0.00    +0.000 A 
ATOM     19  C   UNL     1       1.833   9.435  17.640  0.00  0.00    +0.000 A 
ATOM     20  C   UNL     1       2.145   8.104  17.946  0.00  0.00    +0.000 A 
ATOM     21  C   UNL     1       1.911   7.613  19.248  0.00  0.00    +0.000 A 
ATOM     22  H   UNL     1       0.923   8.187  22.239  0.00  0.00    +0.000 HD
ENDBRANCH  12  13
ENDBRANCH   6  12
ENDBRANCH   4   6
ENDBRANCH   1   2
BRANCH   1  23
ATOM     23  N   UNL     1       6.354   6.312  16.459  0.00  0.00    +0.000 N 
ATOM     24  C   UNL     1       7.021   5.295  15.814  0.00  0.00    +0.000 C 
ATOM     25  O   UNL     1       7.788   4.532  16.400  0.00  0.00    +0.000 OA
ATOM     26  H   UNL     1       5.775   6.947  15.918  0.00  0.00    +0.000 HD
BRANCH  24  27
ATOM     27  C   UNL     1       6.791   5.235  14.285  0.00  0.00    +0.000 C 
BRANCH  27  28
ATOM     28  N   UNL     1       8.092   5.434  13.612  0.00  0.00    +0.000 NA
ATOM     29  H   UNL     1       8.440   4.517  13.318  0.00  0.00    +0.000 HD
ATOM     30  H   UNL     1       8.775   5.755  14.302  0.00  0.00    +0.000 HD
ENDBRANCH  27  28
BRANCH  27  31
ATOM     31  C   UNL     1       6.226   3.871  13.847  0.00  0.00    +0.000 C 
BRANCH  31  32
ATOM     32  C   UNL     1       6.519   3.527  12.390  0.00  0.00    +0.000 C 
BRANCH  32  33
ATOM     33  C   UNL     1       5.439   2.648  11.799  0.00  0.00    +0.000 C 
ATOM     34  O   UNL     1       4.296   3.023  11.625  0.00  0.00    +0.000 OA
BRANCH  33  35
ATOM     35  O   UNL     1       5.879   1.427  11.436  0.00  0.00    +0.000 OA
ATOM     36  H   UNL     1       5.582   0.704  12.018  0.00  0.00    +0.000 HD
ENDBRANCH  33  35
ENDBRANCH  32  33
ENDBRANCH  31  32
ENDBRANCH  27  31
ENDBRANCH  24  27
ENDBRANCH   1  23
BRANCH   1  37
ATOM     37  C   UNL     1       7.996   6.499  18.301  0.00  0.00    +0.000 C 
BRANCH  37  38
ATOM     38  C   UNL     1       8.506   7.868  18.737  0.00  0.00    +0.000 C 
BRANCH  38  39
ATOM     39  C   UNL     1       7.992   8.981  17.826  0.00  0.00    +0.000 C 
BRANCH  39  40
ATOM     40  C   UNL     1       8.833  10.234  18.045  0.00  0.00    +0.000 C 
BRANCH  40  42
ATOM     41  C   UNL     1      10.555  11.287  19.513  0.00  0.00    +0.000 C 
ATOM     42  C   UNL     1       9.369  10.335  19.468  0.00  0.00    +0.000 C 
ENDBRANCH  40  42
ENDBRANCH  39  40
ENDBRANCH  38  39
ENDBRANCH  37  38
ENDBRANCH   1  37
TORSDOF 17
ENDMDL
MODEL 2
REMARK VINA RESULT:      -8.1      3.548      6.573
REMARK  Name = 
REMARK  18 active torsions:
REMARK  status: ('A' for Active; 'I' for Inactive)
REMARK    1  A    between atoms: C_1  and  C_2
REMARK    2  A    between atoms: C_2  and  C_3
REMARK    3  A    between atoms: C_3  and  C_4
REMARK    4  A    between atoms: C_4  and  C_5
REMARK    5  A    between atoms: C_5  and  C_6
REMARK    6  A    between atoms: C_6  and  C_7
REMARK    7  A    between atoms: C_7  and  N_8
REMARK    8  A    between atoms: C_7  and  C_18
REMARK    9  A    between atoms: C_9  and  C_11
REMARK   10  A    between atoms: C_11  and  N_12
REMARK   11  A    between atoms: C_11  and  C_13
REMARK   12  A    between atoms: C_13  and  C_14
REMARK   13  A    between atoms: C_14  and  C_15
REMARK   14  A    between atoms: C_15  and  O_17
REMARK   15  A    between atoms: N_20  and  C_21
REMARK   16  A    between atoms: C_21  and  C_22
REMARK   17  A    between atoms: C_21  and  C_32
REMARK   18  A    between atoms: C_22  and  C_23
REMARK                            x       y       z     vdW  Elec       q    Type
REMARK                         _______ _______ _______ _____ _____    ______ ____
ROOT
ATOM      1  C   UNL     1       2.924   6.845  19.113  0.00  0.00    +0.000 C 
ENDROOT
BRANCH   1   2
ATOM      2  C   UNL     1       2.308   8.128  18.495  0.00  0.00    +0.000 C 
ATOM      3  O   UNL     1       2.505   8.478  17.334  0.00  0.00    +0.000 OA
ATOM      4  N   UNL     1       1.508   8.854  19.361  0.00  0.00    +0.000 N 
ATOM      5  H   UNL     1       1.555   8.666  20.354  0.00  0.00    +0.000 HD
BRANCH   4   6
ATOM      6  C   UNL     1       0.738  10.030  18.921  0.00  0.00    +0.000 C 
BRANCH   6   7
ATOM      7  C   UNL     1       1.513  11.362  19.140  0.00  0.00    +0.000 C 
ATOM      8  N   UNL     1       2.073  11.958  18.052  0.00  0.00    +0.000 N 
ATOM      9  O   UNL     1       1.573  11.935  20.226  0.00  0.00    +0.000 OA
ATOM     10  H   UNL     1       1.902  11.634  17.109  0.00  0.00    +0.000 HD
ATOM     11  H   UNL     1       2.463  12.883  18.179  0.00  0.00    +0.000 HD
ENDBRANCH   6   7
BRANCH   6  12
ATOM     12  C   UNL     1      -0.606  10.177  19.657  0.00  0.00    +0.000 C 
BRANCH  12  13
ATOM     13  C   UNL     1      -1.687  11.007  19.022  0.00  0.00    +0.000 A 
ATOM     14  C   UNL     1      -2.439  11.982  19.656  0.00  0.00    +0.000 A 
ATOM     15  N   UNL     1      -3.496  12.311  18.848  0.00  0.00    +0.000 N 
ATOM     16  C   UNL     1      -3.469  11.553  17.701  0.00  0.00    +0.000 A 
ATOM     17  C   UNL     1      -4.404  11.466  16.659  0.00  0.00    +0.000 A 
ATOM     18  C   UNL     1      -4.138  10.566  15.624  0.00  0.00    +0.000 A 
ATOM     19  C   UNL     1      -2.968   9.812  15.616  0.00  0.00    +0.000 A 
ATOM     20  C   UNL     1      -2.044   9.914  16.664  0.00  0.00    +0.000 A 
ATOM     21  C   UNL     1      -2.307  10.780  17.746  0.00  0.00    +0.000 A 
ATOM     22  H   UNL     1      -4.244  12.944  19.096  0.00  0.00    +0.000 HD
ENDBRANCH  12  13
ENDBRANCH   6  12
ENDBRANCH   4   6
ENDBRANCH   1   2
BRANCH   1  23
ATOM     23  N   UNL     1       3.736   6.113  18.141  0.00  0.00    +0.000 N 
ATOM     24  C   UNL     1       4.952   5.567  18.483  0.00  0.00    +0.000 C 
ATOM     25  O   UNL     1       5.426   5.666  19.614  0.00  0.00    +0.000 OA
ATOM     26  H   UNL     1       3.417   6.049  17.180  0.00  0.00    +0.000 HD
BRANCH  24  27
ATOM     27  C   UNL     1       5.711   4.890  17.317  0.00  0.00    +0.000 C 
BRANCH  27  28
ATOM     28  N   UNL     1       5.104   3.565  17.075  0.00  0.00    +0.000 NA
ATOM     29  H   UNL     1       4.235   3.705  16.554  0.00  0.00    +0.000 HD
ATOM     30  H   UNL     1       4.803   3.171  17.969  0.00  0.00    +0.000 HD
ENDBRANCH  27  28
BRANCH  27  31
ATOM     31  C   UNL     1       5.608   5.711  16.017  0.00  0.00    +0.000 C 
BRANCH  31  32
ATOM     32  C   UNL     1       5.380   4.860  14.773  0.00  0.00    +0.000 C 
BRANCH  32  33
ATOM     33  C   UNL     1       6.669   4.616  14.022  0.00  0.00    +0.000 C 
ATOM     34  O   UNL     1       7.648   5.330  14.128  0.00  0.00    +0.000 OA
BRANCH  33  35
ATOM     35  O   UNL     1       6.647   3.501  13.264  0.00  0.00    +0.000 OA
ATOM     36  H   UNL     1       6.674   2.670  13.772  0.00  0.00    +0.000 HD
ENDBRANCH  33  35
ENDBRANCH  32  33
ENDBRANCH  31  32
ENDBRANCH  27  31
ENDBRANCH  24  27
ENDBRANCH   1  23
BRANCH   1  37
ATOM     37  C   UNL     1       1.791   5.967  19.664  0.00  0.00    +0.000 C 
BRANCH  37  38
ATOM     38  C   UNL     1       2.263   5.098  20.825  0.00  0.00    +0.000 C 
BRANCH  38  39
ATOM     39  C   UNL     1       1.466   3.799  20.920  0.00  0.00    +0.000 C 
BRANCH  39  40
ATOM     40  C   UNL     1       0.763   3.546  19.590  0.00  0.00    +0.000 C 
BRANCH  40  42
ATOM     41  C   UNL     1       2.464   1.882  18.837  0.00  0.00    +0.000 C 
ATOM     42  C   UNL     1       0.982   2.128  19.076  0.00  0.00    +0.000 C 
ENDBRANCH  40  42
ENDBRANCH  39  40
ENDBRANCH  38  39
ENDBRANCH  37  38
ENDBRANCH   1  37
TORSDOF 17
ENDMDL
MODEL 3
REMARK VINA RESULT:      -7.9      0.972      1.189
REMARK  Name = 
REMARK  18 active torsions:
REMARK  status: ('A' for Active; 'I' for Inactive)
REMARK    1  A    between atoms: C_1  and  C_2
REMARK    2  A    between atoms: C_2  and  C_3
REMARK    3  A    between atoms: C_3  and  C_4
REMARK    4  A    between atoms: C_4  and  C_5
REMARK    5  A    between atoms: C_5  and  C_6
REMARK    6  A    between atoms: C_6  and  C_7
REMARK    7  A    between atoms: C_7  and  N_8
REMARK    8  A    between atoms: C_7  and  C_18
REMARK    9  A    between atoms: C_9  and  C_11
REMARK   10  A    between atoms: C_11  and  N_12
REMARK   11  A    between atoms: C_11  and  C_13
REMARK   12  A    between atoms: C_13  and  C_14
REMARK   13  A    between atoms: C_14  and  C_15
REMARK   14  A    between atoms: C_15  and  O_17
REMARK   15  A    between atoms: N_20  and  C_21
REMARK   16  A    between atoms: C_21  and  C_22
REMARK   17  A    between atoms: C_21  and  C_32
REMARK   18  A    between atoms: C_22  and  C_23
REMARK                            x       y       z     vdW  Elec       q    Type
REMARK                         _______ _______ _______ _____ _____    ______ ____
ROOT
ATOM      1  C   UNL     1       6.843   6.782  17.576  0.00  0.00    +0.000 C 
ENDROOT
BRANCH   1   2
ATOM      2  C   UNL     1       6.250   5.767  18.589  0.00  0.00    +0.000 C 
ATOM      3  O   UNL     1       6.917   5.224  19.467  0.00  0.00    +0.000 OA
ATOM      4  N   UNL     1       4.898   5.520  18.429  0.00  0.00    +0.000 N 
ATOM      5  H   UNL     1       4.441   5.800  17.570  0.00  0.00    +0.000 HD
BRANCH   4   6
ATOM      6  C   UNL     1       4.133   4.685  19.371  0.00  0.00    +0.000 C 
BRANCH   6   7
ATOM      7  C   UNL     1       4.228   3.170  19.031  0.00  0.00    +0.000 C 
ATOM      8  N   UNL     1       3.693   2.748  17.852  0.00  0.00    +0.000 N 
ATOM      9  O   UNL     1       4.830   2.359  19.731  0.00  0.00    +0.000 OA
ATOM     10  H   UNL     1       3.350   3.392  17.151  0.00  0.00    +0.000 HD
ATOM     11  H   UNL     1       3.870   1.790  17.579  0.00  0.00    +0.000 HD
ENDBRANCH   6   7
BRANCH   6  12
ATOM     12  C   UNL     1       2.634   5.035  19.403  0.00  0.00    +0.000 C 
BRANCH  12  13
ATOM     13  C   UNL     1       2.215   6.348  20.005  0.00  0.00    +0.000 A 
ATOM     14  C   UNL     1       1.641   6.521  21.254  0.00  0.00    +0.000 A 
ATOM     15  N   UNL     1       1.144   7.796  21.331  0.00  0.00    +0.000 N 
ATOM     16  C   UNL     1       1.360   8.462  20.148  0.00  0.00    +0.000 A 
ATOM     17  C   UNL     1       0.924   9.730  19.737  0.00  0.00    +0.000 A 
ATOM     18  C   UNL     1       1.256  10.141  18.444  0.00  0.00    +0.000 A 
ATOM     19  C   UNL     1       2.025   9.332  17.612  0.00  0.00    +0.000 A 
ATOM     20  C   UNL     1       2.454   8.068  18.040  0.00  0.00    +0.000 A 
ATOM     21  C   UNL     1       2.094   7.606  19.323  0.00  0.00    +0.000 A 
ATOM     22  H   UNL     1       0.610   8.167  22.105  0.00  0.00    +0.000 HD
ENDBRANCH  12  13
ENDBRANCH   6  12
ENDBRANCH   4   6
ENDBRANCH   1   2
BRANCH   1  23
ATOM     23  N   UNL     1       7.163   6.147  16.299  0.00  0.00    +0.000 N 
ATOM     24  C   UNL     1       6.246   6.081  15.275  0.00  0.00    +0.000 C 
ATOM     25  O   UNL     1       5.111   6.546  15.375  0.00  0.00    +0.000 OA
ATOM     26  H   UNL     1       8.067   5.700  16.183  0.00  0.00    +0.000 HD
BRANCH  24  27
ATOM     27  C   UNL     1       6.725   5.312  14.021  0.00  0.00    +0.000 C 
BRANCH  27  28
ATOM     28  N   UNL     1       8.200   5.377  13.972  0.00  0.00    +0.000 NA
ATOM     29  H   UNL     1       8.566   4.450  14.204  0.00  0.00    +0.000 HD
ATOM     30  H   UNL     1       8.530   5.977  14.731  0.00  0.00    +0.000 HD
ENDBRANCH  27  28
BRANCH  27  31
ATOM     31  C   UNL     1       6.310   3.829  14.070  0.00  0.00    +0.000 C 
BRANCH  31  32
ATOM     32  C   UNL     1       5.007   3.534  13.334  0.00  0.00    +0.000 C 
BRANCH  32  33
ATOM     33  C   UNL     1       5.263   2.979  11.951  0.00  0.00    +0.000 C 
ATOM     34  O   UNL     1       6.306   2.442  11.631  0.00  0.00    +0.000 OA
BRANCH  33  35
ATOM     35  O   UNL     1       4.205   3.089  11.123  0.00  0.00    +0.000 OA
ATOM     36  H   UNL     1       4.438   3.300  10.200  0.00  0.00    +0.000 HD
ENDBRANCH  33  35
ENDBRANCH  32  33
ENDBRANCH  31  32
ENDBRANCH  27  31
ENDBRANCH  24  27
ENDBRANCH   1  23
BRANCH   1  37
ATOM     37  C   UNL     1       8.084   7.436  18.199  0.00  0.00    +0.000 C 
BRANCH  37  38
ATOM     38  C   UNL     1       8.156   8.926  17.885  0.00  0.00    +0.000 C 
BRANCH  38  39
ATOM     39  C   UNL     1       9.052   9.671  18.873  0.00  0.00    +0.000 C 
BRANCH  39  40
ATOM     40  C   UNL     1       9.458  11.011  18.268  0.00  0.00    +0.000 C 
BRANCH  40  42
ATOM     41  C   UNL     1       9.776  11.407  20.711  0.00  0.00    +0.000 C 
ATOM     42  C   UNL     1       9.900  12.017  19.323  0.00  0.00    +0.000 C 
ENDBRANCH  40  42
ENDBRANCH  39  40
ENDBRANCH  38  39
ENDBRANCH  37  38
ENDBRANCH   1  37
TORSDOF 17
ENDMDL
MODEL 4
REMARK VINA RESULT:      -7.8      3.506      6.448
REMARK  Name = 
REMARK  18 active torsions:
REMARK  status: ('A' for Active; 'I' for Inactive)
REMARK    1  A    between atoms: C_1  and  C_2
REMARK    2  A    between atoms: C_2  and  C_3
REMARK    3  A    between atoms: C_3  and  C_4
REMARK    4  A    between atoms: C_4  and  C_5
REMARK    5  A    between atoms: C_5  and  C_6
REMARK    6  A    between atoms: C_6  and  C_7
REMARK    7  A    between atoms: C_7  and  N_8
REMARK    8  A    between atoms: C_7  and  C_18
REMARK    9  A    between atoms: C_9  and  C_11
REMARK   10  A    between atoms: C_11  and  N_12
REMARK   11  A    between atoms: C_11  and  C_13
REMARK   12  A    between atoms: C_13  and  C_14
REMARK   13  A    between atoms: C_14  and  C_15
REMARK   14  A    between atoms: C_15  and  O_17
REMARK   15  A    between atoms: N_20  and  C_21
REMARK   16  A    between atoms: C_21  and  C_22
REMARK   17  A    between atoms: C_21  and  C_32
REMARK   18  A    between atoms: C_22  and  C_23
REMARK                            x       y       z     vdW  Elec       q    Type
REMARK                         _______ _______ _______ _____ _____    ______ ____
ROOT
ATOM      1  C   UNL     1       3.247   6.772  18.847  0.00  0.00    +0.000 C 
ENDROOT
BRANCH   1   2
ATOM      2  C   UNL     1       2.551   8.003  18.210  0.00  0.00    +0.000 C 
ATOM      3  O   UNL     1       2.675   8.309  17.026  0.00  0.00    +0.000 OA
ATOM      4  N   UNL     1       1.770   8.737  19.086  0.00  0.00    +0.000 N 
ATOM      5  H   UNL     1       1.875   8.595  20.082  0.00  0.00    +0.000 HD
BRANCH   4   6
ATOM      6  C   UNL     1       0.933   9.864  18.639  0.00  0.00    +0.000 C 
BRANCH   6   7
ATOM      7  C   UNL     1       1.702  11.216  18.659  0.00  0.00    +0.000 C 
ATOM      8  N   UNL     1       2.454  11.536  17.571  0.00  0.00    +0.000 N 
ATOM      9  O   UNL     1       1.596  12.038  19.567  0.00  0.00    +0.000 OA
ATOM     10  H   UNL     1       2.434  10.990  16.718  0.00  0.00    +0.000 HD
ATOM     11  H   UNL     1       2.846  12.468  17.535  0.00  0.00    +0.000 HD
ENDBRANCH   6   7
BRANCH   6  12
ATOM     12  C   UNL     1      -0.324  10.059  19.505  0.00  0.00    +0.000 C 
BRANCH  12  13
ATOM     13  C   UNL     1      -1.433  10.927  18.979  0.00  0.00    +0.000 A 
ATOM     14  C   UNL     1      -2.116  11.894  19.698  0.00  0.00    +0.000 A 
ATOM     15  N   UNL     1      -3.224  12.267  18.982  0.00  0.00    +0.000 N 
ATOM     16  C   UNL     1      -3.298  11.546  17.814  0.00  0.00    +0.000 A 
ATOM     17  C   UNL     1      -4.309  11.509  16.843  0.00  0.00    +0.000 A 
ATOM     18  C   UNL     1      -4.139  10.638  15.764  0.00  0.00    +0.000 A 
ATOM     19  C   UNL     1      -2.988   9.865  15.644  0.00  0.00    +0.000 A 
ATOM     20  C   UNL     1      -1.986   9.916  16.623  0.00  0.00    +0.000 A 
ATOM     21  C   UNL     1      -2.151  10.752  17.747  0.00  0.00    +0.000 A 
ATOM     22  H   UNL     1      -3.939  12.905  19.305  0.00  0.00    +0.000 HD
ENDBRANCH  12  13
ENDBRANCH   6  12
ENDBRANCH   4   6
ENDBRANCH   1   2
BRANCH   1  23
ATOM     23  N   UNL     1       4.597   6.579  18.318  0.00  0.00    +0.000 N 
ATOM     24  C   UNL     1       5.486   5.710  18.908  0.00  0.00    +0.000 C 
ATOM     25  O   UNL     1       5.202   5.053  19.909  0.00  0.00    +0.000 OA
ATOM     26  H   UNL     1       4.901   7.137  17.526  0.00  0.00    +0.000 HD
BRANCH  24  27
ATOM     27  C   UNL     1       6.893   5.682  18.264  0.00  0.00    +0.000 C 
BRANCH  27  28
ATOM     28  N   UNL     1       7.899   5.658  19.345  0.00  0.00    +0.000 NA
ATOM     29  H   UNL     1       8.821   5.539  18.919  0.00  0.00    +0.000 HD
ATOM     30  H   UNL     1       7.766   4.810  19.902  0.00  0.00    +0.000 HD
ENDBRANCH  27  28
BRANCH  27  31
ATOM     31  C   UNL     1       7.095   4.429  17.391  0.00  0.00    +0.000 C 
BRANCH  31  32
ATOM     32  C   UNL     1       7.124   4.723  15.895  0.00  0.00    +0.000 C 
BRANCH  32  33
ATOM     33  C   UNL     1       5.967   4.067  15.177  0.00  0.00    +0.000 C 
ATOM     34  O   UNL     1       4.816   4.134  15.565  0.00  0.00    +0.000 OA
BRANCH  33  35
ATOM     35  O   UNL     1       6.325   3.445  14.036  0.00  0.00    +0.000 OA
ATOM     36  H   UNL     1       5.657   3.487  13.328  0.00  0.00    +0.000 HD
ENDBRANCH  33  35
ENDBRANCH  32  33
ENDBRANCH  31  32
ENDBRANCH  27  31
ENDBRANCH  24  27
ENDBRANCH   1  23
BRANCH   1  37
ATOM     37  C   UNL     1       2.375   5.531  18.609  0.00  0.00    +0.000 C 
BRANCH  37  38
ATOM     38  C   UNL     1       1.728   5.038  19.899  0.00  0.00    +0.000 C 
BRANCH  38  39
ATOM     39  C   UNL     1       0.938   3.750  19.680  0.00  0.00    +0.000 C 
BRANCH  39  40
ATOM     40  C   UNL     1       1.375   3.113  18.364  0.00  0.00    +0.000 C 
BRANCH  40  42
ATOM     41  C   UNL     1       3.579   1.992  18.027  0.00  0.00    +0.000 C 
ATOM     42  C   UNL     1       2.168   1.829  18.573  0.00  0.00    +0.000 C 
ENDBRANCH  40  42
ENDBRANCH  39  40
ENDBRANCH  38  39
ENDBRANCH  37  38
ENDBRANCH   1  37
TORSDOF 17
ENDMDL
MODEL 5
REMARK VINA RESULT:      -7.8      3.282      9.123
REMARK  Name = 
REMARK  18 active torsions:
REMARK  status: ('A' for Active; 'I' for Inactive)
REMARK    1  A    between atoms: C_1  and  C_2
REMARK    2  A    between atoms: C_2  and  C_3
REMARK    3  A    between atoms: C_3  and  C_4
REMARK    4  A    between atoms: C_4  and  C_5
REMARK    5  A    between atoms: C_5  and  C_6
REMARK    6  A    between atoms: C_6  and  C_7
REMARK    7  A    between atoms: C_7  and  N_8
REMARK    8  A    between atoms: C_7  and  C_18
REMARK    9  A    between atoms: C_9  and  C_11
REMARK   10  A    between atoms: C_11  and  N_12
REMARK   11  A    between atoms: C_11  and  C_13
REMARK   12  A    between atoms: C_13  and  C_14
REMARK   13  A    between atoms: C_14  and  C_15
REMARK   14  A    between atoms: C_15  and  O_17
REMARK   15  A    between atoms: N_20  and  C_21
REMARK   16  A    between atoms: C_21  and  C_22
REMARK   17  A    between atoms: C_21  and  C_32
REMARK   18  A    between atoms: C_22  and  C_23
REMARK                            x       y       z     vdW  Elec       q    Type
REMARK                         _______ _______ _______ _____ _____    ______ ____
ROOT
ATOM      1  C   UNL     1       3.188   6.348  18.801  0.00  0.00    +0.000 C 
ENDROOT
BRANCH   1   2
ATOM      2  C   UNL     1       4.532   5.638  19.107  0.00  0.00    +0.000 C 
ATOM      3  O   UNL     1       4.694   4.888  20.067  0.00  0.00    +0.000 OA
ATOM      4  N   UNL     1       5.545   5.914  18.206  0.00  0.00    +0.000 N 
ATOM      5  H   UNL     1       5.447   6.700  17.575  0.00  0.00    +0.000 HD
BRANCH   4   6
ATOM      6  C   UNL     1       6.852   5.237  18.258  0.00  0.00    +0.000 C 
BRANCH   6   7
ATOM      7  C   UNL     1       7.878   5.997  19.147  0.00  0.00    +0.000 C 
ATOM      8  N   UNL     1       8.283   5.402  20.302  0.00  0.00    +0.000 N 
ATOM      9  O   UNL     1       8.396   7.062  18.817  0.00  0.00    +0.000 OA
ATOM     10  H   UNL     1       8.036   4.449  20.536  0.00  0.00    +0.000 HD
ATOM     11  H   UNL     1       9.042   5.839  20.808  0.00  0.00    +0.000 HD
ENDBRANCH   6   7
BRANCH   6  12
ATOM     12  C   UNL     1       7.503   5.078  16.872  0.00  0.00    +0.000 C 
BRANCH  12  13
ATOM     13  C   UNL     1       6.679   4.507  15.751  0.00  0.00    +0.000 A 
ATOM     14  C   UNL     1       5.719   3.517  15.874  0.00  0.00    +0.000 A 
ATOM     15  N   UNL     1       5.394   3.067  14.620  0.00  0.00    +0.000 N 
ATOM     16  C   UNL     1       6.140   3.727  13.673  0.00  0.00    +0.000 A 
ATOM     17  C   UNL     1       6.228   3.515  12.289  0.00  0.00    +0.000 A 
ATOM     18  C   UNL     1       7.114   4.315  11.566  0.00  0.00    +0.000 A 
ATOM     19  C   UNL     1       7.854   5.312  12.196  0.00  0.00    +0.000 A 
ATOM     20  C   UNL     1       7.753   5.512  13.580  0.00  0.00    +0.000 A 
ATOM     21  C   UNL     1       6.901   4.687  14.344  0.00  0.00    +0.000 A 
ATOM     22  H   UNL     1       4.772   2.296  14.421  0.00  0.00    +0.000 HD
ENDBRANCH  12  13
ENDBRANCH   6  12
ENDBRANCH   4   6
ENDBRANCH   1   2
BRANCH   1  23
ATOM     23  N   UNL     1       2.468   6.697  20.026  0.00  0.00    +0.000 N 
ATOM     24  C   UNL     1       1.774   7.879  20.143  0.00  0.00    +0.000 C 
ATOM     25  O   UNL     1       1.720   8.707  19.234  0.00  0.00    +0.000 OA
ATOM     26  H   UNL     1       2.525   6.074  20.826  0.00  0.00    +0.000 HD
BRANCH  24  27
ATOM     27  C   UNL     1       1.132   8.121  21.531  0.00  0.00    +0.000 C 
BRANCH  27  28
ATOM     28  N   UNL     1       1.974   9.084  22.270  0.00  0.00    +0.000 NA
ATOM     29  H   UNL     1       2.944   8.953  21.970  0.00  0.00    +0.000 HD
ATOM     30  H   UNL     1       1.978   8.828  23.260  0.00  0.00    +0.000 HD
ENDBRANCH  27  28
BRANCH  27  31
ATOM     31  C   UNL     1      -0.283   8.716  21.407  0.00  0.00    +0.000 C 
BRANCH  31  32
ATOM     32  C   UNL     1      -0.319  10.237  21.505  0.00  0.00    +0.000 C 
BRANCH  32  33
ATOM     33  C   UNL     1      -0.792  10.696  22.866  0.00  0.00    +0.000 C 
ATOM     34  O   UNL     1      -1.384  11.742  23.049  0.00  0.00    +0.000 OA
BRANCH  33  35
ATOM     35  O   UNL     1      -0.541   9.809  23.849  0.00  0.00    +0.000 OA
ATOM     36  H   UNL     1       0.322   9.361  23.775  0.00  0.00    +0.000 HD
ENDBRANCH  33  35
ENDBRANCH  32  33
ENDBRANCH  31  32
ENDBRANCH  27  31
ENDBRANCH  24  27
ENDBRANCH   1  23
BRANCH   1  37
ATOM     37  C   UNL     1       2.340   5.439  17.900  0.00  0.00    +0.000 C 
BRANCH  37  38
ATOM     38  C   UNL     1       2.537   3.965  18.237  0.00  0.00    +0.000 C 
BRANCH  38  39
ATOM     39  C   UNL     1       1.212   3.207  18.256  0.00  0.00    +0.000 C 
BRANCH  39  40
ATOM     40  C   UNL     1       0.811   2.939  19.704  0.00  0.00    +0.000 C 
BRANCH  40  42
ATOM     41  C   UNL     1       2.091   3.372  21.802  0.00  0.00    +0.000 C 
ATOM     42  C   UNL     1       1.989   2.496  20.563  0.00  0.00    +0.000 C 
ENDBRANCH  40  42
ENDBRANCH  39  40
ENDBRANCH  38  39
ENDBRANCH  37  38
ENDBRANCH   1  37
TORSDOF 17
ENDMDL
MODEL 6
REMARK VINA RESULT:      -7.7      3.744      6.792
REMARK  Name = 
REMARK  18 active torsions:
REMARK  status: ('A' for Active; 'I' for Inactive)
REMARK    1  A    between atoms: C_1  and  C_2
REMARK    2  A    between atoms: C_2  and  C_3
REMARK    3  A    between atoms: C_3  and  C_4
REMARK    4  A    between atoms: C_4  and  C_5
REMARK    5  A    between atoms: C_5  and  C_6
REMARK    6  A    between atoms: C_6  and  C_7
REMARK    7  A    between atoms: C_7  and  N_8
REMARK    8  A    between atoms: C_7  and  C_18
REMARK    9  A    between atoms: C_9  and  C_11
REMARK   10  A    between atoms: C_11  and  N_12
REMARK   11  A    between atoms: C_11  and  C_13
REMARK   12  A    between atoms: C_13  and  C_14
REMARK   13  A    between atoms: C_14  and  C_15
REMARK   14  A    between atoms: C_15  and  O_17
REMARK   15  A    between atoms: N_20  and  C_21
REMARK   16  A    between atoms: C_21  and  C_22
REMARK   17  A    between atoms: C_21  and  C_32
REMARK   18  A    between atoms: C_22  and  C_23
REMARK                            x       y       z     vdW  Elec       q    Type
REMARK                         _______ _______ _______ _____ _____    ______ ____
ROOT
ATOM      1  C   UNL     1       2.793   6.478  17.849  0.00  0.00    +0.000 C 
ENDROOT
BRANCH   1   2
ATOM      2  C   UNL     1       2.452   7.955  18.177  0.00  0.00    +0.000 C 
ATOM      3  O   UNL     1       2.761   8.895  17.449  0.00  0.00    +0.000 OA
ATOM      4  N   UNL     1       1.763   8.135  19.364  0.00  0.00    +0.000 N 
ATOM      5  H   UNL     1       1.731   7.380  20.038  0.00  0.00    +0.000 HD
BRANCH   4   6
ATOM      6  C   UNL     1       1.243   9.448  19.782  0.00  0.00    +0.000 C 
BRANCH   6   7
ATOM      7  C   UNL     1       0.702   9.434  21.241  0.00  0.00    +0.000 C 
ATOM      8  N   UNL     1      -0.301   8.563  21.538  0.00  0.00    +0.000 N 
ATOM      9  O   UNL     1       1.188  10.108  22.146  0.00  0.00    +0.000 OA
ATOM     10  H   UNL     1      -0.616   7.855  20.886  0.00  0.00    +0.000 HD
ATOM     11  H   UNL     1      -0.559   8.467  22.512  0.00  0.00    +0.000 HD
ENDBRANCH   6   7
BRANCH   6  12
ATOM     12  C   UNL     1       0.093   9.950  18.891  0.00  0.00    +0.000 C 
BRANCH  12  13
ATOM     13  C   UNL     1      -0.436  11.340  19.112  0.00  0.00    +0.000 A 
ATOM     14  C   UNL     1      -1.769  11.712  19.095  0.00  0.00    +0.000 A 
ATOM     15  N   UNL     1      -1.838  13.081  19.051  0.00  0.00    +0.000 N 
ATOM     16  C   UNL     1      -0.573  13.618  19.015  0.00  0.00    +0.000 A 
ATOM     17  C   UNL     1      -0.166  14.950  18.849  0.00  0.00    +0.000 A 
ATOM     18  C   UNL     1       1.206  15.207  18.804  0.00  0.00    +0.000 A 
ATOM     19  C   UNL     1       2.131  14.178  18.957  0.00  0.00    +0.000 A 
ATOM     20  C   UNL     1       1.707  12.853  19.124  0.00  0.00    +0.000 A 
ATOM     21  C   UNL     1       0.328  12.557  19.127  0.00  0.00    +0.000 A 
ATOM     22  H   UNL     1      -2.689  13.618  18.959  0.00  0.00    +0.000 HD
ENDBRANCH  12  13
ENDBRANCH   6  12
ENDBRANCH   4   6
ENDBRANCH   1   2
BRANCH   1  23
ATOM     23  N   UNL     1       2.324   5.569  18.895  0.00  0.00    +0.000 N 
ATOM     24  C   UNL     1       1.538   4.478  18.603  0.00  0.00    +0.000 C 
ATOM     25  O   UNL     1       1.182   4.208  17.457  0.00  0.00    +0.000 OA
ATOM     26  H   UNL     1       2.544   5.777  19.864  0.00  0.00    +0.000 HD
BRANCH  24  27
ATOM     27  C   UNL     1       1.072   3.665  19.835  0.00  0.00    +0.000 C 
BRANCH  27  28
ATOM     28  N   UNL     1       0.261   2.525  19.359  0.00  0.00    +0.000 NA
ATOM     29  H   UNL     1       0.888   1.730  19.210  0.00  0.00    +0.000 HD
ATOM     30  H   UNL     1      -0.100   2.742  18.427  0.00  0.00    +0.000 HD
ENDBRANCH  27  28
BRANCH  27  31
ATOM     31  C   UNL     1       2.265   3.106  20.633  0.00  0.00    +0.000 C 
BRANCH  31  32
ATOM     32  C   UNL     1       3.119   2.118  19.845  0.00  0.00    +0.000 C 
BRANCH  32  33
ATOM     33  C   UNL     1       4.587   2.265  20.176  0.00  0.00    +0.000 C 
ATOM     34  O   UNL     1       5.133   1.653  21.074  0.00  0.00    +0.000 OA
BRANCH  33  35
ATOM     35  O   UNL     1       5.244   3.100  19.347  0.00  0.00    +0.000 OA
ATOM     36  H   UNL     1       5.052   4.044  19.493  0.00  0.00    +0.000 HD
ENDBRANCH  33  35
ENDBRANCH  32  33
ENDBRANCH  31  32
ENDBRANCH  27  31
ENDBRANCH  24  27
ENDBRANCH   1  23
BRANCH   1  37
ATOM     37  C   UNL     1       4.309   6.353  17.643  0.00  0.00    +0.000 C 
BRANCH  37  38
ATOM     38  C   UNL     1       4.656   5.252  16.647  0.00  0.00    +0.000 C 
BRANCH  38  39
ATOM     39  C   UNL     1       6.058   5.431  16.069  0.00  0.00    +0.000 C 
BRANCH  39  40
ATOM     40  C   UNL     1       6.406   4.216  15.215  0.00  0.00    +0.000 C 
BRANCH  40  42
ATOM     41  C   UNL     1       6.327   3.665  12.783  0.00  0.00    +0.000 C 
ATOM     42  C   UNL     1       5.507   4.086  13.992  0.00  0.00    +0.000 C 
ENDBRANCH  40  42
ENDBRANCH  39  40
ENDBRANCH  38  39
ENDBRANCH  37  38
ENDBRANCH   1  37
TORSDOF 17
ENDMDL
MODEL 7
REMARK VINA RESULT:      -7.7      3.117      6.232
REMARK  Name = 
REMARK  18 active torsions:
REMARK  status: ('A' for Active; 'I' for Inactive)
REMARK    1  A    between atoms: C_1  and  C_2
REMARK    2  A    between atoms: C_2  and  C_3
REMARK    3  A    between atoms: C_3  and  C_4
REMARK    4  A    between atoms: C_4  and  C_5
REMARK    5  A    between atoms: C_5  and  C_6
REMARK    6  A    between atoms: C_6  and  C_7
REMARK    7  A    between atoms: C_7  and  N_8
REMARK    8  A    between atoms: C_7  and  C_18
REMARK    9  A    between atoms: C_9  and  C_11
REMARK   10  A    between atoms: C_11  and  N_12
REMARK   11  A    between atoms: C_11  and  C_13
REMARK   12  A    between atoms: C_13  and  C_14
REMARK   13  A    between atoms: C_14  and  C_15
REMARK   14  A    between atoms: C_15  and  O_17
REMARK   15  A    between atoms: N_20  and  C_21
REMARK   16  A    between atoms: C_21  and  C_22
REMARK   17  A    between atoms: C_21  and  C_32
REMARK   18  A    between atoms: C_22  and  C_23
REMARK                            x       y       z     vdW  Elec       q    Type
REMARK                         _______ _______ _______ _____ _____    ______ ____
ROOT
ATOM      1  C   UNL     1       3.284   6.186  18.735  0.00  0.00    +0.000 C 
ENDROOT
BRANCH   1   2
ATOM      2  C   UNL     1       2.653   7.595  18.884  0.00  0.00    +0.000 C 
ATOM      3  O   UNL     1       2.802   8.491  18.056  0.00  0.00    +0.000 OA
ATOM      4  N   UNL     1       1.898   7.767  20.032  0.00  0.00    +0.000 N 
ATOM      5  H   UNL     1       1.987   7.100  20.788  0.00  0.00    +0.000 HD
BRANCH   4   6
ATOM      6  C   UNL     1       1.120   8.992  20.286  0.00  0.00    +0.000 C 
BRANCH   6   7
ATOM      7  C   UNL     1       0.189   8.855  21.526  0.00  0.00    +0.000 C 
ATOM      8  N   UNL     1       0.301   9.787  22.511  0.00  0.00    +0.000 N 
ATOM      9  O   UNL     1      -0.689   8.000  21.617  0.00  0.00    +0.000 OA
ATOM     10  H   UNL     1       0.873  10.616  22.410  0.00  0.00    +0.000 HD
ATOM     11  H   UNL     1      -0.390   9.767  23.249  0.00  0.00    +0.000 HD
ENDBRANCH   6   7
BRANCH   6  12
ATOM     12  C   UNL     1       0.220   9.389  19.102  0.00  0.00    +0.000 C 
BRANCH  12  13
ATOM     13  C   UNL     1      -0.405  10.756  19.100  0.00  0.00    +0.000 A 
ATOM     14  C   UNL     1      -1.719  11.046  18.770  0.00  0.00    +0.000 A 
ATOM     15  N   UNL     1      -1.838  12.402  18.610  0.00  0.00    +0.000 N 
ATOM     16  C   UNL     1      -0.621  13.011  18.807  0.00  0.00    +0.000 A 
ATOM     17  C   UNL     1      -0.248  14.352  18.633  0.00  0.00    +0.000 A 
ATOM     18  C   UNL     1       1.088  14.688  18.864  0.00  0.00    +0.000 A 
ATOM     19  C   UNL     1       2.003  13.728  19.288  0.00  0.00    +0.000 A 
ATOM     20  C   UNL     1       1.612  12.393  19.459  0.00  0.00    +0.000 A 
ATOM     21  C   UNL     1       0.281  12.015  19.188  0.00  0.00    +0.000 A 
ATOM     22  H   UNL     1      -2.671  12.881  18.298  0.00  0.00    +0.000 HD
ENDBRANCH  12  13
ENDBRANCH   6  12
ENDBRANCH   4   6
ENDBRANCH   1   2
BRANCH   1  23
ATOM     23  N   UNL     1       4.726   6.261  18.505  0.00  0.00    +0.000 N 
ATOM     24  C   UNL     1       5.583   5.293  18.980  0.00  0.00    +0.000 C 
ATOM     25  O   UNL     1       5.190   4.320  19.622  0.00  0.00    +0.000 OA
ATOM     26  H   UNL     1       5.108   7.070  18.028  0.00  0.00    +0.000 HD
BRANCH  24  27
ATOM     27  C   UNL     1       7.082   5.565  18.710  0.00  0.00    +0.000 C 
BRANCH  27  28
ATOM     28  N   UNL     1       7.810   5.462  19.992  0.00  0.00    +0.000 NA
ATOM     29  H   UNL     1       7.124   5.306  20.735  0.00  0.00    +0.000 HD
ATOM     30  H   UNL     1       8.222   6.372  20.213  0.00  0.00    +0.000 HD
ENDBRANCH  27  28
BRANCH  27  31
ATOM     31  C   UNL     1       7.681   4.536  17.733  0.00  0.00    +0.000 C 
BRANCH  31  32
ATOM     32  C   UNL     1       6.792   4.248  16.527  0.00  0.00    +0.000 C 
BRANCH  32  33
ATOM     33  C   UNL     1       6.832   5.379  15.525  0.00  0.00    +0.000 C 
ATOM     34  O   UNL     1       7.755   5.553  14.752  0.00  0.00    +0.000 OA
BRANCH  33  35
ATOM     35  O   UNL     1       5.724   6.145  15.534  0.00  0.00    +0.000 OA
ATOM     36  H   UNL     1       5.260   6.170  16.392  0.00  0.00    +0.000 HD
ENDBRANCH  33  35
ENDBRANCH  32  33
ENDBRANCH  31  32
ENDBRANCH  27  31
ENDBRANCH  24  27
ENDBRANCH   1  23
BRANCH   1  37
ATOM     37  C   UNL     1       2.577   5.445  17.591  0.00  0.00    +0.000 C 
BRANCH  37  38
ATOM     38  C   UNL     1       1.589   4.408  18.113  0.00  0.00    +0.000 C 
BRANCH  38  39
ATOM     39  C   UNL     1       2.161   2.994  18.044  0.00  0.00    +0.000 C 
BRANCH  39  40
ATOM     40  C   UNL     1       2.249   2.421  19.455  0.00  0.00    +0.000 C 
BRANCH  40  42
ATOM     41  C   UNL     1       1.628   2.661  21.860  0.00  0.00    +0.000 C 
ATOM     42  C   UNL     1       1.415   3.209  20.457  0.00  0.00    +0.000 C 
ENDBRANCH  40  42
ENDBRANCH  39  40
ENDBRANCH  38  39
ENDBRANCH  37  38
ENDBRANCH   1  37
TORSDOF 17
ENDMDL
MODEL 8
REMARK VINA RESULT:      -7.7      3.131      6.516
REMARK  Name = 
REMARK  18 active torsions:
REMARK  status: ('A' for Active; 'I' for Inactive)
REMARK    1  A    between atoms: C_1  and  C_2
REMARK    2  A    between atoms: C_2  and  C_3
REMARK    3  A    between atoms: C_3  and  C_4
REMARK    4  A    between atoms: C_4  and  C_5
REMARK    5  A    between atoms: C_5  and  C_6
REMARK    6  A    between atoms: C_6  and  C_7
REMARK    7  A    between atoms: C_7  and  N_8
REMARK    8  A    between atoms: C_7  and  C_18
REMARK    9  A    between atoms: C_9  and  C_11
REMARK   10  A    between atoms: C_11  and  N_12
REMARK   11  A    between atoms: C_11  and  C_13
REMARK   12  A    between atoms: C_13  and  C_14
REMARK   13  A    between atoms: C_14  and  C_15
REMARK   14  A    between atoms: C_15  and  O_17
REMARK   15  A    between atoms: N_20  and  C_21
REMARK   16  A    between atoms: C_21  and  C_22
REMARK   17  A    between atoms: C_21  and  C_32
REMARK   18  A    between atoms: C_22  and  C_23
REMARK                            x       y       z     vdW  Elec       q    Type
REMARK                         _______ _______ _______ _____ _____    ______ ____
ROOT
ATOM      1  C   UNL     1       3.058   5.315  18.467  0.00  0.00    +0.000 C 
ENDROOT
BRANCH   1   2
ATOM      2  C   UNL     1       2.863   6.839  18.678  0.00  0.00    +0.000 C 
ATOM      3  O   UNL     1       3.342   7.689  17.931  0.00  0.00    +0.000 OA
ATOM      4  N   UNL     1       2.098   7.173  19.782  0.00  0.00    +0.000 N 
ATOM      5  H   UNL     1       1.919   6.472  20.491  0.00  0.00    +0.000 HD
BRANCH   4   6
ATOM      6  C   UNL     1       1.699   8.560  20.074  0.00  0.00    +0.000 C 
BRANCH   6   7
ATOM      7  C   UNL     1       0.937   8.686  21.425  0.00  0.00    +0.000 C 
ATOM      8  N   UNL     1       1.665   8.965  22.541  0.00  0.00    +0.000 N 
ATOM      9  O   UNL     1      -0.287   8.625  21.517  0.00  0.00    +0.000 OA
ATOM     10  H   UNL     1       2.647   9.208  22.502  0.00  0.00    +0.000 HD
ATOM     11  H   UNL     1       1.153   9.171  23.389  0.00  0.00    +0.000 HD
ENDBRANCH   6   7
BRANCH   6  12
ATOM     12  C   UNL     1       0.782   9.161  18.994  0.00  0.00    +0.000 C 
BRANCH  12  13
ATOM     13  C   UNL     1       1.007  10.587  18.571  0.00  0.00    +0.000 A 
ATOM     14  C   UNL     1       2.150  11.082  17.967  0.00  0.00    +0.000 A 
ATOM     15  N   UNL     1       2.097  12.452  17.993  0.00  0.00    +0.000 N 
ATOM     16  C   UNL     1       0.950  12.870  18.624  0.00  0.00    +0.000 A 
ATOM     17  C   UNL     1       0.539  14.163  18.980  0.00  0.00    +0.000 A 
ATOM     18  C   UNL     1      -0.671  14.293  19.665  0.00  0.00    +0.000 A 
ATOM     19  C   UNL     1      -1.455  13.178  19.948  0.00  0.00    +0.000 A 
ATOM     20  C   UNL     1      -1.030  11.893  19.584  0.00  0.00    +0.000 A 
ATOM     21  C   UNL     1       0.210  11.726  18.932  0.00  0.00    +0.000 A 
ATOM     22  H   UNL     1       2.836  13.069  17.684  0.00  0.00    +0.000 HD
ENDBRANCH  12  13
ENDBRANCH   6  12
ENDBRANCH   4   6
ENDBRANCH   1   2
BRANCH   1  23
ATOM     23  N   UNL     1       4.256   5.026  17.680  0.00  0.00    +0.000 N 
ATOM     24  C   UNL     1       5.328   4.352  18.219  0.00  0.00    +0.000 C 
ATOM     25  O   UNL     1       5.342   3.958  19.384  0.00  0.00    +0.000 OA
ATOM     26  H   UNL     1       4.318   5.376  16.729  0.00  0.00    +0.000 HD
BRANCH  24  27
ATOM     27  C   UNL     1       6.541   4.195  17.270  0.00  0.00    +0.000 C 
BRANCH  27  28
ATOM     28  N   UNL     1       6.051   3.697  15.969  0.00  0.00    +0.000 NA
ATOM     29  H   UNL     1       5.877   2.692  16.058  0.00  0.00    +0.000 HD
ATOM     30  H   UNL     1       6.807   3.763  15.283  0.00  0.00    +0.000 HD
ENDBRANCH  27  28
BRANCH  27  31
ATOM     31  C   UNL     1       7.255   5.539  17.033  0.00  0.00    +0.000 C 
BRANCH  31  32
ATOM     32  C   UNL     1       7.640   6.263  18.319  0.00  0.00    +0.000 C 
BRANCH  32  33
ATOM     33  C   UNL     1       7.944   7.723  18.065  0.00  0.00    +0.000 C 
ATOM     34  O   UNL     1       7.451   8.358  17.153  0.00  0.00    +0.000 OA
BRANCH  33  35
ATOM     35  O   UNL     1       8.773   8.265  18.978  0.00  0.00    +0.000 OA
ATOM     36  H   UNL     1       9.061   7.648  19.677  0.00  0.00    +0.000 HD
ENDBRANCH  33  35
ENDBRANCH  32  33
ENDBRANCH  31  32
ENDBRANCH  27  31
ENDBRANCH  24  27
ENDBRANCH   1  23
BRANCH   1  37
ATOM     37  C   UNL     1       1.801   4.743  17.796  0.00  0.00    +0.000 C 
BRANCH  37  38
ATOM     38  C   UNL     1       1.849   3.222  17.709  0.00  0.00    +0.000 C 
BRANCH  38  39
ATOM     39  C   UNL     1       0.921   2.566  18.729  0.00  0.00    +0.000 C 
BRANCH  39  40
ATOM     40  C   UNL     1       1.740   2.118  19.935  0.00  0.00    +0.000 C 
BRANCH  40  42
ATOM     41  C   UNL     1       2.291   3.857  21.639  0.00  0.00    +0.000 C 
ATOM     42  C   UNL     1       1.290   2.788  21.228  0.00  0.00    +0.000 C 
ENDBRANCH  40  42
ENDBRANCH  39  40
ENDBRANCH  38  39
ENDBRANCH  37  38
ENDBRANCH   1  37
TORSDOF 17
ENDMDL
MODEL 9
REMARK VINA RESULT:      -7.7      3.130      6.556
REMARK  Name = 
REMARK  18 active torsions:
REMARK  status: ('A' for Active; 'I' for Inactive)
REMARK    1  A    between atoms: C_1  and  C_2
REMARK    2  A    between atoms: C_2  and  C_3
REMARK    3  A    between atoms: C_3  and  C_4
REMARK    4  A    between atoms: C_4  and  C_5
REMARK    5  A    between atoms: C_5  and  C_6
REMARK    6  A    between atoms: C_6  and  C_7
REMARK    7  A    between atoms: C_7  and  N_8
REMARK    8  A    between atoms: C_7  and  C_18
REMARK    9  A    between atoms: C_9  and  C_11
REMARK   10  A    between atoms: C_11  and  N_12
REMARK   11  A    between atoms: C_11  and  C_13
REMARK   12  A    between atoms: C_13  and  C_14
REMARK   13  A    between atoms: C_14  and  C_15
REMARK   14  A    between atoms: C_15  and  O_17
REMARK   15  A    between atoms: N_20  and  C_21
REMARK   16  A    between atoms: C_21  and  C_22
REMARK   17  A    between atoms: C_21  and  C_32
REMARK   18  A    between atoms: C_22  and  C_23
REMARK                            x       y       z     vdW  Elec       q    Type
REMARK                         _______ _______ _______ _____ _____    ______ ____
ROOT
ATOM      1  C   UNL     1       2.943   5.697  18.443  0.00  0.00    +0.000 C 
ENDROOT
BRANCH   1   2
ATOM      2  C   UNL     1       2.756   7.233  18.547  0.00  0.00    +0.000 C 
ATOM      3  O   UNL     1       3.307   8.031  17.793  0.00  0.00    +0.000 OA
ATOM      4  N   UNL     1       1.910   7.640  19.564  0.00  0.00    +0.000 N 
ATOM      5  H   UNL     1       1.663   6.986  20.296  0.00  0.00    +0.000 HD
BRANCH   4   6
ATOM      6  C   UNL     1       1.510   9.047  19.740  0.00  0.00    +0.000 C 
BRANCH   6   7
ATOM      7  C   UNL     1       0.805   9.296  21.104  0.00  0.00    +0.000 C 
ATOM      8  N   UNL     1      -0.230   8.480  21.443  0.00  0.00    +0.000 N 
ATOM      9  O   UNL     1       1.188  10.134  21.918  0.00  0.00    +0.000 OA
ATOM     10  H   UNL     1      -0.473   7.659  20.902  0.00  0.00    +0.000 HD
ATOM     11  H   UNL     1      -0.600   8.563  22.381  0.00  0.00    +0.000 HD
ENDBRANCH   6   7
BRANCH   6  12
ATOM     12  C   UNL     1       0.543   9.538  18.648  0.00  0.00    +0.000 C 
BRANCH  12  13
ATOM     13  C   UNL     1      -0.117  10.878  18.821  0.00  0.00    +0.000 A 
ATOM     14  C   UNL     1      -1.465  11.145  18.652  0.00  0.00    +0.000 A 
ATOM     15  N   UNL     1      -1.638  12.505  18.615  0.00  0.00    +0.000 N 
ATOM     16  C   UNL     1      -0.425  13.140  18.734  0.00  0.00    +0.000 A 
ATOM     17  C   UNL     1      -0.109  14.502  18.631  0.00  0.00    +0.000 A 
ATOM     18  C   UNL     1       1.233  14.868  18.750  0.00  0.00    +0.000 A 
ATOM     19  C   UNL     1       2.214  13.912  18.999  0.00  0.00    +0.000 A 
ATOM     20  C   UNL     1       1.881  12.554  19.101  0.00  0.00    +0.000 A 
ATOM     21  C   UNL     1       0.539  12.150  18.939  0.00  0.00    +0.000 A 
ATOM     22  H   UNL     1      -2.513  12.976  18.430  0.00  0.00    +0.000 HD
ENDBRANCH  12  13
ENDBRANCH   6  12
ENDBRANCH   4   6
ENDBRANCH   1   2
BRANCH   1  23
ATOM     23  N   UNL     1       4.107   5.347  17.628  0.00  0.00    +0.000 N 
ATOM     24  C   UNL     1       5.135   4.582  18.130  0.00  0.00    +0.000 C 
ATOM     25  O   UNL     1       5.138   4.154  19.284  0.00  0.00    +0.000 OA
ATOM     26  H   UNL     1       4.180   5.720  16.687  0.00  0.00    +0.000 HD
BRANCH  24  27
ATOM     27  C   UNL     1       6.320   4.368  17.158  0.00  0.00    +0.000 C 
BRANCH  27  28
ATOM     28  N   UNL     1       6.083   5.185  15.950  0.00  0.00    +0.000 NA
ATOM     29  H   UNL     1       6.982   5.332  15.485  0.00  0.00    +0.000 HD
ATOM     30  H   UNL     1       5.790   6.123  16.237  0.00  0.00    +0.000 HD
ENDBRANCH  27  28
BRANCH  27  31
ATOM     31  C   UNL     1       7.656   4.811  17.784  0.00  0.00    +0.000 C 
BRANCH  31  32
ATOM     32  C   UNL     1       7.520   5.977  18.757  0.00  0.00    +0.000 C 
BRANCH  32  33
ATOM     33  C   UNL     1       7.945   7.283  18.123  0.00  0.00    +0.000 C 
ATOM     34  O   UNL     1       7.578   7.640  17.020  0.00  0.00    +0.000 OA
BRANCH  33  35
ATOM     35  O   UNL     1       8.729   8.036  18.920  0.00  0.00    +0.000 OA
ATOM     36  H   UNL     1       9.439   7.542  19.369  0.00  0.00    +0.000 HD
ENDBRANCH  33  35
ENDBRANCH  32  33
ENDBRANCH  31  32
ENDBRANCH  27  31
ENDBRANCH  24  27
ENDBRANCH   1  23
BRANCH   1  37
ATOM     37  C   UNL     1       1.659   5.078  17.872  0.00  0.00    +0.000 C 
BRANCH  37  38
ATOM     38  C   UNL     1       1.858   3.616  17.489  0.00  0.00    +0.000 C 
BRANCH  38  39
ATOM     39  C   UNL     1       2.010   2.724  18.719  0.00  0.00    +0.000 C 
BRANCH  39  40
ATOM     40  C   UNL     1       0.818   2.942  19.645  0.00  0.00    +0.000 C 
BRANCH  40  42
ATOM     41  C   UNL     1       2.391   2.708  21.568  0.00  0.00    +0.000 C 
ATOM     42  C   UNL     1       1.228   3.506  21.000  0.00  0.00    +0.000 C 
ENDBRANCH  40  42
ENDBRANCH  39  40
ENDBRANCH  38  39
ENDBRANCH  37  38
ENDBRANCH   1  37
TORSDOF 17
ENDMDL
