MODEL 1
REMARK VINA RESULT:      -6.9      0.000      0.000
REMARK  Name = 
REMARK  8 active torsions:
REMARK  status: ('A' for Active; 'I' for Inactive)
REMARK    1  A    between atoms: C_1  and  C_2
REMARK    2  A    between atoms: C_2  and  C_3
REMARK    3  A    between atoms: N_5  and  C_6
REMARK    4  A    between atoms: N_5  and  C_24
REMARK    5  A    between atoms: C_6  and  C_7
REMARK    6  A    between atoms: C_7  and  N_8
REMARK    7  A    between atoms: N_11  and  C_12
REMARK    8  A    between atoms: C_12  and  C_13
REMARK                            x       y       z     vdW  Elec       q    Type
REMARK                         _______ _______ _______ _____ _____    ______ ____
ROOT
ATOM      1  C   UNL     1       4.515   3.954  18.135  0.00  0.00    +0.000 C 
ATOM      2  C   UNL     1       3.714   3.648  16.824  0.00  0.00    +0.000 C 
ATOM      3  O   UNL     1       2.908   2.659  17.530  0.00  0.00    +0.000 OA
ATOM      4  C   UNL     1       3.967   2.551  18.529  0.00  0.00    +0.000 C 
ENDROOT
BRANCH   1   5
ATOM      5  N   UNL     1       3.855   5.110  18.788  0.00  0.00    +0.000 NA
ATOM      6  C   UNL     1       3.293   6.151  17.920  0.00  0.00    +0.000 C 
ATOM      7  C   UNL     1       1.822   6.559  18.197  0.00  0.00    +0.000 C 
ATOM      8  N   UNL     1       1.438   6.619  19.620  0.00  0.00    +0.000 NA
ATOM      9  C   UNL     1       1.795   5.318  20.218  0.00  0.00    +0.000 C 
ATOM     10  C   UNL     1       3.294   4.996  20.132  0.00  0.00    +0.000 C 
BRANCH   8  11
ATOM     11  C   UNL     1       2.100   7.762  20.287  0.00  0.00    +0.000 C 
BRANCH  11  12
ATOM     12  C   UNL     1       1.161   8.803  20.879  0.00  0.00    +0.000 A 
ATOM     13  C   UNL     1       0.504   9.719  20.048  0.00  0.00    +0.000 A 
ATOM     14  C   UNL     1      -0.365  10.668  20.586  0.00  0.00    +0.000 A 
ATOM     15  C   UNL     1      -0.576  10.710  21.968  0.00  0.00    +0.000 A 
ATOM     16  C   UNL     1       0.087   9.813  22.801  0.00  0.00    +0.000 A 
ATOM     17  C   UNL     1       0.962   8.864  22.259  0.00  0.00    +0.000 A 
ENDBRANCH  11  12
ENDBRANCH   8  11
ENDBRANCH   1   5
BRANCH   1  18
ATOM     18  C   UNL     1       6.025   4.083  17.917  0.00  0.00    +0.000 C 
BRANCH  18  21
ATOM     19  C   UNL     1       6.880   4.856  15.535  0.00  0.00    +0.000 C 
ATOM     20  O   UNL     1       7.605   5.635  14.906  0.00  0.00    +0.000 OA
ATOM     21  N   UNL     1       6.534   5.052  16.887  0.00  0.00    +0.000 N 
BRANCH  21  22
ATOM     22  C   UNL     1       7.121   6.228  17.490  0.00  0.00    +0.000 A 
ATOM     23  C   UNL     1       7.916   6.096  18.631  0.00  0.00    +0.000 A 
ATOM     24  C   UNL     1       8.551   7.209  19.184  0.00  0.00    +0.000 A 
ATOM     25  C   UNL     1       8.375   8.471  18.613  0.00  0.00    +0.000 A 
ATOM     26  C   UNL     1       7.560   8.621  17.497  0.00  0.00    +0.000 A 
ATOM     27  C   UNL     1       6.937   7.506  16.933  0.00  0.00    +0.000 A 
ENDBRANCH  21  22
BRANCH  19  29
ATOM     28  C   UNL     1       5.915   3.887  13.382  0.00  0.00    +0.000 C 
ATOM     29  C   UNL     1       6.363   3.640  14.815  0.00  0.00    +0.000 C 
ENDBRANCH  19  29
ENDBRANCH  18  21
ENDBRANCH   1  18
TORSDOF 7
ENDMDL
MODEL 2
REMARK VINA RESULT:      -6.8      2.269      8.127
REMARK  Name = 
REMARK  8 active torsions:
REMARK  status: ('A' for Active; 'I' for Inactive)
REMARK    1  A    between atoms: C_1  and  C_2
REMARK    2  A    between atoms: C_2  and  C_3
REMARK    3  A    between atoms: N_5  and  C_6
REMARK    4  A    between atoms: N_5  and  C_24
REMARK    5  A    between atoms: C_6  and  C_7
REMARK    6  A    between atoms: C_7  and  N_8
REMARK    7  A    between atoms: N_11  and  C_12
REMARK    8  A    between atoms: C_12  and  C_13
REMARK                            x       y       z     vdW  Elec       q    Type
REMARK                         _______ _______ _______ _____ _____    ______ ____
ROOT
ATOM      1  C   UNL     1       4.134   4.904  18.103  0.00  0.00    +0.000 C 
ATOM      2  C   UNL     1       5.142   5.517  19.133  0.00  0.00    +0.000 C 
ATOM      3  O   UNL     1       5.666   4.189  19.433  0.00  0.00    +0.000 OA
ATOM      4  C   UNL     1       4.420   3.617  18.930  0.00  0.00    +0.000 C 
ENDROOT
BRANCH   1   5
ATOM      5  N   UNL     1       4.780   4.970  16.770  0.00  0.00    +0.000 NA
ATOM      6  C   UNL     1       5.597   6.151  16.468  0.00  0.00    +0.000 C 
ATOM      7  C   UNL     1       7.026   5.880  15.930  0.00  0.00    +0.000 C 
ATOM      8  N   UNL     1       7.147   4.747  14.993  0.00  0.00    +0.000 NA
ATOM      9  C   UNL     1       6.552   3.572  15.658  0.00  0.00    +0.000 C 
ATOM     10  C   UNL     1       5.069   3.755  16.013  0.00  0.00    +0.000 C 
BRANCH   8  11
ATOM     11  C   UNL     1       6.496   5.070  13.704  0.00  0.00    +0.000 C 
BRANCH  11  12
ATOM     12  C   UNL     1       6.363   3.906  12.732  0.00  0.00    +0.000 A 
ATOM     13  C   UNL     1       5.099   3.400  12.401  0.00  0.00    +0.000 A 
ATOM     14  C   UNL     1       4.972   2.341  11.504  0.00  0.00    +0.000 A 
ATOM     15  C   UNL     1       6.117   1.773  10.934  0.00  0.00    +0.000 A 
ATOM     16  C   UNL     1       7.377   2.261  11.272  0.00  0.00    +0.000 A 
ATOM     17  C   UNL     1       7.502   3.322  12.177  0.00  0.00    +0.000 A 
ENDBRANCH  11  12
ENDBRANCH   8  11
ENDBRANCH   1   5
BRANCH   1  18
ATOM     18  C   UNL     1       2.726   5.499  18.193  0.00  0.00    +0.000 C 
BRANCH  18  21
ATOM     19  C   UNL     1       1.820   5.786  20.662  0.00  0.00    +0.000 C 
ATOM     20  O   UNL     1       1.212   6.512  21.456  0.00  0.00    +0.000 OA
ATOM     21  N   UNL     1       2.329   6.250  19.433  0.00  0.00    +0.000 N 
BRANCH  21  22
ATOM     22  C   UNL     1       2.056   7.644  19.160  0.00  0.00    +0.000 A 
ATOM     23  C   UNL     1       2.430   8.194  17.932  0.00  0.00    +0.000 A 
ATOM     24  C   UNL     1       2.109   9.517  17.622  0.00  0.00    +0.000 A 
ATOM     25  C   UNL     1       1.431  10.308  18.550  0.00  0.00    +0.000 A 
ATOM     26  C   UNL     1       1.081   9.783  19.789  0.00  0.00    +0.000 A 
ATOM     27  C   UNL     1       1.387   8.455  20.095  0.00  0.00    +0.000 A 
ENDBRANCH  21  22
BRANCH  19  29
ATOM     28  C   UNL     1       0.942   3.396  20.490  0.00  0.00    +0.000 C 
ATOM     29  C   UNL     1       2.006   4.339  21.033  0.00  0.00    +0.000 C 
ENDBRANCH  19  29
ENDBRANCH  18  21
ENDBRANCH   1  18
TORSDOF 7
ENDMDL
MODEL 3
REMARK VINA RESULT:      -6.8      1.157      1.425
REMARK  Name = 
REMARK  8 active torsions:
REMARK  status: ('A' for Active; 'I' for Inactive)
REMARK    1  A    between atoms: C_1  and  C_2
REMARK    2  A    between atoms: C_2  and  C_3
REMARK    3  A    between atoms: N_5  and  C_6
REMARK    4  A    between atoms: N_5  and  C_24
REMARK    5  A    between atoms: C_6  and  C_7
REMARK    6  A    between atoms: C_7  and  N_8
REMARK    7  A    between atoms: N_11  and  C_12
REMARK    8  A    between atoms: C_12  and  C_13
REMARK                            x       y       z     vdW  Elec       q    Type
REMARK                         _______ _______ _______ _____ _____    ______ ____
ROOT
ATOM      1  C   UNL     1       4.316   3.188  17.958  0.00  0.00    +0.000 C 
ATOM      2  C   UNL     1       3.096   2.265  17.624  0.00  0.00    +0.000 C 
ATOM      3  O   UNL     1       3.036   1.816  19.010  0.00  0.00    +0.000 OA
ATOM      4  C   UNL     1       4.431   2.215  19.169  0.00  0.00    +0.000 C 
ENDROOT
BRANCH   1   5
ATOM      5  N   UNL     1       3.774   4.533  18.262  0.00  0.00    +0.000 NA
ATOM      6  C   UNL     1       2.525   4.929  17.600  0.00  0.00    +0.000 C 
ATOM      7  C   UNL     1       1.401   5.473  18.518  0.00  0.00    +0.000 C 
ATOM      8  N   UNL     1       1.850   6.334  19.629  0.00  0.00    +0.000 NA
ATOM      9  C   UNL     1       2.880   5.580  20.369  0.00  0.00    +0.000 C 
ATOM     10  C   UNL     1       4.101   5.212  19.514  0.00  0.00    +0.000 C 
BRANCH   8  11
ATOM     11  C   UNL     1       2.343   7.630  19.112  0.00  0.00    +0.000 C 
BRANCH  11  12
ATOM     12  C   UNL     1       1.410   8.813  19.325  0.00  0.00    +0.000 A 
ATOM     13  C   UNL     1       1.030   9.620  18.244  0.00  0.00    +0.000 A 
ATOM     14  C   UNL     1       0.167  10.698  18.433  0.00  0.00    +0.000 A 
ATOM     15  C   UNL     1      -0.318  10.983  19.714  0.00  0.00    +0.000 A 
ATOM     16  C   UNL     1       0.070  10.196  20.795  0.00  0.00    +0.000 A 
ATOM     17  C   UNL     1       0.940   9.115  20.604  0.00  0.00    +0.000 A 
ENDBRANCH  11  12
ENDBRANCH   8  11
ENDBRANCH   1   5
BRANCH   1  18
ATOM     18  C   UNL     1       5.430   3.138  16.909  0.00  0.00    +0.000 C 
BRANCH  18  21
ATOM     19  C   UNL     1       5.960   4.698  14.839  0.00  0.00    +0.000 C 
ATOM     20  O   UNL     1       6.625   5.648  14.411  0.00  0.00    +0.000 OA
ATOM     21  N   UNL     1       5.833   4.407  16.212  0.00  0.00    +0.000 N 
BRANCH  21  22
ATOM     22  C   UNL     1       6.572   5.294  17.082  0.00  0.00    +0.000 A 
ATOM     23  C   UNL     1       7.409   4.760  18.064  0.00  0.00    +0.000 A 
ATOM     24  C   UNL     1       8.187   5.599  18.865  0.00  0.00    +0.000 A 
ATOM     25  C   UNL     1       8.114   6.983  18.705  0.00  0.00    +0.000 A 
ATOM     26  C   UNL     1       7.260   7.530  17.753  0.00  0.00    +0.000 A 
ATOM     27  C   UNL     1       6.494   6.692  16.940  0.00  0.00    +0.000 A 
ENDBRANCH  21  22
BRANCH  19  29
ATOM     28  C   UNL     1       6.082   3.506  12.586  0.00  0.00    +0.000 C 
ATOM     29  C   UNL     1       5.269   3.815  13.835  0.00  0.00    +0.000 C 
ENDBRANCH  19  29
ENDBRANCH  18  21
ENDBRANCH   1  18
TORSDOF 7
ENDMDL
MODEL 4
REMARK VINA RESULT:      -6.7      0.154      1.273
REMARK  Name = 
REMARK  8 active torsions:
REMARK  status: ('A' for Active; 'I' for Inactive)
REMARK    1  A    between atoms: C_1  and  C_2
REMARK    2  A    between atoms: C_2  and  C_3
REMARK    3  A    between atoms: N_5  and  C_6
REMARK    4  A    between atoms: N_5  and  C_24
REMARK    5  A    between atoms: C_6  and  C_7
REMARK    6  A    between atoms: C_7  and  N_8
REMARK    7  A    between atoms: N_11  and  C_12
REMARK    8  A    between atoms: C_12  and  C_13
REMARK                            x       y       z     vdW  Elec       q    Type
REMARK                         _______ _______ _______ _____ _____    ______ ____
ROOT
ATOM      1  C   UNL     1       4.442   3.965  18.201  0.00  0.00    +0.000 C 
ATOM      2  C   UNL     1       3.645   3.706  16.877  0.00  0.00    +0.000 C 
ATOM      3  O   UNL     1       2.804   2.728  17.557  0.00  0.00    +0.000 OA
ATOM      4  C   UNL     1       3.850   2.571  18.563  0.00  0.00    +0.000 C 
ENDROOT
BRANCH   1   5
ATOM      5  N   UNL     1       3.808   5.127  18.870  0.00  0.00    +0.000 NA
ATOM      6  C   UNL     1       3.308   6.213  18.018  0.00  0.00    +0.000 C 
ATOM      7  C   UNL     1       1.848   6.668  18.269  0.00  0.00    +0.000 C 
ATOM      8  N   UNL     1       1.428   6.704  19.683  0.00  0.00    +0.000 NA
ATOM      9  C   UNL     1       1.721   5.374  20.252  0.00  0.00    +0.000 C 
ATOM     10  C   UNL     1       3.208   4.997  20.195  0.00  0.00    +0.000 C 
BRANCH   8  11
ATOM     11  C   UNL     1       2.115   7.802  20.399  0.00  0.00    +0.000 C 
BRANCH  11  12
ATOM     12  C   UNL     1       1.201   8.869  20.984  0.00  0.00    +0.000 A 
ATOM     13  C   UNL     1       0.853   8.837  22.341  0.00  0.00    +0.000 A 
ATOM     14  C   UNL     1       0.024   9.819  22.883  0.00  0.00    +0.000 A 
ATOM     15  C   UNL     1      -0.471  10.839  22.064  0.00  0.00    +0.000 A 
ATOM     16  C   UNL     1      -0.142  10.866  20.711  0.00  0.00    +0.000 A 
ATOM     17  C   UNL     1       0.687   9.877  20.167  0.00  0.00    +0.000 A 
ENDBRANCH  11  12
ENDBRANCH   8  11
ENDBRANCH   1   5
BRANCH   1  18
ATOM     18  C   UNL     1       5.956   4.055  17.999  0.00  0.00    +0.000 C 
BRANCH  18  21
ATOM     19  C   UNL     1       6.794   4.761  15.591  0.00  0.00    +0.000 C 
ATOM     20  O   UNL     1       7.551   5.488  14.937  0.00  0.00    +0.000 OA
ATOM     21  N   UNL     1       6.499   4.985  16.950  0.00  0.00    +0.000 N 
BRANCH  21  22
ATOM     22  C   UNL     1       7.179   6.121  17.531  0.00  0.00    +0.000 A 
ATOM     23  C   UNL     1       7.102   7.367  16.904  0.00  0.00    +0.000 A 
ATOM     24  C   UNL     1       7.690   8.491  17.488  0.00  0.00    +0.000 A 
ATOM     25  C   UNL     1       8.382   8.371  18.694  0.00  0.00    +0.000 A 
ATOM     26  C   UNL     1       8.494   7.131  19.312  0.00  0.00    +0.000 A 
ATOM     27  C   UNL     1       7.893   6.009  18.738  0.00  0.00    +0.000 A 
ENDBRANCH  21  22
BRANCH  19  29
ATOM     28  C   UNL     1       5.806   3.819  13.435  0.00  0.00    +0.000 C 
ATOM     29  C   UNL     1       6.177   3.580  14.891  0.00  0.00    +0.000 C 
ENDBRANCH  19  29
ENDBRANCH  18  21
ENDBRANCH   1  18
TORSDOF 7
ENDMDL
MODEL 5
REMARK VINA RESULT:      -6.7      2.122      7.650
REMARK  Name = 
REMARK  8 active torsions:
REMARK  status: ('A' for Active; 'I' for Inactive)
REMARK    1  A    between atoms: C_1  and  C_2
REMARK    2  A    between atoms: C_2  and  C_3
REMARK    3  A    between atoms: N_5  and  C_6
REMARK    4  A    between atoms: N_5  and  C_24
REMARK    5  A    between atoms: C_6  and  C_7
REMARK    6  A    between atoms: C_7  and  N_8
REMARK    7  A    between atoms: N_11  and  C_12
REMARK    8  A    between atoms: C_12  and  C_13
REMARK                            x       y       z     vdW  Elec       q    Type
REMARK                         _______ _______ _______ _____ _____    ______ ____
ROOT
ATOM      1  C   UNL     1       4.291   4.128  18.770  0.00  0.00    +0.000 C 
ATOM      2  C   UNL     1       4.563   2.717  19.394  0.00  0.00    +0.000 C 
ATOM      3  O   UNL     1       3.591   2.113  18.490  0.00  0.00    +0.000 OA
ATOM      4  C   UNL     1       2.975   3.426  18.322  0.00  0.00    +0.000 C 
ENDROOT
BRANCH   1   5
ATOM      5  N   UNL     1       5.303   4.337  17.707  0.00  0.00    +0.000 NA
ATOM      6  C   UNL     1       4.817   4.556  16.340  0.00  0.00    +0.000 C 
ATOM      7  C   UNL     1       5.386   5.793  15.598  0.00  0.00    +0.000 C 
ATOM      8  N   UNL     1       6.815   6.075  15.835  0.00  0.00    +0.000 NA
ATOM      9  C   UNL     1       7.002   6.146  17.296  0.00  0.00    +0.000 C 
ATOM     10  C   UNL     1       6.635   4.846  18.026  0.00  0.00    +0.000 C 
BRANCH   8  11
ATOM     11  C   UNL     1       7.658   5.041  15.195  0.00  0.00    +0.000 C 
BRANCH  11  12
ATOM     12  C   UNL     1       7.254   4.656  13.779  0.00  0.00    +0.000 A 
ATOM     13  C   UNL     1       6.322   3.633  13.562  0.00  0.00    +0.000 A 
ATOM     14  C   UNL     1       5.941   3.284  12.267  0.00  0.00    +0.000 A 
ATOM     15  C   UNL     1       6.499   3.956  11.174  0.00  0.00    +0.000 A 
ATOM     16  C   UNL     1       7.439   4.962  11.383  0.00  0.00    +0.000 A 
ATOM     17  C   UNL     1       7.823   5.309  12.684  0.00  0.00    +0.000 A 
ENDBRANCH  11  12
ENDBRANCH   8  11
ENDBRANCH   1   5
BRANCH   1  18
ATOM     18  C   UNL     1       4.172   5.247  19.809  0.00  0.00    +0.000 C 
BRANCH  18  21
ATOM     19  C   UNL     1       1.755   5.015  20.859  0.00  0.00    +0.000 C 
ATOM     20  O   UNL     1       0.581   5.400  20.832  0.00  0.00    +0.000 OA
ATOM     21  N   UNL     1       2.806   5.711  20.229  0.00  0.00    +0.000 N 
BRANCH  21  22
ATOM     22  C   UNL     1       2.395   6.902  19.520  0.00  0.00    +0.000 A 
ATOM     23  C   UNL     1       1.710   7.910  20.203  0.00  0.00    +0.000 A 
ATOM     24  C   UNL     1       1.370   9.099  19.554  0.00  0.00    +0.000 A 
ATOM     25  C   UNL     1       1.691   9.278  18.207  0.00  0.00    +0.000 A 
ATOM     26  C   UNL     1       2.343   8.269  17.508  0.00  0.00    +0.000 A 
ATOM     27  C   UNL     1       2.699   7.086  18.159  0.00  0.00    +0.000 A 
ENDBRANCH  21  22
BRANCH  19  29
ATOM     28  C   UNL     1       1.192   2.549  21.193  0.00  0.00    +0.000 C 
ATOM     29  C   UNL     1       2.058   3.735  21.591  0.00  0.00    +0.000 C 
ENDBRANCH  19  29
ENDBRANCH  18  21
ENDBRANCH   1  18
TORSDOF 7
ENDMDL
MODEL 6
REMARK VINA RESULT:      -6.7      2.467      5.003
REMARK  Name = 
REMARK  8 active torsions:
REMARK  status: ('A' for Active; 'I' for Inactive)
REMARK    1  A    between atoms: C_1  and  C_2
REMARK    2  A    between atoms: C_2  and  C_3
REMARK    3  A    between atoms: N_5  and  C_6
REMARK    4  A    between atoms: N_5  and  C_24
REMARK    5  A    between atoms: C_6  and  C_7
REMARK    6  A    between atoms: C_7  and  N_8
REMARK    7  A    between atoms: N_11  and  C_12
REMARK    8  A    between atoms: C_12  and  C_13
REMARK                            x       y       z     vdW  Elec       q    Type
REMARK                         _______ _______ _______ _____ _____    ______ ____
ROOT
ATOM      1  C   UNL     1       1.979   7.945  19.034  0.00  0.00    +0.000 C 
ATOM      2  C   UNL     1       2.886   8.973  18.276  0.00  0.00    +0.000 C 
ATOM      3  O   UNL     1       1.934   9.023  17.173  0.00  0.00    +0.000 OA
ATOM      4  C   UNL     1       1.418   7.726  17.599  0.00  0.00    +0.000 C 
ENDROOT
BRANCH   1   5
ATOM      5  N   UNL     1       1.113   8.724  19.952  0.00  0.00    +0.000 NA
ATOM      6  C   UNL     1       1.058   8.300  21.357  0.00  0.00    +0.000 C 
ATOM      7  C   UNL     1       1.301   9.404  22.418  0.00  0.00    +0.000 C 
ATOM      8  N   UNL     1       0.712  10.721  22.111  0.00  0.00    +0.000 NA
ATOM      9  C   UNL     1       1.188  11.103  20.767  0.00  0.00    +0.000 C 
ATOM     10  C   UNL     1       0.773  10.115  19.667  0.00  0.00    +0.000 C 
BRANCH   8  11
ATOM     11  C   UNL     1      -0.763  10.663  22.205  0.00  0.00    +0.000 C 
BRANCH  11  12
ATOM     12  C   UNL     1      -1.426  11.892  22.811  0.00  0.00    +0.000 A 
ATOM     13  C   UNL     1      -2.715  11.808  23.353  0.00  0.00    +0.000 A 
ATOM     14  C   UNL     1      -3.321  12.928  23.918  0.00  0.00    +0.000 A 
ATOM     15  C   UNL     1      -2.640  14.150  23.938  0.00  0.00    +0.000 A 
ATOM     16  C   UNL     1      -1.365  14.244  23.385  0.00  0.00    +0.000 A 
ATOM     17  C   UNL     1      -0.760  13.118  22.814  0.00  0.00    +0.000 A 
ENDBRANCH  11  12
ENDBRANCH   8  11
ENDBRANCH   1   5
BRANCH   1  18
ATOM     18  C   UNL     1       2.758   6.790  19.669  0.00  0.00    +0.000 C 
BRANCH  18  21
ATOM     19  C   UNL     1       2.648   4.339  18.680  0.00  0.00    +0.000 C 
ATOM     20  O   UNL     1       3.286   3.389  18.213  0.00  0.00    +0.000 OA
ATOM     21  N   UNL     1       3.184   5.636  18.807  0.00  0.00    +0.000 N 
BRANCH  21  22
ATOM     22  C   UNL     1       4.558   5.760  18.372  0.00  0.00    +0.000 A 
ATOM     23  C   UNL     1       4.836   6.244  17.092  0.00  0.00    +0.000 A 
ATOM     24  C   UNL     1       6.156   6.440  16.681  0.00  0.00    +0.000 A 
ATOM     25  C   UNL     1       7.210   6.131  17.542  0.00  0.00    +0.000 A 
ATOM     26  C   UNL     1       6.947   5.617  18.807  0.00  0.00    +0.000 A 
ATOM     27  C   UNL     1       5.628   5.435  19.225  0.00  0.00    +0.000 A 
ENDBRANCH  21  22
BRANCH  19  29
ATOM     28  C   UNL     1       1.112   3.623  20.588  0.00  0.00    +0.000 C 
ATOM     29  C   UNL     1       1.239   4.080  19.142  0.00  0.00    +0.000 C 
ENDBRANCH  19  29
ENDBRANCH  18  21
ENDBRANCH   1  18
TORSDOF 7
ENDMDL
MODEL 7
REMARK VINA RESULT:      -6.6      2.134      7.604
REMARK  Name = 
REMARK  8 active torsions:
REMARK  status: ('A' for Active; 'I' for Inactive)
REMARK    1  A    between atoms: C_1  and  C_2
REMARK    2  A    between atoms: C_2  and  C_3
REMARK    3  A    between atoms: N_5  and  C_6
REMARK    4  A    between atoms: N_5  and  C_24
REMARK    5  A    between atoms: C_6  and  C_7
REMARK    6  A    between atoms: C_7  and  N_8
REMARK    7  A    between atoms: N_11  and  C_12
REMARK    8  A    between atoms: C_12  and  C_13
REMARK                            x       y       z     vdW  Elec       q    Type
REMARK                         _______ _______ _______ _____ _____    ______ ____
ROOT
ATOM      1  C   UNL     1       3.981   3.666  18.774  0.00  0.00    +0.000 C 
ATOM      2  C   UNL     1       4.259   2.195  19.233  0.00  0.00    +0.000 C 
ATOM      3  O   UNL     1       3.361   1.688  18.202  0.00  0.00    +0.000 OA
ATOM      4  C   UNL     1       2.716   2.997  18.161  0.00  0.00    +0.000 C 
ENDROOT
BRANCH   1   5
ATOM      5  N   UNL     1       5.048   4.031  17.811  0.00  0.00    +0.000 NA
ATOM      6  C   UNL     1       4.651   4.290  16.422  0.00  0.00    +0.000 C 
ATOM      7  C   UNL     1       5.155   5.617  15.798  0.00  0.00    +0.000 C 
ATOM      8  N   UNL     1       6.529   6.010  16.167  0.00  0.00    +0.000 NA
ATOM      9  C   UNL     1       6.596   6.007  17.641  0.00  0.00    +0.000 C 
ATOM     10  C   UNL     1       6.297   4.636  18.265  0.00  0.00    +0.000 C 
BRANCH   8  11
ATOM     11  C   UNL     1       7.513   5.098  15.543  0.00  0.00    +0.000 C 
BRANCH  11  12
ATOM     12  C   UNL     1       7.233   4.733  14.092  0.00  0.00    +0.000 A 
ATOM     13  C   UNL     1       6.347   3.693  13.781  0.00  0.00    +0.000 A 
ATOM     14  C   UNL     1       6.080   3.362  12.454  0.00  0.00    +0.000 A 
ATOM     15  C   UNL     1       6.708   4.069  11.423  0.00  0.00    +0.000 A 
ATOM     16  C   UNL     1       7.602   5.093  11.726  0.00  0.00    +0.000 A 
ATOM     17  C   UNL     1       7.872   5.421  13.060  0.00  0.00    +0.000 A 
ENDBRANCH  11  12
ENDBRANCH   8  11
ENDBRANCH   1   5
BRANCH   1  18
ATOM     18  C   UNL     1       3.767   4.642  19.934  0.00  0.00    +0.000 C 
BRANCH  18  21
ATOM     19  C   UNL     1       1.187   4.463  20.493  0.00  0.00    +0.000 C 
ATOM     20  O   UNL     1       0.067   4.967  20.354  0.00  0.00    +0.000 OA
ATOM     21  N   UNL     1       2.382   5.155  20.211  0.00  0.00    +0.000 N 
BRANCH  21  22
ATOM     22  C   UNL     1       2.190   6.500  19.713  0.00  0.00    +0.000 A 
ATOM     23  C   UNL     1       2.474   6.789  18.377  0.00  0.00    +0.000 A 
ATOM     24  C   UNL     1       2.226   8.062  17.860  0.00  0.00    +0.000 A 
ATOM     25  C   UNL     1       1.714   9.064  18.685  0.00  0.00    +0.000 A 
ATOM     26  C   UNL     1       1.458   8.799  20.025  0.00  0.00    +0.000 A 
ATOM     27  C   UNL     1       1.690   7.522  20.540  0.00  0.00    +0.000 A 
ENDBRANCH  21  22
BRANCH  19  29
ATOM     28  C   UNL     1       2.087   2.833  22.238  0.00  0.00    +0.000 C 
ATOM     29  C   UNL     1       1.262   3.039  20.976  0.00  0.00    +0.000 C 
ENDBRANCH  19  29
ENDBRANCH  18  21
ENDBRANCH   1  18
TORSDOF 7
ENDMDL
MODEL 8
REMARK VINA RESULT:      -6.6      2.227      8.177
REMARK  Name = 
REMARK  8 active torsions:
REMARK  status: ('A' for Active; 'I' for Inactive)
REMARK    1  A    between atoms: C_1  and  C_2
REMARK    2  A    between atoms: C_2  and  C_3
REMARK    3  A    between atoms: N_5  and  C_6
REMARK    4  A    between atoms: N_5  and  C_24
REMARK    5  A    between atoms: C_6  and  C_7
REMARK    6  A    between atoms: C_7  and  N_8
REMARK    7  A    between atoms: N_11  and  C_12
REMARK    8  A    between atoms: C_12  and  C_13
REMARK                            x       y       z     vdW  Elec       q    Type
REMARK                         _______ _______ _______ _____ _____    ______ ____
ROOT
ATOM      1  C   UNL     1       4.295   5.045  18.035  0.00  0.00    +0.000 C 
ATOM      2  C   UNL     1       5.285   5.781  19.001  0.00  0.00    +0.000 C 
ATOM      3  O   UNL     1       5.886   4.508  19.380  0.00  0.00    +0.000 OA
ATOM      4  C   UNL     1       4.667   3.835  18.942  0.00  0.00    +0.000 C 
ENDROOT
BRANCH   1   5
ATOM      5  N   UNL     1       4.915   5.054  16.688  0.00  0.00    +0.000 NA
ATOM      6  C   UNL     1       5.765   6.198  16.338  0.00  0.00    +0.000 C 
ATOM      7  C   UNL     1       7.172   5.866  15.779  0.00  0.00    +0.000 C 
ATOM      8  N   UNL     1       7.235   4.705  14.870  0.00  0.00    +0.000 NA
ATOM      9  C   UNL     1       6.616   3.569  15.579  0.00  0.00    +0.000 C 
ATOM     10  C   UNL     1       5.148   3.810  15.958  0.00  0.00    +0.000 C 
BRANCH   8  11
ATOM     11  C   UNL     1       6.569   5.017  13.586  0.00  0.00    +0.000 C 
BRANCH  11  12
ATOM     12  C   UNL     1       6.404   3.839  12.636  0.00  0.00    +0.000 A 
ATOM     13  C   UNL     1       7.528   3.215  12.079  0.00  0.00    +0.000 A 
ATOM     14  C   UNL     1       7.381   2.129  11.217  0.00  0.00    +0.000 A 
ATOM     15  C   UNL     1       6.101   1.664  10.898  0.00  0.00    +0.000 A 
ATOM     16  C   UNL     1       4.980   2.291  11.435  0.00  0.00    +0.000 A 
ATOM     17  C   UNL     1       5.128   3.384  12.298  0.00  0.00    +0.000 A 
ENDBRANCH  11  12
ENDBRANCH   8  11
ENDBRANCH   1   5
BRANCH   1  18
ATOM     18  C   UNL     1       2.858   5.566  18.113  0.00  0.00    +0.000 C 
BRANCH  18  21
ATOM     19  C   UNL     1       1.913   5.684  20.581  0.00  0.00    +0.000 C 
ATOM     20  O   UNL     1       1.241   6.327  21.395  0.00  0.00    +0.000 OA
ATOM     21  N   UNL     1       2.391   6.234  19.375  0.00  0.00    +0.000 N 
BRANCH  21  22
ATOM     22  C   UNL     1       2.006   7.610  19.152  0.00  0.00    +0.000 A 
ATOM     23  C   UNL     1       1.388   8.330  20.177  0.00  0.00    +0.000 A 
ATOM     24  C   UNL     1       1.076   9.680  20.005  0.00  0.00    +0.000 A 
ATOM     25  C   UNL     1       1.360  10.315  18.795  0.00  0.00    +0.000 A 
ATOM     26  C   UNL     1       1.945   9.602  17.756  0.00  0.00    +0.000 A 
ATOM     27  C   UNL     1       2.272   8.256  17.931  0.00  0.00    +0.000 A 
ENDBRANCH  21  22
BRANCH  19  29
ATOM     28  C   UNL     1       1.046   3.288  20.712  0.00  0.00    +0.000 C 
ATOM     29  C   UNL     1       2.215   4.244  20.900  0.00  0.00    +0.000 C 
ENDBRANCH  19  29
ENDBRANCH  18  21
ENDBRANCH   1  18
TORSDOF 7
ENDMDL
MODEL 9
REMARK VINA RESULT:      -6.6      2.302      8.046
REMARK  Name = 
REMARK  8 active torsions:
REMARK  status: ('A' for Active; 'I' for Inactive)
REMARK    1  A    between atoms: C_1  and  C_2
REMARK    2  A    between atoms: C_2  and  C_3
REMARK    3  A    between atoms: N_5  and  C_6
REMARK    4  A    between atoms: N_5  and  C_24
REMARK    5  A    between atoms: C_6  and  C_7
REMARK    6  A    between atoms: C_7  and  N_8
REMARK    7  A    between atoms: N_11  and  C_12
REMARK    8  A    between atoms: C_12  and  C_13
REMARK                            x       y       z     vdW  Elec       q    Type
REMARK                         _______ _______ _______ _____ _____    ______ ____
ROOT
ATOM      1  C   UNL     1       3.668   4.591  17.860  0.00  0.00    +0.000 C 
ATOM      2  C   UNL     1       3.835   3.104  18.323  0.00  0.00    +0.000 C 
ATOM      3  O   UNL     1       2.610   2.733  17.624  0.00  0.00    +0.000 OA
ATOM      4  C   UNL     1       2.192   4.131  17.676  0.00  0.00    +0.000 C 
ENDROOT
BRANCH   1   5
ATOM      5  N   UNL     1       4.453   4.749  16.613  0.00  0.00    +0.000 NA
ATOM      6  C   UNL     1       5.263   5.964  16.469  0.00  0.00    +0.000 C 
ATOM      7  C   UNL     1       6.749   5.759  16.078  0.00  0.00    +0.000 C 
ATOM      8  N   UNL     1       7.006   4.686  15.099  0.00  0.00    +0.000 NA
ATOM      9  C   UNL     1       6.378   3.461  15.629  0.00  0.00    +0.000 C 
ATOM     10  C   UNL     1       4.860   3.587  15.827  0.00  0.00    +0.000 C 
BRANCH   8  11
ATOM     11  C   UNL     1       6.491   5.067  13.766  0.00  0.00    +0.000 C 
BRANCH  11  12
ATOM     12  C   UNL     1       6.349   3.924  12.771  0.00  0.00    +0.000 A 
ATOM     13  C   UNL     1       7.485   3.323  12.215  0.00  0.00    +0.000 A 
ATOM     14  C   UNL     1       7.360   2.268  11.312  0.00  0.00    +0.000 A 
ATOM     15  C   UNL     1       6.088   1.812  10.951  0.00  0.00    +0.000 A 
ATOM     16  C   UNL     1       4.954   2.417  11.487  0.00  0.00    +0.000 A 
ATOM     17  C   UNL     1       5.082   3.478  12.391  0.00  0.00    +0.000 A 
ENDBRANCH  11  12
ENDBRANCH   8  11
ENDBRANCH   1   5
BRANCH   1  18
ATOM     18  C   UNL     1       3.953   5.614  18.963  0.00  0.00    +0.000 C 
BRANCH  18  21
ATOM     19  C   UNL     1       1.960   5.377  20.687  0.00  0.00    +0.000 C 
ATOM     20  O   UNL     1       0.866   5.816  21.061  0.00  0.00    +0.000 OA
ATOM     21  N   UNL     1       2.819   6.090  19.827  0.00  0.00    +0.000 N 
BRANCH  21  22
ATOM     22  C   UNL     1       2.305   7.370  19.392  0.00  0.00    +0.000 A 
ATOM     23  C   UNL     1       2.438   7.749  18.055  0.00  0.00    +0.000 A 
ATOM     24  C   UNL     1       1.883   8.947  17.601  0.00  0.00    +0.000 A 
ATOM     25  C   UNL     1       1.209   9.787  18.489  0.00  0.00    +0.000 A 
ATOM     26  C   UNL     1       1.097   9.436  19.829  0.00  0.00    +0.000 A 
ATOM     27  C   UNL     1       1.638   8.231  20.282  0.00  0.00    +0.000 A 
ENDBRANCH  21  22
BRANCH  19  29
ATOM     28  C   UNL     1       1.288   2.948  21.082  0.00  0.00    +0.000 C 
ATOM     29  C   UNL     1       2.372   4.013  21.169  0.00  0.00    +0.000 C 
ENDBRANCH  19  29
ENDBRANCH  18  21
ENDBRANCH   1  18
TORSDOF 7
ENDMDL
