MODEL 1
REMARK VINA RESULT:      -7.7      0.000      0.000
REMARK  Name = 
REMARK  6 active torsions:
REMARK  status: ('A' for Active; 'I' for Inactive)
REMARK    1  A    between atoms: C_1  and  C_2
REMARK    2  A    between atoms: C_2  and  C_3
REMARK    3  A    between atoms: C_2  and  N_21
REMARK    4  A    between atoms: N_8  and  C_9
REMARK    5  A    between atoms: C_9  and  C_10
REMARK    6  A    between atoms: C_23  and  N_24
REMARK                            x       y       z     vdW  Elec       q    Type
REMARK                         _______ _______ _______ _____ _____    ______ ____
ROOT
ATOM      1  C   UNL     1       0.938   9.129  19.738  0.00  0.00    +0.000 C 
ATOM      2  O   UNL     1       0.258   9.276  20.768  0.00  0.00    +0.000 OA
ATOM      3  N   UNL     1       1.854   8.096  19.654  0.00  0.00    +0.000 N 
ATOM      4  C   UNL     1       1.885   7.042  20.685  0.00  0.00    +0.000 C 
ATOM      5  C   UNL     1       1.713   5.629  20.054  0.00  0.00    +0.000 C 
ATOM      6  N   UNL     1       2.575   5.350  18.869  0.00  0.00    +0.000 NA
ATOM      7  C   UNL     1       2.402   6.468  17.915  0.00  0.00    +0.000 C 
ATOM      8  C   UNL     1       2.762   7.828  18.539  0.00  0.00    +0.000 C 
ENDROOT
BRANCH   1  10
ATOM      9  C   UNL     1       1.578  11.403  18.629  0.00  0.00    +0.000 C 
ATOM     10  C   UNL     1       0.731  10.129  18.585  0.00  0.00    +0.000 C 
BRANCH  10  11
ATOM     11  N   UNL     1      -0.681  10.415  18.341  0.00  0.00    +0.000 N 
ATOM     12  C   UNL     1      -1.412  10.089  17.237  0.00  0.00    +0.000 A 
ATOM     13  C   UNL     1      -2.619  10.732  17.367  0.00  0.00    +0.000 A 
ATOM     14  C   UNL     1      -2.528  11.441  18.570  0.00  0.00    +0.000 A 
ATOM     15  N   UNL     1      -1.350  11.261  19.172  0.00  0.00    +0.000 NA
BRANCH  13  16
ATOM     16  N   UNL     1      -3.720  10.697  16.450  0.00  0.00    +0.000 N 
ATOM     17  O   UNL     1      -3.640   9.898  15.513  0.00  0.00    +0.000 OA
ATOM     18  O   UNL     1      -4.642  11.487  16.678  0.00  0.00    +0.000 OA
ENDBRANCH  13  16
ENDBRANCH  10  11
ENDBRANCH   1  10
BRANCH   6  19
ATOM     19  C   UNL     1       3.979   5.160  19.292  0.00  0.00    +0.000 C 
BRANCH  19  20
ATOM     20  C   UNL     1       5.006   5.194  18.174  0.00  0.00    +0.000 A 
ATOM     21  C   UNL     1       6.172   5.988  18.283  0.00  0.00    +0.000 A 
ATOM     22  C   UNL     1       7.072   6.105  17.215  0.00  0.00    +0.000 A 
ATOM     23  C   UNL     1       6.807   5.389  16.069  0.00  0.00    +0.000 A 
ATOM     24  C   UNL     1       5.703   4.579  15.965  0.00  0.00    +0.000 A 
ATOM     25  C   UNL     1       4.782   4.467  16.987  0.00  0.00    +0.000 A 
ATOM     26  O   UNL     1       5.643   3.937  14.767  0.00  0.00    +0.000 OA
ATOM     27  C   UNL     1       6.819   4.463  14.117  0.00  0.00    +0.000 C 
ATOM     28  O   UNL     1       7.568   5.380  14.942  0.00  0.00    +0.000 OA
ENDBRANCH  19  20
ENDBRANCH   6  19
TORSDOF 5
ENDMDL
MODEL 2
REMARK VINA RESULT:      -7.6      2.715      8.716
REMARK  Name = 
REMARK  6 active torsions:
REMARK  status: ('A' for Active; 'I' for Inactive)
REMARK    1  A    between atoms: C_1  and  C_2
REMARK    2  A    between atoms: C_2  and  C_3
REMARK    3  A    between atoms: C_2  and  N_21
REMARK    4  A    between atoms: N_8  and  C_9
REMARK    5  A    between atoms: C_9  and  C_10
REMARK    6  A    between atoms: C_23  and  N_24
REMARK                            x       y       z     vdW  Elec       q    Type
REMARK                         _______ _______ _______ _____ _____    ______ ____
ROOT
ATOM      1  C   UNL     1       2.816   4.220  19.965  0.00  0.00    +0.000 C 
ATOM      2  O   UNL     1       2.592   3.933  21.153  0.00  0.00    +0.000 OA
ATOM      3  N   UNL     1       2.254   5.355  19.409  0.00  0.00    +0.000 N 
ATOM      4  C   UNL     1       1.564   6.339  20.263  0.00  0.00    +0.000 C 
ATOM      5  C   UNL     1       2.182   7.760  20.099  0.00  0.00    +0.000 C 
ATOM      6  N   UNL     1       2.385   8.209  18.692  0.00  0.00    +0.000 NA
ATOM      7  C   UNL     1       3.122   7.139  17.982  0.00  0.00    +0.000 C 
ATOM      8  C   UNL     1       2.376   5.794  18.019  0.00  0.00    +0.000 C 
ENDROOT
BRANCH   1  10
ATOM      9  C   UNL     1       4.244   2.037  19.879  0.00  0.00    +0.000 C 
ATOM     10  C   UNL     1       3.719   3.276  19.149  0.00  0.00    +0.000 C 
BRANCH  10  11
ATOM     11  N   UNL     1       4.780   3.989  18.443  0.00  0.00    +0.000 N 
ATOM     12  C   UNL     1       5.023   3.993  17.101  0.00  0.00    +0.000 A 
ATOM     13  C   UNL     1       6.227   4.630  16.926  0.00  0.00    +0.000 A 
ATOM     14  C   UNL     1       6.656   4.962  18.216  0.00  0.00    +0.000 A 
ATOM     15  N   UNL     1       5.786   4.573  19.151  0.00  0.00    +0.000 NA
BRANCH  13  16
ATOM     16  N   UNL     1       6.904   4.874  15.687  0.00  0.00    +0.000 N 
ATOM     17  O   UNL     1       7.631   5.871  15.636  0.00  0.00    +0.000 OA
ATOM     18  O   UNL     1       6.683   4.068  14.778  0.00  0.00    +0.000 OA
ENDBRANCH  13  16
ENDBRANCH  10  11
ENDBRANCH   1  10
BRANCH   6  19
ATOM     19  C   UNL     1       1.086   8.533  18.066  0.00  0.00    +0.000 C 
BRANCH  19  20
ATOM     20  C   UNL     1       0.576   9.942  18.315  0.00  0.00    +0.000 A 
ATOM     21  C   UNL     1      -0.806  10.237  18.242  0.00  0.00    +0.000 A 
ATOM     22  C   UNL     1      -1.274  11.551  18.368  0.00  0.00    +0.000 A 
ATOM     23  C   UNL     1      -0.351  12.543  18.606  0.00  0.00    +0.000 A 
ATOM     24  C   UNL     1       0.990  12.266  18.724  0.00  0.00    +0.000 A 
ATOM     25  C   UNL     1       1.485  10.987  18.575  0.00  0.00    +0.000 A 
ATOM     26  O   UNL     1       1.727  13.378  18.991  0.00  0.00    +0.000 OA
ATOM     27  C   UNL     1       0.699  14.391  18.993  0.00  0.00    +0.000 C 
ATOM     28  O   UNL     1      -0.624  13.867  18.758  0.00  0.00    +0.000 OA
ENDBRANCH  19  20
ENDBRANCH   6  19
TORSDOF 5
ENDMDL
MODEL 3
REMARK VINA RESULT:      -7.6      0.890      1.209
REMARK  Name = 
REMARK  6 active torsions:
REMARK  status: ('A' for Active; 'I' for Inactive)
REMARK    1  A    between atoms: C_1  and  C_2
REMARK    2  A    between atoms: C_2  and  C_3
REMARK    3  A    between atoms: C_2  and  N_21
REMARK    4  A    between atoms: N_8  and  C_9
REMARK    5  A    between atoms: C_9  and  C_10
REMARK    6  A    between atoms: C_23  and  N_24
REMARK                            x       y       z     vdW  Elec       q    Type
REMARK                         _______ _______ _______ _____ _____    ______ ____
ROOT
ATOM      1  C   UNL     1       0.961   9.333  19.715  0.00  0.00    +0.000 C 
ATOM      2  O   UNL     1       0.285   9.473  20.748  0.00  0.00    +0.000 OA
ATOM      3  N   UNL     1       1.877   8.300  19.622  0.00  0.00    +0.000 N 
ATOM      4  C   UNL     1       1.912   7.241  20.647  0.00  0.00    +0.000 C 
ATOM      5  C   UNL     1       1.739   5.832  20.007  0.00  0.00    +0.000 C 
ATOM      6  N   UNL     1       2.597   5.560  18.819  0.00  0.00    +0.000 NA
ATOM      7  C   UNL     1       2.421   6.684  17.872  0.00  0.00    +0.000 C 
ATOM      8  C   UNL     1       2.782   8.040  18.503  0.00  0.00    +0.000 C 
ENDROOT
BRANCH   1  10
ATOM      9  C   UNL     1       1.497  11.671  18.686  0.00  0.00    +0.000 C 
ATOM     10  C   UNL     1       0.750  10.340  18.569  0.00  0.00    +0.000 C 
BRANCH  10  11
ATOM     11  N   UNL     1      -0.661  10.528  18.244  0.00  0.00    +0.000 N 
ATOM     12  C   UNL     1      -1.519  11.444  18.780  0.00  0.00    +0.000 A 
ATOM     13  C   UNL     1      -2.772  11.116  18.323  0.00  0.00    +0.000 A 
ATOM     14  C   UNL     1      -2.586   9.977  17.531  0.00  0.00    +0.000 A 
ATOM     15  N   UNL     1      -1.305   9.604  17.478  0.00  0.00    +0.000 NA
BRANCH  13  16
ATOM     16  N   UNL     1      -4.003  11.787  18.619  0.00  0.00    +0.000 N 
ATOM     17  O   UNL     1      -4.930  11.627  17.820  0.00  0.00    +0.000 OA
ATOM     18  O   UNL     1      -4.013  12.478  19.642  0.00  0.00    +0.000 OA
ENDBRANCH  13  16
ENDBRANCH  10  11
ENDBRANCH   1  10
BRANCH   6  19
ATOM     19  C   UNL     1       4.002   5.368  19.237  0.00  0.00    +0.000 C 
BRANCH  19  20
ATOM     20  C   UNL     1       5.018   5.326  18.107  0.00  0.00    +0.000 A 
ATOM     21  C   UNL     1       6.216   6.073  18.181  0.00  0.00    +0.000 A 
ATOM     22  C   UNL     1       7.108   6.121  17.101  0.00  0.00    +0.000 A 
ATOM     23  C   UNL     1       6.801   5.384  15.980  0.00  0.00    +0.000 A 
ATOM     24  C   UNL     1       5.663   4.617  15.911  0.00  0.00    +0.000 A 
ATOM     25  C   UNL     1       4.750   4.574  16.945  0.00  0.00    +0.000 A 
ATOM     26  O   UNL     1       5.564   3.943  14.734  0.00  0.00    +0.000 OA
ATOM     27  C   UNL     1       6.753   4.401  14.057  0.00  0.00    +0.000 C 
ATOM     28  O   UNL     1       7.549   5.309  14.846  0.00  0.00    +0.000 OA
ENDBRANCH  19  20
ENDBRANCH   6  19
TORSDOF 5
ENDMDL
MODEL 4
REMARK VINA RESULT:      -7.5      3.352      8.987
REMARK  Name = 
REMARK  6 active torsions:
REMARK  status: ('A' for Active; 'I' for Inactive)
REMARK    1  A    between atoms: C_1  and  C_2
REMARK    2  A    between atoms: C_2  and  C_3
REMARK    3  A    between atoms: C_2  and  N_21
REMARK    4  A    between atoms: N_8  and  C_9
REMARK    5  A    between atoms: C_9  and  C_10
REMARK    6  A    between atoms: C_23  and  N_24
REMARK                            x       y       z     vdW  Elec       q    Type
REMARK                         _______ _______ _______ _____ _____    ______ ____
ROOT
ATOM      1  C   UNL     1       2.379   3.329  19.139  0.00  0.00    +0.000 C 
ATOM      2  O   UNL     1       2.014   2.492  19.983  0.00  0.00    +0.000 OA
ATOM      3  N   UNL     1       1.952   4.641  19.235  0.00  0.00    +0.000 N 
ATOM      4  C   UNL     1       1.241   5.106  20.439  0.00  0.00    +0.000 C 
ATOM      5  C   UNL     1       1.962   6.328  21.083  0.00  0.00    +0.000 C 
ATOM      6  N   UNL     1       2.341   7.417  20.138  0.00  0.00    +0.000 NA
ATOM      7  C   UNL     1       3.077   6.798  19.013  0.00  0.00    +0.000 C 
ATOM      8  C   UNL     1       2.247   5.721  18.294  0.00  0.00    +0.000 C 
ENDROOT
BRANCH   1  10
ATOM      9  C   UNL     1       3.717   1.380  18.030  0.00  0.00    +0.000 C 
ATOM     10  C   UNL     1       3.300   2.853  18.000  0.00  0.00    +0.000 C 
BRANCH  10  11
ATOM     11  N   UNL     1       4.440   3.743  17.795  0.00  0.00    +0.000 N 
ATOM     12  C   UNL     1       4.859   4.293  16.619  0.00  0.00    +0.000 A 
ATOM     13  C   UNL     1       6.071   4.885  16.878  0.00  0.00    +0.000 A 
ATOM     14  C   UNL     1       6.322   4.630  18.230  0.00  0.00    +0.000 A 
ATOM     15  N   UNL     1       5.338   3.930  18.801  0.00  0.00    +0.000 NA
BRANCH  13  16
ATOM     16  N   UNL     1       6.905   5.590  15.948  0.00  0.00    +0.000 N 
ATOM     17  O   UNL     1       6.810   5.268  14.761  0.00  0.00    +0.000 OA
ATOM     18  O   UNL     1       7.653   6.445  16.430  0.00  0.00    +0.000 OA
ENDBRANCH  13  16
ENDBRANCH  10  11
ENDBRANCH   1  10
BRANCH   6  19
ATOM     19  C   UNL     1       1.137   8.159  19.706  0.00  0.00    +0.000 C 
BRANCH  19  20
ATOM     20  C   UNL     1       0.602   9.172  20.704  0.00  0.00    +0.000 A 
ATOM     21  C   UNL     1      -0.040   8.750  21.892  0.00  0.00    +0.000 A 
ATOM     22  C   UNL     1      -0.627   9.675  22.765  0.00  0.00    +0.000 A 
ATOM     23  C   UNL     1      -0.524  11.011  22.453  0.00  0.00    +0.000 A 
ATOM     24  C   UNL     1       0.136  11.439  21.326  0.00  0.00    +0.000 A 
ATOM     25  C   UNL     1       0.697  10.551  20.430  0.00  0.00    +0.000 A 
ATOM     26  O   UNL     1       0.153  12.795  21.218  0.00  0.00    +0.000 OA
ATOM     27  C   UNL     1      -0.602  13.169  22.390  0.00  0.00    +0.000 C 
ATOM     28  O   UNL     1      -1.027  12.042  23.183  0.00  0.00    +0.000 OA
ENDBRANCH  19  20
ENDBRANCH   6  19
TORSDOF 5
ENDMDL
MODEL 5
REMARK VINA RESULT:      -7.5      3.246      8.998
REMARK  Name = 
REMARK  6 active torsions:
REMARK  status: ('A' for Active; 'I' for Inactive)
REMARK    1  A    between atoms: C_1  and  C_2
REMARK    2  A    between atoms: C_2  and  C_3
REMARK    3  A    between atoms: C_2  and  N_21
REMARK    4  A    between atoms: N_8  and  C_9
REMARK    5  A    between atoms: C_9  and  C_10
REMARK    6  A    between atoms: C_23  and  N_24
REMARK                            x       y       z     vdW  Elec       q    Type
REMARK                         _______ _______ _______ _____ _____    ______ ____
ROOT
ATOM      1  C   UNL     1       2.505   3.524  19.308  0.00  0.00    +0.000 C 
ATOM      2  O   UNL     1       2.261   2.788  20.280  0.00  0.00    +0.000 OA
ATOM      3  N   UNL     1       1.984   4.804  19.260  0.00  0.00    +0.000 N 
ATOM      4  C   UNL     1       1.319   5.382  20.443  0.00  0.00    +0.000 C 
ATOM      5  C   UNL     1       1.983   6.727  20.863  0.00  0.00    +0.000 C 
ATOM      6  N   UNL     1       2.214   7.699  19.756  0.00  0.00    +0.000 NA
ATOM      7  C   UNL     1       2.922   6.982  18.671  0.00  0.00    +0.000 C 
ATOM      8  C   UNL     1       2.133   5.762  18.165  0.00  0.00    +0.000 C 
ENDROOT
BRANCH   1  10
ATOM      9  C   UNL     1       3.721   1.468  18.254  0.00  0.00    +0.000 C 
ATOM     10  C   UNL     1       3.384   2.959  18.176  0.00  0.00    +0.000 C 
BRANCH  10  11
ATOM     11  N   UNL     1       4.567   3.778  17.927  0.00  0.00    +0.000 N 
ATOM     12  C   UNL     1       5.046   4.194  16.719  0.00  0.00    +0.000 A 
ATOM     13  C   UNL     1       6.274   4.759  16.963  0.00  0.00    +0.000 A 
ATOM     14  C   UNL     1       6.472   4.627  18.342  0.00  0.00    +0.000 A 
ATOM     15  N   UNL     1       5.441   4.025  18.942  0.00  0.00    +0.000 NA
BRANCH  13  16
ATOM     16  N   UNL     1       7.166   5.336  16.001  0.00  0.00    +0.000 N 
ATOM     17  O   UNL     1       7.412   4.663  14.995  0.00  0.00    +0.000 OA
ATOM     18  O   UNL     1       7.619   6.451  16.279  0.00  0.00    +0.000 OA
ENDBRANCH  13  16
ENDBRANCH  10  11
ENDBRANCH   1  10
BRANCH   6  19
ATOM     19  C   UNL     1       0.931   8.290  19.320  0.00  0.00    +0.000 C 
BRANCH  19  20
ATOM     20  C   UNL     1       0.567   9.611  19.976  0.00  0.00    +0.000 A 
ATOM     21  C   UNL     1       1.092  10.832  19.492  0.00  0.00    +0.000 A 
ATOM     22  C   UNL     1       0.844  12.041  20.154  0.00  0.00    +0.000 A 
ATOM     23  C   UNL     1       0.037  12.011  21.268  0.00  0.00    +0.000 A 
ATOM     24  C   UNL     1      -0.517  10.840  21.725  0.00  0.00    +0.000 A 
ATOM     25  C   UNL     1      -0.266   9.628  21.114  0.00  0.00    +0.000 A 
ATOM     26  O   UNL     1      -1.306  11.031  22.817  0.00  0.00    +0.000 OA
ATOM     27  C   UNL     1      -1.157  12.453  23.014  0.00  0.00    +0.000 C 
ATOM     28  O   UNL     1      -0.312  13.083  22.029  0.00  0.00    +0.000 OA
ENDBRANCH  19  20
ENDBRANCH   6  19
TORSDOF 5
ENDMDL
MODEL 6
REMARK VINA RESULT:      -7.4      2.554      8.825
REMARK  Name = 
REMARK  6 active torsions:
REMARK  status: ('A' for Active; 'I' for Inactive)
REMARK    1  A    between atoms: C_1  and  C_2
REMARK    2  A    between atoms: C_2  and  C_3
REMARK    3  A    between atoms: C_2  and  N_21
REMARK    4  A    between atoms: N_8  and  C_9
REMARK    5  A    between atoms: C_9  and  C_10
REMARK    6  A    between atoms: C_23  and  N_24
REMARK                            x       y       z     vdW  Elec       q    Type
REMARK                         _______ _______ _______ _____ _____    ______ ____
ROOT
ATOM      1  C   UNL     1       2.833   4.245  19.870  0.00  0.00    +0.000 C 
ATOM      2  O   UNL     1       2.664   3.965  21.070  0.00  0.00    +0.000 OA
ATOM      3  N   UNL     1       2.291   5.405  19.347  0.00  0.00    +0.000 N 
ATOM      4  C   UNL     1       1.696   6.417  20.238  0.00  0.00    +0.000 C 
ATOM      5  C   UNL     1       2.367   7.808  20.039  0.00  0.00    +0.000 C 
ATOM      6  N   UNL     1       2.510   8.251  18.622  0.00  0.00    +0.000 NA
ATOM      7  C   UNL     1       3.156   7.150  17.872  0.00  0.00    +0.000 C 
ATOM      8  C   UNL     1       2.354   5.840  17.952  0.00  0.00    +0.000 C 
ENDROOT
BRANCH   1  10
ATOM      9  C   UNL     1       4.092   1.966  19.685  0.00  0.00    +0.000 C 
ATOM     10  C   UNL     1       3.644   3.262  19.005  0.00  0.00    +0.000 C 
BRANCH  10  11
ATOM     11  N   UNL     1       4.739   3.917  18.294  0.00  0.00    +0.000 N 
ATOM     12  C   UNL     1       4.959   3.931  16.948  0.00  0.00    +0.000 A 
ATOM     13  C   UNL     1       6.201   4.490  16.764  0.00  0.00    +0.000 A 
ATOM     14  C   UNL     1       6.671   4.768  18.052  0.00  0.00    +0.000 A 
ATOM     15  N   UNL     1       5.792   4.420  18.995  0.00  0.00    +0.000 NA
BRANCH  13  16
ATOM     16  N   UNL     1       6.872   4.712  15.517  0.00  0.00    +0.000 N 
ATOM     17  O   UNL     1       6.646   3.905  14.611  0.00  0.00    +0.000 OA
ATOM     18  O   UNL     1       7.629   5.687  15.474  0.00  0.00    +0.000 OA
ENDBRANCH  13  16
ENDBRANCH  10  11
ENDBRANCH   1  10
BRANCH   6  19
ATOM     19  C   UNL     1       1.193   8.634  18.071  0.00  0.00    +0.000 C 
BRANCH  19  20
ATOM     20  C   UNL     1       0.699  10.016  18.463  0.00  0.00    +0.000 A 
ATOM     21  C   UNL     1       1.570  11.131  18.444  0.00  0.00    +0.000 A 
ATOM     22  C   UNL     1       1.151  12.386  18.903  0.00  0.00    +0.000 A 
ATOM     23  C   UNL     1      -0.150  12.512  19.335  0.00  0.00    +0.000 A 
ATOM     24  C   UNL     1      -1.021  11.450  19.317  0.00  0.00    +0.000 A 
ATOM     25  C   UNL     1      -0.629  10.194  18.901  0.00  0.00    +0.000 A 
ATOM     26  O   UNL     1      -2.264  11.792  19.752  0.00  0.00    +0.000 OA
ATOM     27  C   UNL     1      -2.064  13.183  20.078  0.00  0.00    +0.000 C 
ATOM     28  O   UNL     1      -0.727  13.650  19.807  0.00  0.00    +0.000 OA
ENDBRANCH  19  20
ENDBRANCH   6  19
TORSDOF 5
ENDMDL
MODEL 7
REMARK VINA RESULT:      -7.4      2.833      9.052
REMARK  Name = 
REMARK  6 active torsions:
REMARK  status: ('A' for Active; 'I' for Inactive)
REMARK    1  A    between atoms: C_1  and  C_2
REMARK    2  A    between atoms: C_2  and  C_3
REMARK    3  A    between atoms: C_2  and  N_21
REMARK    4  A    between atoms: N_8  and  C_9
REMARK    5  A    between atoms: C_9  and  C_10
REMARK    6  A    between atoms: C_23  and  N_24
REMARK                            x       y       z     vdW  Elec       q    Type
REMARK                         _______ _______ _______ _____ _____    ______ ____
ROOT
ATOM      1  C   UNL     1       4.851   4.448  17.724  0.00  0.00    +0.000 C 
ATOM      2  O   UNL     1       4.481   3.384  18.250  0.00  0.00    +0.000 OA
ATOM      3  N   UNL     1       3.965   5.502  17.596  0.00  0.00    +0.000 N 
ATOM      4  C   UNL     1       2.651   5.455  18.263  0.00  0.00    +0.000 C 
ATOM      5  C   UNL     1       2.449   6.685  19.197  0.00  0.00    +0.000 C 
ATOM      6  N   UNL     1       2.780   8.007  18.593  0.00  0.00    +0.000 NA
ATOM      7  C   UNL     1       4.135   7.904  18.006  0.00  0.00    +0.000 C 
ATOM      8  C   UNL     1       4.231   6.788  16.952  0.00  0.00    +0.000 C 
ENDROOT
BRANCH   1  10
ATOM      9  C   UNL     1       7.184   5.608  17.872  0.00  0.00    +0.000 C 
ATOM     10  C   UNL     1       6.304   4.539  17.221  0.00  0.00    +0.000 C 
BRANCH  10  11
ATOM     11  N   UNL     1       6.389   4.570  15.763  0.00  0.00    +0.000 N 
ATOM     12  C   UNL     1       5.793   3.716  14.881  0.00  0.00    +0.000 A 
ATOM     13  C   UNL     1       6.315   4.008  13.645  0.00  0.00    +0.000 A 
ATOM     14  C   UNL     1       7.235   5.038  13.870  0.00  0.00    +0.000 A 
ATOM     15  N   UNL     1       7.294   5.388  15.158  0.00  0.00    +0.000 NA
BRANCH  13  16
ATOM     16  N   UNL     1       5.999   3.372  12.400  0.00  0.00    +0.000 N 
ATOM     17  O   UNL     1       6.940   2.879  11.772  0.00  0.00    +0.000 OA
ATOM     18  O   UNL     1       4.810   3.390  12.066  0.00  0.00    +0.000 OA
ENDBRANCH  13  16
ENDBRANCH  10  11
ENDBRANCH   1  10
BRANCH   6  19
ATOM     19  C   UNL     1       1.748   8.391  17.607  0.00  0.00    +0.000 C 
BRANCH  19  20
ATOM     20  C   UNL     1       0.842   9.537  18.025  0.00  0.00    +0.000 A 
ATOM     21  C   UNL     1      -0.528   9.545  17.672  0.00  0.00    +0.000 A 
ATOM     22  C   UNL     1      -1.345  10.645  17.963  0.00  0.00    +0.000 A 
ATOM     23  C   UNL     1      -0.782  11.703  18.641  0.00  0.00    +0.000 A 
ATOM     24  C   UNL     1       0.536  11.691  19.029  0.00  0.00    +0.000 A 
ATOM     25  C   UNL     1       1.373  10.636  18.730  0.00  0.00    +0.000 A 
ATOM     26  O   UNL     1       0.884  12.814  19.713  0.00  0.00    +0.000 OA
ATOM     27  C   UNL     1      -0.357  13.549  19.680  0.00  0.00    +0.000 C 
ATOM     28  O   UNL     1      -1.423  12.846  19.008  0.00  0.00    +0.000 OA
ENDBRANCH  19  20
ENDBRANCH   6  19
TORSDOF 5
ENDMDL
MODEL 8
REMARK VINA RESULT:      -7.4      2.848      8.712
REMARK  Name = 
REMARK  6 active torsions:
REMARK  status: ('A' for Active; 'I' for Inactive)
REMARK    1  A    between atoms: C_1  and  C_2
REMARK    2  A    between atoms: C_2  and  C_3
REMARK    3  A    between atoms: C_2  and  N_21
REMARK    4  A    between atoms: N_8  and  C_9
REMARK    5  A    between atoms: C_9  and  C_10
REMARK    6  A    between atoms: C_23  and  N_24
REMARK                            x       y       z     vdW  Elec       q    Type
REMARK                         _______ _______ _______ _____ _____    ______ ____
ROOT
ATOM      1  C   UNL     1       2.907   4.248  19.874  0.00  0.00    +0.000 C 
ATOM      2  O   UNL     1       2.755   3.990  21.081  0.00  0.00    +0.000 OA
ATOM      3  N   UNL     1       2.321   5.375  19.327  0.00  0.00    +0.000 N 
ATOM      4  C   UNL     1       1.694   6.386  20.198  0.00  0.00    +0.000 C 
ATOM      5  C   UNL     1       2.313   7.795  19.962  0.00  0.00    +0.000 C 
ATOM      6  N   UNL     1       2.433   8.210  18.535  0.00  0.00    +0.000 NA
ATOM      7  C   UNL     1       3.114   7.116  17.807  0.00  0.00    +0.000 C 
ATOM      8  C   UNL     1       2.360   5.779  17.922  0.00  0.00    +0.000 C 
ENDROOT
BRANCH   1  10
ATOM      9  C   UNL     1       4.193   1.982  19.715  0.00  0.00    +0.000 C 
ATOM     10  C   UNL     1       3.749   3.275  19.027  0.00  0.00    +0.000 C 
BRANCH  10  11
ATOM     11  N   UNL     1       4.855   3.942  18.344  0.00  0.00    +0.000 N 
ATOM     12  C   UNL     1       5.733   4.841  18.875  0.00  0.00    +0.000 A 
ATOM     13  C   UNL     1       6.458   5.343  17.822  0.00  0.00    +0.000 A 
ATOM     14  C   UNL     1       5.942   4.708  16.686  0.00  0.00    +0.000 A 
ATOM     15  N   UNL     1       4.960   3.855  16.990  0.00  0.00    +0.000 NA
BRANCH  13  16
ATOM     16  N   UNL     1       7.501   6.325  17.880  0.00  0.00    +0.000 N 
ATOM     17  O   UNL     1       8.077   6.461  18.963  0.00  0.00    +0.000 OA
ATOM     18  O   UNL     1       7.713   6.954  16.839  0.00  0.00    +0.000 OA
ENDBRANCH  13  16
ENDBRANCH  10  11
ENDBRANCH   1  10
BRANCH   6  19
ATOM     19  C   UNL     1       1.100   8.532  17.983  0.00  0.00    +0.000 C 
BRANCH  19  20
ATOM     20  C   UNL     1       0.597   9.936  18.271  0.00  0.00    +0.000 A 
ATOM     21  C   UNL     1      -0.788  10.224  18.276  0.00  0.00    +0.000 A 
ATOM     22  C   UNL     1      -1.255  11.535  18.438  0.00  0.00    +0.000 A 
ATOM     23  C   UNL     1      -0.325  12.530  18.634  0.00  0.00    +0.000 A 
ATOM     24  C   UNL     1       1.022  12.259  18.676  0.00  0.00    +0.000 A 
ATOM     25  C   UNL     1       1.514  10.984  18.489  0.00  0.00    +0.000 A 
ATOM     26  O   UNL     1       1.767  13.373  18.912  0.00  0.00    +0.000 OA
ATOM     27  C   UNL     1       0.736  14.380  18.979  0.00  0.00    +0.000 C 
ATOM     28  O   UNL     1      -0.596  13.851  18.812  0.00  0.00    +0.000 OA
ENDBRANCH  19  20
ENDBRANCH   6  19
TORSDOF 5
ENDMDL
MODEL 9
REMARK VINA RESULT:      -7.3      3.082      8.735
REMARK  Name = 
REMARK  6 active torsions:
REMARK  status: ('A' for Active; 'I' for Inactive)
REMARK    1  A    between atoms: C_1  and  C_2
REMARK    2  A    between atoms: C_2  and  C_3
REMARK    3  A    between atoms: C_2  and  N_21
REMARK    4  A    between atoms: N_8  and  C_9
REMARK    5  A    between atoms: C_9  and  C_10
REMARK    6  A    between atoms: C_23  and  N_24
REMARK                            x       y       z     vdW  Elec       q    Type
REMARK                         _______ _______ _______ _____ _____    ______ ____
ROOT
ATOM      1  C   UNL     1       2.562   3.592  19.382  0.00  0.00    +0.000 C 
ATOM      2  O   UNL     1       2.353   2.999  20.454  0.00  0.00    +0.000 OA
ATOM      3  N   UNL     1       2.066   4.869  19.188  0.00  0.00    +0.000 N 
ATOM      4  C   UNL     1       1.474   5.616  20.313  0.00  0.00    +0.000 C 
ATOM      5  C   UNL     1       2.187   6.986  20.517  0.00  0.00    +0.000 C 
ATOM      6  N   UNL     1       2.381   7.796  19.281  0.00  0.00    +0.000 NA
ATOM      7  C   UNL     1       3.017   6.923  18.268  0.00  0.00    +0.000 C 
ATOM      8  C   UNL     1       2.178   5.669  17.969  0.00  0.00    +0.000 C 
ENDROOT
BRANCH   1  10
ATOM      9  C   UNL     1       3.731   1.400  18.582  0.00  0.00    +0.000 C 
ATOM     10  C   UNL     1       3.370   2.859  18.294  0.00  0.00    +0.000 C 
BRANCH  10  11
ATOM     11  N   UNL     1       4.523   3.631  17.839  0.00  0.00    +0.000 N 
ATOM     12  C   UNL     1       4.900   3.873  16.550  0.00  0.00    +0.000 A 
ATOM     13  C   UNL     1       6.139   4.463  16.613  0.00  0.00    +0.000 A 
ATOM     14  C   UNL     1       6.447   4.524  17.977  0.00  0.00    +0.000 A 
ATOM     15  N   UNL     1       5.472   4.016  18.736  0.00  0.00    +0.000 NA
BRANCH  13  16
ATOM     16  N   UNL     1       6.946   4.897  15.511  0.00  0.00    +0.000 N 
ATOM     17  O   UNL     1       6.869   4.237  14.471  0.00  0.00    +0.000 OA
ATOM     18  O   UNL     1       7.658   5.885  15.715  0.00  0.00    +0.000 OA
ENDBRANCH  13  16
ENDBRANCH  10  11
ENDBRANCH   1  10
BRANCH   6  19
ATOM     19  C   UNL     1       1.090   8.360  18.832  0.00  0.00    +0.000 C 
BRANCH  19  20
ATOM     20  C   UNL     1       0.816   9.789  19.268  0.00  0.00    +0.000 A 
ATOM     21  C   UNL     1      -0.078  10.064  20.330  0.00  0.00    +0.000 A 
ATOM     22  C   UNL     1      -0.415  11.381  20.670  0.00  0.00    +0.000 A 
ATOM     23  C   UNL     1       0.182  12.401  19.965  0.00  0.00    +0.000 A 
ATOM     24  C   UNL     1       1.086  12.150  18.961  0.00  0.00    +0.000 A 
ATOM     25  C   UNL     1       1.415  10.864  18.582  0.00  0.00    +0.000 A 
ATOM     26  O   UNL     1       1.584  13.292  18.415  0.00  0.00    +0.000 OA
ATOM     27  C   UNL     1       0.863  14.290  19.168  0.00  0.00    +0.000 C 
ATOM     28  O   UNL     1      -0.022  13.731  20.160  0.00  0.00    +0.000 OA
ENDBRANCH  19  20
ENDBRANCH   6  19
TORSDOF 5
ENDMDL
