MODEL 1
REMARK VINA RESULT:      -7.7      0.000      0.000
REMARK  Name = 
REMARK  3 active torsions:
REMARK  status: ('A' for Active; 'I' for Inactive)
REMARK    1  A    between atoms: C_2  and  C_4
REMARK    2  A    between atoms: C_9  and  C_11
REMARK    3  A    between atoms: C_13  and  C_14
REMARK                            x       y       z     vdW  Elec       q    Type
REMARK                         _______ _______ _______ _____ _____    ______ ____
ROOT
ATOM      1  C   UNL     1       3.412   6.241  17.752  0.00  0.00    +0.000 A 
ATOM      2  C   UNL     1       2.568   5.166  17.518  0.00  0.00    +0.000 A 
ATOM      3  C   UNL     1       3.069   3.873  17.515  0.00  0.00    +0.000 A 
ATOM      4  N   UNL     1       4.403   3.669  17.510  0.00  0.00    +0.000 NA
ATOM      5  C   UNL     1       5.241   4.717  17.475  0.00  0.00    +0.000 A 
ATOM      6  C   UNL     1       6.589   4.442  17.278  0.00  0.00    +0.000 A 
ATOM      7  C   UNL     1       7.540   5.455  17.172  0.00  0.00    +0.000 A 
ATOM      8  C   UNL     1       7.133   6.769  17.314  0.00  0.00    +0.000 A 
ATOM      9  F   UNL     1       8.031   7.755  17.182  0.00  0.00    +0.000 F 
ATOM     10  C   UNL     1       5.801   7.075  17.562  0.00  0.00    +0.000 A 
ATOM     11  C   UNL     1       4.809   6.056  17.618  0.00  0.00    +0.000 A 
ENDROOT
BRANCH   1  17
ATOM     12  C   UNL     1       1.949   7.180  20.497  0.00  0.00    +0.000 C 
ATOM     13  C   UNL     1       0.659   7.805  21.068  0.00  0.00    +0.000 C 
ATOM     14  C   UNL     1       0.679   9.231  20.564  0.00  0.00    +0.000 C 
ATOM     15  C   UNL     1       1.397   9.135  19.228  0.00  0.00    +0.000 C 
ATOM     16  N   UNL     1       1.962   7.788  19.141  0.00  0.00    +0.000 N 
ATOM     17  C   UNL     1       2.771   7.563  18.014  0.00  0.00    +0.000 C 
ATOM     18  O   UNL     1       2.921   8.443  17.167  0.00  0.00    +0.000 OA
BRANCH  12  20
ATOM     19  N   UNL     1       2.966   5.019  21.107  0.00  0.00    +0.000 N 
ATOM     20  C   UNL     1       1.807   5.677  20.807  0.00  0.00    +0.000 C 
ATOM     21  O   UNL     1       0.747   5.050  20.757  0.00  0.00    +0.000 OA
ATOM     22  H   UNL     1       2.904   4.009  21.193  0.00  0.00    +0.000 HD
ATOM     23  H   UNL     1       3.885   5.419  20.981  0.00  0.00    +0.000 HD
ENDBRANCH  12  20
ENDBRANCH   1  17
BRANCH   3  24
ATOM     24  C   UNL     1       2.112   2.701  17.630  0.00  0.00    +0.000 C 
ATOM     25  C   UNL     1       2.132   1.766  18.807  0.00  0.00    +0.000 C 
ATOM     26  C   UNL     1       1.010   2.752  18.669  0.00  0.00    +0.000 C 
ENDBRANCH   3  24
TORSDOF 3
ENDMDL
MODEL 2
REMARK VINA RESULT:      -7.6      2.672      4.414
REMARK  Name = 
REMARK  3 active torsions:
REMARK  status: ('A' for Active; 'I' for Inactive)
REMARK    1  A    between atoms: C_2  and  C_4
REMARK    2  A    between atoms: C_9  and  C_11
REMARK    3  A    between atoms: C_13  and  C_14
REMARK                            x       y       z     vdW  Elec       q    Type
REMARK                         _______ _______ _______ _____ _____    ______ ____
ROOT
ATOM      1  C   UNL     1       4.818   3.773  16.932  0.00  0.00    +0.000 A 
ATOM      2  C   UNL     1       4.534   3.910  15.581  0.00  0.00    +0.000 A 
ATOM      3  C   UNL     1       5.453   4.506  14.731  0.00  0.00    +0.000 A 
ATOM      4  N   UNL     1       6.518   5.158  15.244  0.00  0.00    +0.000 NA
ATOM      5  C   UNL     1       6.668   5.255  16.574  0.00  0.00    +0.000 A 
ATOM      6  C   UNL     1       7.673   6.096  17.036  0.00  0.00    +0.000 A 
ATOM      7  C   UNL     1       7.884   6.314  18.397  0.00  0.00    +0.000 A 
ATOM      8  C   UNL     1       7.098   5.635  19.310  0.00  0.00    +0.000 A 
ATOM      9  F   UNL     1       7.267   5.859  20.620  0.00  0.00    +0.000 F 
ATOM     10  C   UNL     1       6.118   4.748  18.881  0.00  0.00    +0.000 A 
ATOM     11  C   UNL     1       5.854   4.557  17.496  0.00  0.00    +0.000 A 
ENDROOT
BRANCH   1  17
ATOM     12  C   UNL     1       2.191   4.677  18.617  0.00  0.00    +0.000 C 
ATOM     13  C   UNL     1       1.502   4.578  19.994  0.00  0.00    +0.000 C 
ATOM     14  C   UNL     1       1.105   3.124  20.111  0.00  0.00    +0.000 C 
ATOM     15  C   UNL     1       2.178   2.389  19.324  0.00  0.00    +0.000 C 
ATOM     16  N   UNL     1       2.955   3.402  18.609  0.00  0.00    +0.000 N 
ATOM     17  C   UNL     1       3.921   2.886  17.728  0.00  0.00    +0.000 C 
ATOM     18  O   UNL     1       4.100   1.672  17.639  0.00  0.00    +0.000 OA
BRANCH  12  20
ATOM     19  N   UNL     1       2.916   6.703  19.820  0.00  0.00    +0.000 N 
ATOM     20  C   UNL     1       2.803   6.092  18.604  0.00  0.00    +0.000 C 
ATOM     21  O   UNL     1       3.142   6.697  17.585  0.00  0.00    +0.000 OA
ATOM     22  H   UNL     1       3.202   7.677  19.812  0.00  0.00    +0.000 HD
ATOM     23  H   UNL     1       2.489   6.352  20.665  0.00  0.00    +0.000 HD
ENDBRANCH  12  20
ENDBRANCH   1  17
BRANCH   3  24
ATOM     24  C   UNL     1       5.310   4.324  13.232  0.00  0.00    +0.000 C 
ATOM     25  C   UNL     1       6.500   4.128  12.334  0.00  0.00    +0.000 C 
ATOM     26  C   UNL     1       5.598   2.966  12.626  0.00  0.00    +0.000 C 
ENDBRANCH   3  24
TORSDOF 3
ENDMDL
MODEL 3
REMARK VINA RESULT:      -7.5      2.391      5.595
REMARK  Name = 
REMARK  3 active torsions:
REMARK  status: ('A' for Active; 'I' for Inactive)
REMARK    1  A    between atoms: C_2  and  C_4
REMARK    2  A    between atoms: C_9  and  C_11
REMARK    3  A    between atoms: C_13  and  C_14
REMARK                            x       y       z     vdW  Elec       q    Type
REMARK                         _______ _______ _______ _____ _____    ______ ____
ROOT
ATOM      1  C   UNL     1       2.862   6.351  18.468  0.00  0.00    +0.000 A 
ATOM      2  C   UNL     1       2.390   7.397  19.247  0.00  0.00    +0.000 A 
ATOM      3  C   UNL     1       1.748   7.139  20.448  0.00  0.00    +0.000 A 
ATOM      4  N   UNL     1       1.376   5.877  20.753  0.00  0.00    +0.000 NA
ATOM      5  C   UNL     1       1.600   4.883  19.881  0.00  0.00    +0.000 A 
ATOM      6  C   UNL     1       1.026   3.650  20.167  0.00  0.00    +0.000 A 
ATOM      7  C   UNL     1       1.149   2.562  19.305  0.00  0.00    +0.000 A 
ATOM      8  C   UNL     1       1.902   2.705  18.155  0.00  0.00    +0.000 A 
ATOM      9  F   UNL     1       2.002   1.678  17.300  0.00  0.00    +0.000 F 
ATOM     10  C   UNL     1       2.532   3.909  17.864  0.00  0.00    +0.000 A 
ATOM     11  C   UNL     1       2.370   5.045  18.706  0.00  0.00    +0.000 A 
ENDROOT
BRANCH   1  17
ATOM     12  C   UNL     1       5.644   4.863  17.687  0.00  0.00    +0.000 C 
ATOM     13  C   UNL     1       7.135   5.100  17.371  0.00  0.00    +0.000 C 
ATOM     14  C   UNL     1       7.125   5.827  16.045  0.00  0.00    +0.000 C 
ATOM     15  C   UNL     1       5.831   6.625  16.076  0.00  0.00    +0.000 C 
ATOM     16  N   UNL     1       5.065   6.153  17.230  0.00  0.00    +0.000 N 
ATOM     17  C   UNL     1       3.776   6.702  17.342  0.00  0.00    +0.000 C 
ATOM     18  O   UNL     1       3.385   7.549  16.538  0.00  0.00    +0.000 OA
BRANCH  12  20
ATOM     19  N   UNL     1       5.312   3.029  19.300  0.00  0.00    +0.000 N 
ATOM     20  C   UNL     1       5.646   4.343  19.139  0.00  0.00    +0.000 C 
ATOM     21  O   UNL     1       5.880   5.037  20.129  0.00  0.00    +0.000 OA
ATOM     22  H   UNL     1       5.191   2.706  20.255  0.00  0.00    +0.000 HD
ATOM     23  H   UNL     1       4.927   2.454  18.564  0.00  0.00    +0.000 HD
ENDBRANCH  12  20
ENDBRANCH   1  17
BRANCH   3  24
ATOM     24  C   UNL     1       1.569   8.259  21.455  0.00  0.00    +0.000 C 
ATOM     25  C   UNL     1       1.042   9.610  21.061  0.00  0.00    +0.000 C 
ATOM     26  C   UNL     1       0.167   8.678  21.846  0.00  0.00    +0.000 C 
ENDBRANCH   3  24
TORSDOF 3
ENDMDL
MODEL 4
REMARK VINA RESULT:      -7.2      2.560      5.296
REMARK  Name = 
REMARK  3 active torsions:
REMARK  status: ('A' for Active; 'I' for Inactive)
REMARK    1  A    between atoms: C_2  and  C_4
REMARK    2  A    between atoms: C_9  and  C_11
REMARK    3  A    between atoms: C_13  and  C_14
REMARK                            x       y       z     vdW  Elec       q    Type
REMARK                         _______ _______ _______ _____ _____    ______ ____
ROOT
ATOM      1  C   UNL     1       3.045   4.835  18.467  0.00  0.00    +0.000 A 
ATOM      2  C   UNL     1       3.199   4.004  19.567  0.00  0.00    +0.000 A 
ATOM      3  C   UNL     1       2.583   4.315  20.769  0.00  0.00    +0.000 A 
ATOM      4  N   UNL     1       2.026   5.532  20.943  0.00  0.00    +0.000 NA
ATOM      5  C   UNL     1       2.097   6.448  19.965  0.00  0.00    +0.000 A 
ATOM      6  C   UNL     1       1.677   7.737  20.274  0.00  0.00    +0.000 A 
ATOM      7  C   UNL     1       1.756   8.778  19.351  0.00  0.00    +0.000 A 
ATOM      8  C   UNL     1       2.224   8.508  18.079  0.00  0.00    +0.000 A 
ATOM      9  F   UNL     1       2.337   9.506  17.192  0.00  0.00    +0.000 F 
ATOM     10  C   UNL     1       2.605   7.220  17.722  0.00  0.00    +0.000 A 
ATOM     11  C   UNL     1       2.583   6.157  18.668  0.00  0.00    +0.000 A 
ENDROOT
BRANCH   1  17
ATOM     12  C   UNL     1       6.108   4.632  17.402  0.00  0.00    +0.000 C 
ATOM     13  C   UNL     1       7.039   4.971  16.220  0.00  0.00    +0.000 C 
ATOM     14  C   UNL     1       6.567   4.070  15.101  0.00  0.00    +0.000 C 
ATOM     15  C   UNL     1       5.078   3.913  15.363  0.00  0.00    +0.000 C 
ATOM     16  N   UNL     1       4.814   4.477  16.688  0.00  0.00    +0.000 N 
ATOM     17  C   UNL     1       3.498   4.305  17.147  0.00  0.00    +0.000 C 
ATOM     18  O   UNL     1       2.653   3.763  16.434  0.00  0.00    +0.000 OA
BRANCH  12  20
ATOM     19  N   UNL     1       6.912   6.892  17.970  0.00  0.00    +0.000 N 
ATOM     20  C   UNL     1       6.431   5.711  18.456  0.00  0.00    +0.000 C 
ATOM     21  O   UNL     1       6.323   5.552  19.673  0.00  0.00    +0.000 OA
ATOM     22  H   UNL     1       7.243   7.563  18.656  0.00  0.00    +0.000 HD
ATOM     23  H   UNL     1       7.205   7.026  17.012  0.00  0.00    +0.000 HD
ENDBRANCH  12  20
ENDBRANCH   1  17
BRANCH   3  24
ATOM     24  C   UNL     1       2.445   3.246  21.836  0.00  0.00    +0.000 C 
ATOM     25  C   UNL     1       1.144   2.540  22.096  0.00  0.00    +0.000 C 
ATOM     26  C   UNL     1       2.257   1.804  21.410  0.00  0.00    +0.000 C 
ENDBRANCH   3  24
TORSDOF 3
ENDMDL
MODEL 5
REMARK VINA RESULT:      -7.0      2.714      4.098
REMARK  Name = 
REMARK  3 active torsions:
REMARK  status: ('A' for Active; 'I' for Inactive)
REMARK    1  A    between atoms: C_2  and  C_4
REMARK    2  A    between atoms: C_9  and  C_11
REMARK    3  A    between atoms: C_13  and  C_14
REMARK                            x       y       z     vdW  Elec       q    Type
REMARK                         _______ _______ _______ _____ _____    ______ ____
ROOT
ATOM      1  C   UNL     1       4.471   4.798  17.248  0.00  0.00    +0.000 A 
ATOM      2  C   UNL     1       4.393   4.536  15.888  0.00  0.00    +0.000 A 
ATOM      3  C   UNL     1       5.477   3.992  15.218  0.00  0.00    +0.000 A 
ATOM      4  N   UNL     1       6.681   3.928  15.827  0.00  0.00    +0.000 NA
ATOM      5  C   UNL     1       6.832   4.421  17.066  0.00  0.00    +0.000 A 
ATOM      6  C   UNL     1       8.128   4.500  17.561  0.00  0.00    +0.000 A 
ATOM      7  C   UNL     1       8.407   5.044  18.813  0.00  0.00    +0.000 A 
ATOM      8  C   UNL     1       7.356   5.473  19.603  0.00  0.00    +0.000 A 
ATOM      9  F   UNL     1       7.611   6.028  20.795  0.00  0.00    +0.000 F 
ATOM     10  C   UNL     1       6.044   5.361  19.158  0.00  0.00    +0.000 A 
ATOM     11  C   UNL     1       5.747   4.860  17.860  0.00  0.00    +0.000 A 
ENDROOT
BRANCH   1  17
ATOM     12  C   UNL     1       3.126   3.123  19.686  0.00  0.00    +0.000 C 
ATOM     13  C   UNL     1       1.817   2.467  20.171  0.00  0.00    +0.000 C 
ATOM     14  C   UNL     1       0.887   3.632  20.429  0.00  0.00    +0.000 C 
ATOM     15  C   UNL     1       1.325   4.678  19.416  0.00  0.00    +0.000 C 
ATOM     16  N   UNL     1       2.581   4.208  18.829  0.00  0.00    +0.000 N 
ATOM     17  C   UNL     1       3.196   5.118  17.953  0.00  0.00    +0.000 C 
ATOM     18  O   UNL     1       2.657   6.193  17.689  0.00  0.00    +0.000 OA
BRANCH  12  20
ATOM     19  N   UNL     1       5.123   1.694  19.910  0.00  0.00    +0.000 N 
ATOM     20  C   UNL     1       3.982   1.937  19.199  0.00  0.00    +0.000 C 
ATOM     21  O   UNL     1       3.724   1.248  18.211  0.00  0.00    +0.000 OA
ATOM     22  H   UNL     1       5.755   0.998  19.529  0.00  0.00    +0.000 HD
ATOM     23  H   UNL     1       5.494   2.327  20.606  0.00  0.00    +0.000 HD
ENDBRANCH  12  20
ENDBRANCH   1  17
BRANCH   3  24
ATOM     24  C   UNL     1       5.274   3.372  13.848  0.00  0.00    +0.000 C 
ATOM     25  C   UNL     1       4.974   4.204  12.632  0.00  0.00    +0.000 C 
ATOM     26  C   UNL     1       6.331   3.583  12.783  0.00  0.00    +0.000 C 
ENDBRANCH   3  24
TORSDOF 3
ENDMDL
MODEL 6
REMARK VINA RESULT:      -7.0      1.778      4.228
REMARK  Name = 
REMARK  3 active torsions:
REMARK  status: ('A' for Active; 'I' for Inactive)
REMARK    1  A    between atoms: C_2  and  C_4
REMARK    2  A    between atoms: C_9  and  C_11
REMARK    3  A    between atoms: C_13  and  C_14
REMARK                            x       y       z     vdW  Elec       q    Type
REMARK                         _______ _______ _______ _____ _____    ______ ____
ROOT
ATOM      1  C   UNL     1       3.388   5.381  17.613  0.00  0.00    +0.000 A 
ATOM      2  C   UNL     1       2.518   6.434  17.859  0.00  0.00    +0.000 A 
ATOM      3  C   UNL     1       2.927   7.742  17.650  0.00  0.00    +0.000 A 
ATOM      4  N   UNL     1       4.232   8.010  17.431  0.00  0.00    +0.000 NA
ATOM      5  C   UNL     1       5.133   7.016  17.448  0.00  0.00    +0.000 A 
ATOM      6  C   UNL     1       6.474   7.378  17.407  0.00  0.00    +0.000 A 
ATOM      7  C   UNL     1       7.495   6.432  17.472  0.00  0.00    +0.000 A 
ATOM      8  C   UNL     1       7.160   5.092  17.532  0.00  0.00    +0.000 A 
ATOM      9  F   UNL     1       8.130   4.173  17.628  0.00  0.00    +0.000 F 
ATOM     10  C   UNL     1       5.828   4.694  17.523  0.00  0.00    +0.000 A 
ATOM     11  C   UNL     1       4.774   5.650  17.513  0.00  0.00    +0.000 A 
ENDROOT
BRANCH   1  17
ATOM     12  C   UNL     1       1.316   4.115  19.772  0.00  0.00    +0.000 C 
ATOM     13  C   UNL     1       1.059   2.897  20.683  0.00  0.00    +0.000 C 
ATOM     14  C   UNL     1       0.786   1.762  19.722  0.00  0.00    +0.000 C 
ATOM     15  C   UNL     1       1.623   2.109  18.500  0.00  0.00    +0.000 C 
ATOM     16  N   UNL     1       2.108   3.477  18.689  0.00  0.00    +0.000 N 
ATOM     17  C   UNL     1       2.804   4.008  17.590  0.00  0.00    +0.000 C 
ATOM     18  O   UNL     1       3.010   3.322  16.589  0.00  0.00    +0.000 OA
BRANCH  12  20
ATOM     19  N   UNL     1       2.831   4.828  21.582  0.00  0.00    +0.000 N 
ATOM     20  C   UNL     1       1.827   5.204  20.737  0.00  0.00    +0.000 C 
ATOM     21  O   UNL     1       1.362   6.343  20.814  0.00  0.00    +0.000 OA
ATOM     22  H   UNL     1       3.091   5.495  22.302  0.00  0.00    +0.000 HD
ATOM     23  H   UNL     1       3.128   3.870  21.708  0.00  0.00    +0.000 HD
ENDBRANCH  12  20
ENDBRANCH   1  17
BRANCH   3  24
ATOM     24  C   UNL     1       1.889   8.844  17.561  0.00  0.00    +0.000 C 
ATOM     25  C   UNL     1       1.175   9.369  18.775  0.00  0.00    +0.000 C 
ATOM     26  C   UNL     1       2.223  10.214  18.114  0.00  0.00    +0.000 C 
ENDBRANCH   3  24
TORSDOF 3
ENDMDL
MODEL 7
REMARK VINA RESULT:      -7.0      2.329      5.209
REMARK  Name = 
REMARK  3 active torsions:
REMARK  status: ('A' for Active; 'I' for Inactive)
REMARK    1  A    between atoms: C_2  and  C_4
REMARK    2  A    between atoms: C_9  and  C_11
REMARK    3  A    between atoms: C_13  and  C_14
REMARK                            x       y       z     vdW  Elec       q    Type
REMARK                         _______ _______ _______ _____ _____    ______ ____
ROOT
ATOM      1  C   UNL     1       4.049   6.319  18.474  0.00  0.00    +0.000 A 
ATOM      2  C   UNL     1       4.071   5.309  19.425  0.00  0.00    +0.000 A 
ATOM      3  C   UNL     1       2.964   5.084  20.229  0.00  0.00    +0.000 A 
ATOM      4  N   UNL     1       1.957   5.982  20.253  0.00  0.00    +0.000 NA
ATOM      5  C   UNL     1       2.043   7.105  19.523  0.00  0.00    +0.000 A 
ATOM      6  C   UNL     1       1.068   8.073  19.736  0.00  0.00    +0.000 A 
ATOM      7  C   UNL     1       1.090   9.298  19.072  0.00  0.00    +0.000 A 
ATOM      8  C   UNL     1       2.084   9.535  18.141  0.00  0.00    +0.000 A 
ATOM      9  F   UNL     1       2.137  10.721  17.519  0.00  0.00    +0.000 F 
ATOM     10  C   UNL     1       3.044   8.568  17.868  0.00  0.00    +0.000 A 
ATOM     11  C   UNL     1       3.069   7.334  18.577  0.00  0.00    +0.000 A 
ENDROOT
BRANCH   1  17
ATOM     12  C   UNL     1       4.500   4.180  16.069  0.00  0.00    +0.000 C 
ATOM     13  C   UNL     1       5.539   3.251  15.409  0.00  0.00    +0.000 C 
ATOM     14  C   UNL     1       6.544   4.195  14.788  0.00  0.00    +0.000 C 
ATOM     15  C   UNL     1       6.526   5.404  15.709  0.00  0.00    +0.000 C 
ATOM     16  N   UNL     1       5.392   5.233  16.619  0.00  0.00    +0.000 N 
ATOM     17  C   UNL     1       5.151   6.327  17.467  0.00  0.00    +0.000 C 
ATOM     18  O   UNL     1       5.893   7.309  17.447  0.00  0.00    +0.000 OA
BRANCH  12  20
ATOM     19  N   UNL     1       4.281   2.274  17.618  0.00  0.00    +0.000 N 
ATOM     20  C   UNL     1       3.617   3.226  16.899  0.00  0.00    +0.000 C 
ATOM     21  O   UNL     1       2.385   3.248  16.912  0.00  0.00    +0.000 OA
ATOM     22  H   UNL     1       3.711   1.567  18.070  0.00  0.00    +0.000 HD
ATOM     23  H   UNL     1       5.266   2.075  17.508  0.00  0.00    +0.000 HD
ENDBRANCH  12  20
ENDBRANCH   1  17
BRANCH   3  24
ATOM     24  C   UNL     1       2.848   3.777  20.990  0.00  0.00    +0.000 C 
ATOM     25  C   UNL     1       1.549   3.312  21.586  0.00  0.00    +0.000 C 
ATOM     26  C   UNL     1       2.085   2.628  20.364  0.00  0.00    +0.000 C 
ENDBRANCH   3  24
TORSDOF 3
ENDMDL
MODEL 8
REMARK VINA RESULT:      -6.9      6.215      8.806
REMARK  Name = 
REMARK  3 active torsions:
REMARK  status: ('A' for Active; 'I' for Inactive)
REMARK    1  A    between atoms: C_2  and  C_4
REMARK    2  A    between atoms: C_9  and  C_11
REMARK    3  A    between atoms: C_13  and  C_14
REMARK                            x       y       z     vdW  Elec       q    Type
REMARK                         _______ _______ _______ _____ _____    ______ ____
ROOT
ATOM      1  C   UNL     1      -1.447  12.394  20.516  0.00  0.00    +0.000 A 
ATOM      2  C   UNL     1      -1.021  11.137  20.918  0.00  0.00    +0.000 A 
ATOM      3  C   UNL     1       0.302  10.930  21.276  0.00  0.00    +0.000 A 
ATOM      4  N   UNL     1       1.225  11.882  21.020  0.00  0.00    +0.000 NA
ATOM      5  C   UNL     1       0.866  13.011  20.391  0.00  0.00    +0.000 A 
ATOM      6  C   UNL     1       1.888  13.862  19.987  0.00  0.00    +0.000 A 
ATOM      7  C   UNL     1       1.633  15.036  19.279  0.00  0.00    +0.000 A 
ATOM      8  C   UNL     1       0.322  15.383  19.014  0.00  0.00    +0.000 A 
ATOM      9  F   UNL     1       0.063  16.491  18.306  0.00  0.00    +0.000 F 
ATOM     10  C   UNL     1      -0.726  14.580  19.448  0.00  0.00    +0.000 A 
ATOM     11  C   UNL     1      -0.481  13.351  20.123  0.00  0.00    +0.000 A 
ENDROOT
BRANCH   1  17
ATOM     12  C   UNL     1      -3.432  11.204  18.235  0.00  0.00    +0.000 C 
ATOM     13  C   UNL     1      -4.528  11.583  17.219  0.00  0.00    +0.000 C 
ATOM     14  C   UNL     1      -5.711  11.977  18.075  0.00  0.00    +0.000 C 
ATOM     15  C   UNL     1      -5.077  12.556  19.329  0.00  0.00    +0.000 C 
ATOM     16  N   UNL     1      -3.647  12.252  19.266  0.00  0.00    +0.000 N 
ATOM     17  C   UNL     1      -2.920  12.611  20.413  0.00  0.00    +0.000 C 
ATOM     18  O   UNL     1      -3.476  13.182  21.352  0.00  0.00    +0.000 OA
BRANCH  12  20
ATOM     19  N   UNL     1      -1.628  12.188  16.873  0.00  0.00    +0.000 N 
ATOM     20  C   UNL     1      -2.163  11.036  17.374  0.00  0.00    +0.000 C 
ATOM     21  O   UNL     1      -1.652   9.953  17.087  0.00  0.00    +0.000 OA
ATOM     22  H   UNL     1      -0.869  12.082  16.208  0.00  0.00    +0.000 HD
ATOM     23  H   UNL     1      -2.095  13.083  16.906  0.00  0.00    +0.000 HD
ENDBRANCH  12  20
ENDBRANCH   1  17
BRANCH   3  24
ATOM     24  C   UNL     1       0.679   9.682  22.052  0.00  0.00    +0.000 C 
ATOM     25  C   UNL     1      -0.165   8.438  22.023  0.00  0.00    +0.000 C 
ATOM     26  C   UNL     1       1.145   8.457  21.292  0.00  0.00    +0.000 C 
ENDBRANCH   3  24
TORSDOF 3
ENDMDL
MODEL 9
REMARK VINA RESULT:      -6.8      1.869      4.665
REMARK  Name = 
REMARK  3 active torsions:
REMARK  status: ('A' for Active; 'I' for Inactive)
REMARK    1  A    between atoms: C_2  and  C_4
REMARK    2  A    between atoms: C_9  and  C_11
REMARK    3  A    between atoms: C_13  and  C_14
REMARK                            x       y       z     vdW  Elec       q    Type
REMARK                         _______ _______ _______ _____ _____    ______ ____
ROOT
ATOM      1  C   UNL     1       2.871   6.426  19.315  0.00  0.00    +0.000 A 
ATOM      2  C   UNL     1       2.162   7.611  19.186  0.00  0.00    +0.000 A 
ATOM      3  C   UNL     1       2.318   8.398  18.056  0.00  0.00    +0.000 A 
ATOM      4  N   UNL     1       3.319   8.138  17.188  0.00  0.00    +0.000 NA
ATOM      5  C   UNL     1       4.180   7.141  17.438  0.00  0.00    +0.000 A 
ATOM      6  C   UNL     1       5.295   7.046  16.613  0.00  0.00    +0.000 A 
ATOM      7  C   UNL     1       6.281   6.082  16.814  0.00  0.00    +0.000 A 
ATOM      8  C   UNL     1       6.118   5.165  17.836  0.00  0.00    +0.000 A 
ATOM      9  F   UNL     1       7.073   4.253  18.061  0.00  0.00    +0.000 F 
ATOM     10  C   UNL     1       4.990   5.200  18.647  0.00  0.00    +0.000 A 
ATOM     11  C   UNL     1       4.002   6.213  18.491  0.00  0.00    +0.000 A 
ENDROOT
BRANCH   1  17
ATOM     12  C   UNL     1       2.173   3.265  19.029  0.00  0.00    +0.000 C 
ATOM     13  C   UNL     1       1.122   2.188  19.366  0.00  0.00    +0.000 C 
ATOM     14  C   UNL     1       1.186   2.061  20.872  0.00  0.00    +0.000 C 
ATOM     15  C   UNL     1       1.572   3.455  21.339  0.00  0.00    +0.000 C 
ATOM     16  N   UNL     1       1.950   4.217  20.148  0.00  0.00    +0.000 N 
ATOM     17  C   UNL     1       2.456   5.501  20.410  0.00  0.00    +0.000 C 
ATOM     18  O   UNL     1       2.509   5.929  21.563  0.00  0.00    +0.000 OA
BRANCH  12  20
ATOM     19  N   UNL     1       2.914   3.132  16.681  0.00  0.00    +0.000 N 
ATOM     20  C   UNL     1       1.939   3.563  17.535  0.00  0.00    +0.000 C 
ATOM     21  O   UNL     1       0.975   4.188  17.090  0.00  0.00    +0.000 OA
ATOM     22  H   UNL     1       2.833   3.427  15.714  0.00  0.00    +0.000 HD
ATOM     23  H   UNL     1       3.814   2.787  16.987  0.00  0.00    +0.000 HD
ENDBRANCH  12  20
ENDBRANCH   1  17
BRANCH   3  24
ATOM     24  C   UNL     1       1.293   9.474  17.749  0.00  0.00    +0.000 C 
ATOM     25  C   UNL     1       0.298   9.945  18.773  0.00  0.00    +0.000 C 
ATOM     26  C   UNL     1       1.443  10.836  18.395  0.00  0.00    +0.000 C 
ENDBRANCH   3  24
TORSDOF 3
ENDMDL
