MODEL 1
REMARK VINA RESULT:      -9.1      0.000      0.000
REMARK  Name = 
REMARK  5 active torsions:
REMARK  status: ('A' for Active; 'I' for Inactive)
REMARK    1  A    between atoms: C_1  and  C_2
REMARK    2  A    between atoms: C_2  and  C_3
REMARK    3  A    between atoms: C_3  and  C_4
REMARK    4  A    between atoms: C_6  and  N_7
REMARK    5  A    between atoms: C_11  and  C_12
REMARK                            x       y       z     vdW  Elec       q    Type
REMARK                         _______ _______ _______ _____ _____    ______ ____
ROOT
ATOM      1  N   UNL     1       4.178   4.757  18.200  0.00  0.00    +0.000 N 
ATOM      2  C   UNL     1       3.221   3.873  17.506  0.00  0.00    +0.000 C 
ATOM      3  C   UNL     1       1.768   4.274  17.814  0.00  0.00    +0.000 C 
ATOM      4  O   UNL     1       1.495   4.492  19.210  0.00  0.00    +0.000 OA
ATOM      5  C   UNL     1       2.430   5.411  19.829  0.00  0.00    +0.000 C 
ATOM      6  C   UNL     1       3.865   4.857  19.641  0.00  0.00    +0.000 C 
ENDROOT
BRANCH   1   9
ATOM      7  C   UNL     1       7.359   6.673  17.545  0.00  0.00    +0.000 A 
ATOM      8  C   UNL     1       6.134   6.184  18.245  0.00  0.00    +0.000 A 
ATOM      9  C   UNL     1       5.346   5.292  17.612  0.00  0.00    +0.000 A 
ATOM     10  N   UNL     1       5.722   4.942  16.285  0.00  0.00    +0.000 N 
ATOM     11  N   UNL     1       5.087   4.149  15.371  0.00  0.00    +0.000 NA
ATOM     12  C   UNL     1       5.884   4.246  14.309  0.00  0.00    +0.000 A 
ATOM     13  N   UNL     1       6.986   5.020  14.454  0.00  0.00    +0.000 NA
ATOM     14  C   UNL     1       6.884   5.470  15.688  0.00  0.00    +0.000 A 
ATOM     15  N   UNL     1       7.720   6.323  16.345  0.00  0.00    +0.000 NA
BRANCH   7  16
ATOM     16  C   UNL     1       8.243   7.634  18.318  0.00  0.00    +0.000 C 
BRANCH  16  18
ATOM     17  C   UNL     1       8.969  10.048  18.623  0.00  0.00    +0.000 C 
ATOM     18  C   UNL     1       8.077   9.081  17.859  0.00  0.00    +0.000 C 
ENDBRANCH  16  18
ENDBRANCH   7  16
ENDBRANCH   1   9
BRANCH   5  19
ATOM     19  C   UNL     1       2.171   6.867  19.453  0.00  0.00    +0.000 A 
ATOM     20  C   UNL     1       2.425   7.306  18.139  0.00  0.00    +0.000 A 
ATOM     21  C   UNL     1       2.111   8.610  17.737  0.00  0.00    +0.000 A 
ATOM     22  C   UNL     1       1.523   9.499  18.632  0.00  0.00    +0.000 A 
ATOM     23  C   UNL     1       1.262   9.086  19.933  0.00  0.00    +0.000 A 
ATOM     24  C   UNL     1       1.579   7.787  20.329  0.00  0.00    +0.000 A 
ATOM     25  F   UNL     1       1.255   7.445  21.583  0.00  0.00    +0.000 F 
ENDBRANCH   5  19
TORSDOF 4
ENDMDL
MODEL 2
REMARK VINA RESULT:      -9.0      1.259      3.558
REMARK  Name = 
REMARK  5 active torsions:
REMARK  status: ('A' for Active; 'I' for Inactive)
REMARK    1  A    between atoms: C_1  and  C_2
REMARK    2  A    between atoms: C_2  and  C_3
REMARK    3  A    between atoms: C_3  and  C_4
REMARK    4  A    between atoms: C_6  and  N_7
REMARK    5  A    between atoms: C_11  and  C_12
REMARK                            x       y       z     vdW  Elec       q    Type
REMARK                         _______ _______ _______ _____ _____    ______ ____
ROOT
ATOM      1  N   UNL     1       4.124   4.058  17.738  0.00  0.00    +0.000 N 
ATOM      2  C   UNL     1       2.973   3.197  17.399  0.00  0.00    +0.000 C 
ATOM      3  C   UNL     1       1.676   3.724  18.036  0.00  0.00    +0.000 C 
ATOM      4  O   UNL     1       1.794   4.065  19.430  0.00  0.00    +0.000 OA
ATOM      5  C   UNL     1       2.905   4.957  19.699  0.00  0.00    +0.000 C 
ATOM      6  C   UNL     1       4.208   4.287  19.196  0.00  0.00    +0.000 C 
ENDROOT
BRANCH   1   9
ATOM      7  C   UNL     1       6.296   4.448  14.681  0.00  0.00    +0.000 A 
ATOM      8  C   UNL     1       5.221   3.938  15.584  0.00  0.00    +0.000 A 
ATOM      9  C   UNL     1       5.120   4.462  16.821  0.00  0.00    +0.000 A 
ATOM     10  N   UNL     1       6.104   5.423  17.186  0.00  0.00    +0.000 N 
ATOM     11  N   UNL     1       6.317   6.054  18.380  0.00  0.00    +0.000 NA
ATOM     12  C   UNL     1       7.400   6.784  18.125  0.00  0.00    +0.000 A 
ATOM     13  N   UNL     1       7.904   6.694  16.871  0.00  0.00    +0.000 NA
ATOM     14  C   UNL     1       7.102   5.832  16.280  0.00  0.00    +0.000 A 
ATOM     15  N   UNL     1       7.172   5.353  15.005  0.00  0.00    +0.000 NA
BRANCH   7  16
ATOM     16  C   UNL     1       6.336   3.867  13.279  0.00  0.00    +0.000 C 
BRANCH  16  18
ATOM     17  C   UNL     1       4.936   2.736  11.489  0.00  0.00    +0.000 C 
ATOM     18  C   UNL     1       4.943   3.677  12.684  0.00  0.00    +0.000 C 
ENDBRANCH  16  18
ENDBRANCH   7  16
ENDBRANCH   1   9
BRANCH   5  19
ATOM     19  C   UNL     1       2.630   6.395  19.272  0.00  0.00    +0.000 A 
ATOM     20  C   UNL     1       3.032   6.837  17.997  0.00  0.00    +0.000 A 
ATOM     21  C   UNL     1       2.713   8.121  17.540  0.00  0.00    +0.000 A 
ATOM     22  C   UNL     1       1.972   8.987  18.338  0.00  0.00    +0.000 A 
ATOM     23  C   UNL     1       1.563   8.572  19.600  0.00  0.00    +0.000 A 
ATOM     24  C   UNL     1       1.886   7.293  20.051  0.00  0.00    +0.000 A 
ATOM     25  F   UNL     1       1.417   6.944  21.257  0.00  0.00    +0.000 F 
ENDBRANCH   5  19
TORSDOF 4
ENDMDL
MODEL 3
REMARK VINA RESULT:      -9.0      1.642      3.353
REMARK  Name = 
REMARK  5 active torsions:
REMARK  status: ('A' for Active; 'I' for Inactive)
REMARK    1  A    between atoms: C_1  and  C_2
REMARK    2  A    between atoms: C_2  and  C_3
REMARK    3  A    between atoms: C_3  and  C_4
REMARK    4  A    between atoms: C_6  and  N_7
REMARK    5  A    between atoms: C_11  and  C_12
REMARK                            x       y       z     vdW  Elec       q    Type
REMARK                         _______ _______ _______ _____ _____    ______ ____
ROOT
ATOM      1  N   UNL     1       3.883   4.209  18.240  0.00  0.00    +0.000 N 
ATOM      2  C   UNL     1       2.797   3.418  17.628  0.00  0.00    +0.000 C 
ATOM      3  C   UNL     1       1.418   4.015  17.958  0.00  0.00    +0.000 C 
ATOM      4  O   UNL     1       1.229   4.339  19.348  0.00  0.00    +0.000 OA
ATOM      5  C   UNL     1       2.295   5.163  19.884  0.00  0.00    +0.000 C 
ATOM      6  C   UNL     1       3.641   4.423  19.682  0.00  0.00    +0.000 C 
ENDROOT
BRANCH   1   9
ATOM      7  C   UNL     1       6.561   4.827  15.659  0.00  0.00    +0.000 A 
ATOM      8  C   UNL     1       5.260   4.404  16.259  0.00  0.00    +0.000 A 
ATOM      9  C   UNL     1       5.085   4.561  17.586  0.00  0.00    +0.000 A 
ATOM     10  N   UNL     1       6.197   5.063  18.318  0.00  0.00    +0.000 N 
ATOM     11  N   UNL     1       6.354   5.243  19.664  0.00  0.00    +0.000 NA
ATOM     12  C   UNL     1       7.609   5.681  19.746  0.00  0.00    +0.000 A 
ATOM     13  N   UNL     1       8.276   5.815  18.575  0.00  0.00    +0.000 NA
ATOM     14  C   UNL     1       7.400   5.416  17.676  0.00  0.00    +0.000 A 
ATOM     15  N   UNL     1       7.563   5.320  16.326  0.00  0.00    +0.000 NA
BRANCH   7  16
ATOM     16  C   UNL     1       6.692   4.681  14.153  0.00  0.00    +0.000 C 
BRANCH  16  18
ATOM     17  C   UNL     1       6.016   3.249  12.169  0.00  0.00    +0.000 C 
ATOM     18  C   UNL     1       5.650   3.733  13.565  0.00  0.00    +0.000 C 
ENDBRANCH  16  18
ENDBRANCH   7  16
ENDBRANCH   1   9
BRANCH   5  19
ATOM     19  C   UNL     1       2.205   6.618  19.435  0.00  0.00    +0.000 A 
ATOM     20  C   UNL     1       2.609   6.976  18.134  0.00  0.00    +0.000 A 
ATOM     21  C   UNL     1       2.453   8.284  17.660  0.00  0.00    +0.000 A 
ATOM     22  C   UNL     1       1.875   9.259  18.467  0.00  0.00    +0.000 A 
ATOM     23  C   UNL     1       1.468   8.928  19.754  0.00  0.00    +0.000 A 
ATOM     24  C   UNL     1       1.628   7.625  20.222  0.00  0.00    +0.000 A 
ATOM     25  F   UNL     1       1.168   7.367  21.453  0.00  0.00    +0.000 F 
ENDBRANCH   5  19
TORSDOF 4
ENDMDL
MODEL 4
REMARK VINA RESULT:      -8.4      1.433      1.801
REMARK  Name = 
REMARK  5 active torsions:
REMARK  status: ('A' for Active; 'I' for Inactive)
REMARK    1  A    between atoms: C_1  and  C_2
REMARK    2  A    between atoms: C_2  and  C_3
REMARK    3  A    between atoms: C_3  and  C_4
REMARK    4  A    between atoms: C_6  and  N_7
REMARK    5  A    between atoms: C_11  and  C_12
REMARK                            x       y       z     vdW  Elec       q    Type
REMARK                         _______ _______ _______ _____ _____    ______ ____
ROOT
ATOM      1  N   UNL     1       4.873   3.509  17.942  0.00  0.00    +0.000 N 
ATOM      2  C   UNL     1       3.948   2.684  17.140  0.00  0.00    +0.000 C 
ATOM      3  C   UNL     1       2.543   2.649  17.768  0.00  0.00    +0.000 C 
ATOM      4  O   UNL     1       2.532   2.380  19.182  0.00  0.00    +0.000 OA
ATOM      5  C   UNL     1       3.414   3.254  19.929  0.00  0.00    +0.000 C 
ATOM      6  C   UNL     1       4.850   3.107  19.364  0.00  0.00    +0.000 C 
ENDROOT
BRANCH   1   9
ATOM      7  C   UNL     1       7.343   6.320  17.483  0.00  0.00    +0.000 A 
ATOM      8  C   UNL     1       6.364   5.404  18.143  0.00  0.00    +0.000 A 
ATOM      9  C   UNL     1       5.793   4.434  17.403  0.00  0.00    +0.000 A 
ATOM     10  N   UNL     1       6.128   4.411  16.019  0.00  0.00    +0.000 N 
ATOM     11  N   UNL     1       5.650   3.620  15.013  0.00  0.00    +0.000 NA
ATOM     12  C   UNL     1       6.291   4.099  13.948  0.00  0.00    +0.000 A 
ATOM     13  N   UNL     1       7.151   5.121  14.174  0.00  0.00    +0.000 NA
ATOM     14  C   UNL     1       7.044   5.330  15.471  0.00  0.00    +0.000 A 
ATOM     15  N   UNL     1       7.674   6.273  16.226  0.00  0.00    +0.000 NA
BRANCH   7  16
ATOM     16  C   UNL     1       8.001   7.362  18.370  0.00  0.00    +0.000 C 
BRANCH  16  18
ATOM     17  C   UNL     1       8.777   9.771  18.565  0.00  0.00    +0.000 C 
ATOM     18  C   UNL     1       8.032   8.745  17.724  0.00  0.00    +0.000 C 
ENDBRANCH  16  18
ENDBRANCH   7  16
ENDBRANCH   1   9
BRANCH   5  19
ATOM     19  C   UNL     1       2.853   4.664  20.096  0.00  0.00    +0.000 A 
ATOM     20  C   UNL     1       3.474   5.746  19.443  0.00  0.00    +0.000 A 
ATOM     21  C   UNL     1       2.931   7.036  19.501  0.00  0.00    +0.000 A 
ATOM     22  C   UNL     1       1.749   7.270  20.197  0.00  0.00    +0.000 A 
ATOM     23  C   UNL     1       1.119   6.215  20.848  0.00  0.00    +0.000 A 
ATOM     24  C   UNL     1       1.666   4.934  20.789  0.00  0.00    +0.000 A 
ATOM     25  F   UNL     1       0.978   3.959  21.399  0.00  0.00    +0.000 F 
ENDBRANCH   5  19
TORSDOF 4
ENDMDL
MODEL 5
REMARK VINA RESULT:      -8.3      2.107      3.844
REMARK  Name = 
REMARK  5 active torsions:
REMARK  status: ('A' for Active; 'I' for Inactive)
REMARK    1  A    between atoms: C_1  and  C_2
REMARK    2  A    between atoms: C_2  and  C_3
REMARK    3  A    between atoms: C_3  and  C_4
REMARK    4  A    between atoms: C_6  and  N_7
REMARK    5  A    between atoms: C_11  and  C_12
REMARK                            x       y       z     vdW  Elec       q    Type
REMARK                         _______ _______ _______ _____ _____    ______ ____
ROOT
ATOM      1  N   UNL     1       4.580   3.069  17.860  0.00  0.00    +0.000 N 
ATOM      2  C   UNL     1       3.550   2.216  17.236  0.00  0.00    +0.000 C 
ATOM      3  C   UNL     1       2.221   2.292  18.007  0.00  0.00    +0.000 C 
ATOM      4  O   UNL     1       2.353   2.146  19.434  0.00  0.00    +0.000 OA
ATOM      5  C   UNL     1       3.337   3.046  20.002  0.00  0.00    +0.000 C 
ATOM      6  C   UNL     1       4.698   2.793  19.306  0.00  0.00    +0.000 C 
ENDROOT
BRANCH   1   9
ATOM      7  C   UNL     1       6.492   4.846  15.138  0.00  0.00    +0.000 A 
ATOM      8  C   UNL     1       5.539   3.905  15.800  0.00  0.00    +0.000 A 
ATOM      9  C   UNL     1       5.465   3.907  17.146  0.00  0.00    +0.000 A 
ATOM     10  N   UNL     1       6.365   4.772  17.830  0.00  0.00    +0.000 N 
ATOM     11  N   UNL     1       6.589   4.928  19.169  0.00  0.00    +0.000 NA
ATOM     12  C   UNL     1       7.571   5.826  19.189  0.00  0.00    +0.000 A 
ATOM     13  N   UNL     1       7.997   6.279  17.986  0.00  0.00    +0.000 NA
ATOM     14  C   UNL     1       7.253   5.611  17.127  0.00  0.00    +0.000 A 
ATOM     15  N   UNL     1       7.288   5.661  15.766  0.00  0.00    +0.000 NA
BRANCH   7  16
ATOM     16  C   UNL     1       6.501   4.845  13.620  0.00  0.00    +0.000 C 
BRANCH  16  18
ATOM     17  C   UNL     1       5.084   3.449  12.043  0.00  0.00    +0.000 C 
ATOM     18  C   UNL     1       6.239   3.460  13.034  0.00  0.00    +0.000 C 
ENDBRANCH  16  18
ENDBRANCH   7  16
ENDBRANCH   1   9
BRANCH   5  19
ATOM     19  C   UNL     1       2.841   4.486  20.099  0.00  0.00    +0.000 A 
ATOM     20  C   UNL     1       3.463   5.494  19.338  0.00  0.00    +0.000 A 
ATOM     21  C   UNL     1       2.974   6.806  19.333  0.00  0.00    +0.000 A 
ATOM     22  C   UNL     1       1.844   7.137  20.075  0.00  0.00    +0.000 A 
ATOM     23  C   UNL     1       1.213   6.157  20.833  0.00  0.00    +0.000 A 
ATOM     24  C   UNL     1       1.706   4.853  20.836  0.00  0.00    +0.000 A 
ATOM     25  F   UNL     1       1.019   3.952  21.549  0.00  0.00    +0.000 F 
ENDBRANCH   5  19
TORSDOF 4
ENDMDL
MODEL 6
REMARK VINA RESULT:      -8.2      2.254      4.714
REMARK  Name = 
REMARK  5 active torsions:
REMARK  status: ('A' for Active; 'I' for Inactive)
REMARK    1  A    between atoms: C_1  and  C_2
REMARK    2  A    between atoms: C_2  and  C_3
REMARK    3  A    between atoms: C_3  and  C_4
REMARK    4  A    between atoms: C_6  and  N_7
REMARK    5  A    between atoms: C_11  and  C_12
REMARK                            x       y       z     vdW  Elec       q    Type
REMARK                         _______ _______ _______ _____ _____    ______ ____
ROOT
ATOM      1  N   UNL     1       3.671   5.603  17.620  0.00  0.00    +0.000 N 
ATOM      2  C   UNL     1       3.243   6.830  18.320  0.00  0.00    +0.000 C 
ATOM      3  C   UNL     1       2.328   6.501  19.513  0.00  0.00    +0.000 C 
ATOM      4  O   UNL     1       1.272   5.570  19.212  0.00  0.00    +0.000 OA
ATOM      5  C   UNL     1       1.754   4.359  18.576  0.00  0.00    +0.000 C 
ATOM      6  C   UNL     1       2.513   4.749  17.283  0.00  0.00    +0.000 C 
ENDROOT
BRANCH   1   9
ATOM      7  C   UNL     1       6.696   4.863  15.495  0.00  0.00    +0.000 A 
ATOM      8  C   UNL     1       5.270   5.086  15.877  0.00  0.00    +0.000 A 
ATOM      9  C   UNL     1       4.986   5.357  17.167  0.00  0.00    +0.000 A 
ATOM     10  N   UNL     1       6.082   5.339  18.075  0.00  0.00    +0.000 N 
ATOM     11  N   UNL     1       6.099   5.483  19.434  0.00  0.00    +0.000 NA
ATOM     12  C   UNL     1       7.389   5.319  19.719  0.00  0.00    +0.000 A 
ATOM     13  N   UNL     1       8.213   5.096  18.668  0.00  0.00    +0.000 NA
ATOM     14  C   UNL     1       7.397   5.094  17.634  0.00  0.00    +0.000 A 
ATOM     15  N   UNL     1       7.700   4.883  16.322  0.00  0.00    +0.000 NA
BRANCH   7  16
ATOM     16  C   UNL     1       6.972   4.615  14.023  0.00  0.00    +0.000 C 
BRANCH  16  18
ATOM     17  C   UNL     1       6.294   3.302  11.958  0.00  0.00    +0.000 C 
ATOM     18  C   UNL     1       5.920   3.719  13.373  0.00  0.00    +0.000 C 
ENDBRANCH  16  18
ENDBRANCH   7  16
ENDBRANCH   1   9
BRANCH   5  19
ATOM     19  C   UNL     1       2.443   3.409  19.552  0.00  0.00    +0.000 A 
ATOM     20  C   UNL     1       3.695   2.855  19.222  0.00  0.00    +0.000 A 
ATOM     21  C   UNL     1       4.396   2.054  20.132  0.00  0.00    +0.000 A 
ATOM     22  C   UNL     1       3.871   1.803  21.397  0.00  0.00    +0.000 A 
ATOM     23  C   UNL     1       2.637   2.343  21.744  0.00  0.00    +0.000 A 
ATOM     24  C   UNL     1       1.942   3.136  20.832  0.00  0.00    +0.000 A 
ATOM     25  F   UNL     1       0.784   3.661  21.253  0.00  0.00    +0.000 F 
ENDBRANCH   5  19
TORSDOF 4
ENDMDL
MODEL 7
REMARK VINA RESULT:      -7.9      2.469      4.798
REMARK  Name = 
REMARK  5 active torsions:
REMARK  status: ('A' for Active; 'I' for Inactive)
REMARK    1  A    between atoms: C_1  and  C_2
REMARK    2  A    between atoms: C_2  and  C_3
REMARK    3  A    between atoms: C_3  and  C_4
REMARK    4  A    between atoms: C_6  and  N_7
REMARK    5  A    between atoms: C_11  and  C_12
REMARK                            x       y       z     vdW  Elec       q    Type
REMARK                         _______ _______ _______ _____ _____    ______ ____
ROOT
ATOM      1  N   UNL     1       3.758   5.951  17.557  0.00  0.00    +0.000 N 
ATOM      2  C   UNL     1       3.459   7.264  18.163  0.00  0.00    +0.000 C 
ATOM      3  C   UNL     1       2.501   7.121  19.358  0.00  0.00    +0.000 C 
ATOM      4  O   UNL     1       1.352   6.291  19.103  0.00  0.00    +0.000 OA
ATOM      5  C   UNL     1       1.705   4.994  18.560  0.00  0.00    +0.000 C 
ATOM      6  C   UNL     1       2.517   5.207  17.258  0.00  0.00    +0.000 C 
ENDROOT
BRANCH   1   9
ATOM      7  C   UNL     1       6.721   4.797  15.532  0.00  0.00    +0.000 A 
ATOM      8  C   UNL     1       5.325   5.206  15.869  0.00  0.00    +0.000 A 
ATOM      9  C   UNL     1       5.042   5.533  17.145  0.00  0.00    +0.000 A 
ATOM     10  N   UNL     1       6.102   5.391  18.086  0.00  0.00    +0.000 N 
ATOM     11  N   UNL     1       6.100   5.554  19.443  0.00  0.00    +0.000 NA
ATOM     12  C   UNL     1       7.350   5.233  19.768  0.00  0.00    +0.000 A 
ATOM     13  N   UNL     1       8.168   4.889  18.745  0.00  0.00    +0.000 NA
ATOM     14  C   UNL     1       7.387   4.973  17.687  0.00  0.00    +0.000 A 
ATOM     15  N   UNL     1       7.696   4.703  16.388  0.00  0.00    +0.000 NA
BRANCH   7  16
ATOM     16  C   UNL     1       7.004   4.491  14.072  0.00  0.00    +0.000 C 
BRANCH  16  18
ATOM     17  C   UNL     1       6.241   3.205  12.020  0.00  0.00    +0.000 C 
ATOM     18  C   UNL     1       5.874   3.707  13.409  0.00  0.00    +0.000 C 
ENDBRANCH  16  18
ENDBRANCH   7  16
ENDBRANCH   1   9
BRANCH   5  19
ATOM     19  C   UNL     1       2.276   4.045  19.611  0.00  0.00    +0.000 A 
ATOM     20  C   UNL     1       1.808   4.107  20.938  0.00  0.00    +0.000 A 
ATOM     21  C   UNL     1       2.243   3.191  21.903  0.00  0.00    +0.000 A 
ATOM     22  C   UNL     1       3.141   2.184  21.562  0.00  0.00    +0.000 A 
ATOM     23  C   UNL     1       3.614   2.103  20.257  0.00  0.00    +0.000 A 
ATOM     24  C   UNL     1       3.180   3.020  19.301  0.00  0.00    +0.000 A 
ATOM     25  F   UNL     1       3.640   2.851  18.054  0.00  0.00    +0.000 F 
ENDBRANCH   5  19
TORSDOF 4
ENDMDL
MODEL 8
REMARK VINA RESULT:      -7.9      2.029      3.738
REMARK  Name = 
REMARK  5 active torsions:
REMARK  status: ('A' for Active; 'I' for Inactive)
REMARK    1  A    between atoms: C_1  and  C_2
REMARK    2  A    between atoms: C_2  and  C_3
REMARK    3  A    between atoms: C_3  and  C_4
REMARK    4  A    between atoms: C_6  and  N_7
REMARK    5  A    between atoms: C_11  and  C_12
REMARK                            x       y       z     vdW  Elec       q    Type
REMARK                         _______ _______ _______ _____ _____    ______ ____
ROOT
ATOM      1  N   UNL     1       4.038   3.575  18.211  0.00  0.00    +0.000 N 
ATOM      2  C   UNL     1       3.012   2.731  17.567  0.00  0.00    +0.000 C 
ATOM      3  C   UNL     1       1.595   3.143  18.005  0.00  0.00    +0.000 C 
ATOM      4  O   UNL     1       1.439   3.315  19.426  0.00  0.00    +0.000 OA
ATOM      5  C   UNL     1       2.438   4.197  19.998  0.00  0.00    +0.000 C 
ATOM      6  C   UNL     1       3.843   3.628  19.675  0.00  0.00    +0.000 C 
ENDROOT
BRANCH   1   9
ATOM      7  C   UNL     1       6.580   4.585  15.617  0.00  0.00    +0.000 A 
ATOM      8  C   UNL     1       5.369   3.958  16.226  0.00  0.00    +0.000 A 
ATOM      9  C   UNL     1       5.163   4.113  17.549  0.00  0.00    +0.000 A 
ATOM     10  N   UNL     1       6.169   4.816  18.270  0.00  0.00    +0.000 N 
ATOM     11  N   UNL     1       6.288   5.052  19.611  0.00  0.00    +0.000 NA
ATOM     12  C   UNL     1       7.447   5.701  19.683  0.00  0.00    +0.000 A 
ATOM     13  N   UNL     1       8.087   5.920  18.510  0.00  0.00    +0.000 NA
ATOM     14  C   UNL     1       7.297   5.356  17.620  0.00  0.00    +0.000 A 
ATOM     15  N   UNL     1       7.479   5.258  16.273  0.00  0.00    +0.000 NA
BRANCH   7  16
ATOM     16  C   UNL     1       6.741   4.429  14.115  0.00  0.00    +0.000 C 
BRANCH  16  18
ATOM     17  C   UNL     1       5.842   3.157  12.111  0.00  0.00    +0.000 C 
ATOM     18  C   UNL     1       5.523   3.781  13.461  0.00  0.00    +0.000 C 
ENDBRANCH  16  18
ENDBRANCH   7  16
ENDBRANCH   1   9
BRANCH   5  19
ATOM     19  C   UNL     1       2.176   5.669  19.694  0.00  0.00    +0.000 A 
ATOM     20  C   UNL     1       1.809   6.544  20.734  0.00  0.00    +0.000 A 
ATOM     21  C   UNL     1       1.651   7.917  20.506  0.00  0.00    +0.000 A 
ATOM     22  C   UNL     1       1.873   8.448  19.239  0.00  0.00    +0.000 A 
ATOM     23  C   UNL     1       2.238   7.602  18.198  0.00  0.00    +0.000 A 
ATOM     24  C   UNL     1       2.390   6.236  18.430  0.00  0.00    +0.000 A 
ATOM     25  F   UNL     1       2.790   5.491  17.392  0.00  0.00    +0.000 F 
ENDBRANCH   5  19
TORSDOF 4
ENDMDL
MODEL 9
REMARK VINA RESULT:      -7.9      1.147      1.535
REMARK  Name = 
REMARK  5 active torsions:
REMARK  status: ('A' for Active; 'I' for Inactive)
REMARK    1  A    between atoms: C_1  and  C_2
REMARK    2  A    between atoms: C_2  and  C_3
REMARK    3  A    between atoms: C_3  and  C_4
REMARK    4  A    between atoms: C_6  and  N_7
REMARK    5  A    between atoms: C_11  and  C_12
REMARK                            x       y       z     vdW  Elec       q    Type
REMARK                         _______ _______ _______ _____ _____    ______ ____
ROOT
ATOM      1  N   UNL     1       4.504   4.154  18.164  0.00  0.00    +0.000 N 
ATOM      2  C   UNL     1       3.638   3.235  17.398  0.00  0.00    +0.000 C 
ATOM      3  C   UNL     1       2.157   3.425  17.770  0.00  0.00    +0.000 C 
ATOM      4  O   UNL     1       1.901   3.467  19.186  0.00  0.00    +0.000 OA
ATOM      5  C   UNL     1       2.738   4.425  19.881  0.00  0.00    +0.000 C 
ATOM      6  C   UNL     1       4.222   4.070  19.612  0.00  0.00    +0.000 C 
ENDROOT
BRANCH   1   9
ATOM      7  C   UNL     1       7.384   6.531  17.642  0.00  0.00    +0.000 A 
ATOM      8  C   UNL     1       6.242   5.833  18.306  0.00  0.00    +0.000 A 
ATOM      9  C   UNL     1       5.582   4.883  17.615  0.00  0.00    +0.000 A 
ATOM     10  N   UNL     1       5.996   4.673  16.269  0.00  0.00    +0.000 N 
ATOM     11  N   UNL     1       5.471   3.859  15.304  0.00  0.00    +0.000 NA
ATOM     12  C   UNL     1       6.241   4.134  14.253  0.00  0.00    +0.000 A 
ATOM     13  N   UNL     1       7.226   5.043  14.450  0.00  0.00    +0.000 NA
ATOM     14  C   UNL     1       7.069   5.395  15.710  0.00  0.00    +0.000 A 
ATOM     15  N   UNL     1       7.783   6.311  16.423  0.00  0.00    +0.000 NA
BRANCH   7  16
ATOM     16  C   UNL     1       8.130   7.555  18.478  0.00  0.00    +0.000 C 
BRANCH  16  18
ATOM     17  C   UNL     1       8.917   9.962  18.650  0.00  0.00    +0.000 C 
ATOM     18  C   UNL     1       8.108   8.948  17.855  0.00  0.00    +0.000 C 
ENDBRANCH  16  18
ENDBRANCH   7  16
ENDBRANCH   1   9
BRANCH   5  19
ATOM     19  C   UNL     1       2.298   5.870  19.660  0.00  0.00    +0.000 A 
ATOM     20  C   UNL     1       1.849   6.639  20.751  0.00  0.00    +0.000 A 
ATOM     21  C   UNL     1       1.526   7.993  20.600  0.00  0.00    +0.000 A 
ATOM     22  C   UNL     1       1.659   8.613  19.361  0.00  0.00    +0.000 A 
ATOM     23  C   UNL     1       2.102   7.873  18.271  0.00  0.00    +0.000 A 
ATOM     24  C   UNL     1       2.419   6.524  18.427  0.00  0.00    +0.000 A 
ATOM     25  F   UNL     1       2.886   5.887  17.344  0.00  0.00    +0.000 F 
ENDBRANCH   5  19
TORSDOF 4
ENDMDL
