MODEL 1
REMARK VINA RESULT:      -7.9      0.000      0.000
REMARK  Name = 
REMARK  2 active torsions:
REMARK  status: ('A' for Active; 'I' for Inactive)
REMARK    1  A    between atoms: C_6  and  C_7
REMARK    2  A    between atoms: N_17  and  O_18
REMARK                            x       y       z     vdW  Elec       q    Type
REMARK                         _______ _______ _______ _____ _____    ______ ____
ROOT
ATOM      1  O   UNL     1       6.459   3.831  12.990  0.00  0.00    +0.000 OA
ATOM      2  C   UNL     1       6.375   4.151  14.177  0.00  0.00    +0.000 C 
ATOM      3  C   UNL     1       5.371   3.473  15.082  0.00  0.00    +0.000 C 
ATOM      4  C   UNL     1       5.081   4.166  16.385  0.00  0.00    +0.000 A 
ATOM      5  C   UNL     1       4.071   3.662  17.226  0.00  0.00    +0.000 A 
ATOM      6  C   UNL     1       3.761   4.274  18.453  0.00  0.00    +0.000 A 
ATOM      7  C   UNL     1       4.464   5.436  18.806  0.00  0.00    +0.000 A 
ATOM      8  C   UNL     1       5.483   5.935  17.991  0.00  0.00    +0.000 A 
ATOM      9  C   UNL     1       5.806   5.284  16.798  0.00  0.00    +0.000 A 
ATOM     10  C   UNL     1       6.951   5.765  15.990  0.00  0.00    +0.000 C 
ATOM     11  O   UNL     1       7.653   6.695  16.375  0.00  0.00    +0.000 OA
ATOM     12  N   UNL     1       7.169   5.103  14.793  0.00  0.00    +0.000 N 
ENDROOT
BRANCH   6  13
ATOM     13  C   UNL     1       2.736   3.730  19.363  0.00  0.00    +0.000 A 
ATOM     14  C   UNL     1       1.364   3.908  19.329  0.00  0.00    +0.000 A 
ATOM     15  C   UNL     1       0.690   3.264  20.408  0.00  0.00    +0.000 A 
ATOM     16  C   UNL     1       1.565   2.606  21.239  0.00  0.00    +0.000 A 
ATOM     17  S   UNL     1       3.185   2.779  20.726  0.00  0.00    +0.000 S 
ENDBRANCH   6  13
BRANCH  12  18
ATOM     18  O   UNL     1       8.216   5.632  14.008  0.00  0.00    +0.000 OA
ATOM     19  H   UNL     1       7.753   5.848  13.170  0.00  0.00    +0.000 HD
ENDBRANCH  12  18
TORSDOF 2
ENDMDL
MODEL 2
REMARK VINA RESULT:      -7.2      3.729      4.400
REMARK  Name = 
REMARK  2 active torsions:
REMARK  status: ('A' for Active; 'I' for Inactive)
REMARK    1  A    between atoms: C_6  and  C_7
REMARK    2  A    between atoms: N_17  and  O_18
REMARK                            x       y       z     vdW  Elec       q    Type
REMARK                         _______ _______ _______ _____ _____    ______ ____
ROOT
ATOM      1  O   UNL     1       6.819   5.589  15.031  0.00  0.00    +0.000 OA
ATOM      2  C   UNL     1       5.813   5.435  15.724  0.00  0.00    +0.000 C 
ATOM      3  C   UNL     1       5.023   6.633  16.200  0.00  0.00    +0.000 C 
ATOM      4  C   UNL     1       4.053   6.385  17.322  0.00  0.00    +0.000 A 
ATOM      5  C   UNL     1       3.370   7.472  17.900  0.00  0.00    +0.000 A 
ATOM      6  C   UNL     1       2.455   7.290  18.952  0.00  0.00    +0.000 A 
ATOM      7  C   UNL     1       2.266   5.991  19.445  0.00  0.00    +0.000 A 
ATOM      8  C   UNL     1       2.921   4.900  18.868  0.00  0.00    +0.000 A 
ATOM      9  C   UNL     1       3.791   5.097  17.793  0.00  0.00    +0.000 A 
ATOM     10  C   UNL     1       4.405   3.926  17.126  0.00  0.00    +0.000 C 
ATOM     11  O   UNL     1       4.125   2.781  17.470  0.00  0.00    +0.000 OA
ATOM     12  N   UNL     1       5.301   4.208  16.107  0.00  0.00    +0.000 N 
ENDROOT
BRANCH   6  13
ATOM     13  C   UNL     1       1.701   8.415  19.536  0.00  0.00    +0.000 A 
ATOM     14  C   UNL     1       1.207   8.554  20.822  0.00  0.00    +0.000 A 
ATOM     15  C   UNL     1       0.480   9.765  21.013  0.00  0.00    +0.000 A 
ATOM     16  C   UNL     1       0.438  10.525  19.868  0.00  0.00    +0.000 A 
ATOM     17  S   UNL     1       1.258   9.773  18.573  0.00  0.00    +0.000 S 
ENDBRANCH   6  13
BRANCH  12  18
ATOM     18  O   UNL     1       5.929   3.077  15.544  0.00  0.00    +0.000 OA
ATOM     19  H   UNL     1       5.420   2.340  15.944  0.00  0.00    +0.000 HD
ENDBRANCH  12  18
TORSDOF 2
ENDMDL
MODEL 3
REMARK VINA RESULT:      -7.1      4.083      6.358
REMARK  Name = 
REMARK  2 active torsions:
REMARK  status: ('A' for Active; 'I' for Inactive)
REMARK    1  A    between atoms: C_6  and  C_7
REMARK    2  A    between atoms: N_17  and  O_18
REMARK                            x       y       z     vdW  Elec       q    Type
REMARK                         _______ _______ _______ _____ _____    ______ ____
ROOT
ATOM      1  O   UNL     1       3.330   2.530  20.902  0.00  0.00    +0.000 OA
ATOM      2  C   UNL     1       3.393   3.342  19.979  0.00  0.00    +0.000 C 
ATOM      3  C   UNL     1       3.906   2.917  18.621  0.00  0.00    +0.000 C 
ATOM      4  C   UNL     1       4.295   4.026  17.683  0.00  0.00    +0.000 A 
ATOM      5  C   UNL     1       4.894   3.710  16.449  0.00  0.00    +0.000 A 
ATOM      6  C   UNL     1       5.277   4.711  15.539  0.00  0.00    +0.000 A 
ATOM      7  C   UNL     1       5.082   6.050  15.910  0.00  0.00    +0.000 A 
ATOM      8  C   UNL     1       4.470   6.377  17.123  0.00  0.00    +0.000 A 
ATOM      9  C   UNL     1       4.056   5.366  17.992  0.00  0.00    +0.000 A 
ATOM     10  C   UNL     1       3.321   5.721  19.229  0.00  0.00    +0.000 C 
ATOM     11  O   UNL     1       3.027   6.886  19.480  0.00  0.00    +0.000 OA
ATOM     12  N   UNL     1       2.997   4.665  20.066  0.00  0.00    +0.000 N 
ENDROOT
BRANCH   6  13
ATOM     13  C   UNL     1       5.864   4.391  14.224  0.00  0.00    +0.000 A 
ATOM     14  C   UNL     1       5.367   3.565  13.230  0.00  0.00    +0.000 A 
ATOM     15  C   UNL     1       6.237   3.458  12.107  0.00  0.00    +0.000 A 
ATOM     16  C   UNL     1       7.378   4.207  12.268  0.00  0.00    +0.000 A 
ATOM     17  S   UNL     1       7.401   5.020  13.769  0.00  0.00    +0.000 S 
ENDBRANCH   6  13
BRANCH  12  18
ATOM     18  O   UNL     1       2.369   5.041  21.273  0.00  0.00    +0.000 OA
ATOM     19  H   UNL     1       1.420   5.010  21.026  0.00  0.00    +0.000 HD
ENDBRANCH  12  18
TORSDOF 2
ENDMDL
MODEL 4
REMARK VINA RESULT:      -7.1      3.756      4.447
REMARK  Name = 
REMARK  2 active torsions:
REMARK  status: ('A' for Active; 'I' for Inactive)
REMARK    1  A    between atoms: C_6  and  C_7
REMARK    2  A    between atoms: N_17  and  O_18
REMARK                            x       y       z     vdW  Elec       q    Type
REMARK                         _______ _______ _______ _____ _____    ______ ____
ROOT
ATOM      1  O   UNL     1       6.703   5.658  15.177  0.00  0.00    +0.000 OA
ATOM      2  C   UNL     1       5.720   5.511  15.903  0.00  0.00    +0.000 C 
ATOM      3  C   UNL     1       4.884   6.704  16.308  0.00  0.00    +0.000 C 
ATOM      4  C   UNL     1       3.950   6.496  17.468  0.00  0.00    +0.000 A 
ATOM      5  C   UNL     1       3.229   7.591  17.981  0.00  0.00    +0.000 A 
ATOM      6  C   UNL     1       2.345   7.447  19.065  0.00  0.00    +0.000 A 
ATOM      7  C   UNL     1       2.227   6.181  19.656  0.00  0.00    +0.000 A 
ATOM      8  C   UNL     1       2.921   5.081  19.145  0.00  0.00    +0.000 A 
ATOM      9  C   UNL     1       3.759   5.236  18.038  0.00  0.00    +0.000 A 
ATOM     10  C   UNL     1       4.413   4.047  17.445  0.00  0.00    +0.000 C 
ATOM     11  O   UNL     1       4.194   2.920  17.879  0.00  0.00    +0.000 OA
ATOM     12  N   UNL     1       5.274   4.294  16.387  0.00  0.00    +0.000 N 
ENDROOT
BRANCH   6  13
ATOM     13  C   UNL     1       1.550   8.577  19.581  0.00  0.00    +0.000 A 
ATOM     14  C   UNL     1       1.138   9.722  18.921  0.00  0.00    +0.000 A 
ATOM     15  C   UNL     1       0.420  10.623  19.760  0.00  0.00    +0.000 A 
ATOM     16  C   UNL     1       0.299  10.144  21.042  0.00  0.00    +0.000 A 
ATOM     17  S   UNL     1       1.057   8.626  21.231  0.00  0.00    +0.000 S 
ENDBRANCH   6  13
BRANCH  12  18
ATOM     18  O   UNL     1       5.943   3.153  15.894  0.00  0.00    +0.000 OA
ATOM     19  H   UNL     1       6.842   3.266  16.270  0.00  0.00    +0.000 HD
ENDBRANCH  12  18
TORSDOF 2
ENDMDL
MODEL 5
REMARK VINA RESULT:      -7.1      6.381      8.184
REMARK  Name = 
REMARK  2 active torsions:
REMARK  status: ('A' for Active; 'I' for Inactive)
REMARK    1  A    between atoms: C_6  and  C_7
REMARK    2  A    between atoms: N_17  and  O_18
REMARK                            x       y       z     vdW  Elec       q    Type
REMARK                         _______ _______ _______ _____ _____    ______ ____
ROOT
ATOM      1  O   UNL     1       0.147   9.921  23.610  0.00  0.00    +0.000 OA
ATOM      2  C   UNL     1       0.237   9.738  22.396  0.00  0.00    +0.000 C 
ATOM      3  C   UNL     1       0.953   8.520  21.858  0.00  0.00    +0.000 C 
ATOM      4  C   UNL     1       1.335   8.564  20.404  0.00  0.00    +0.000 A 
ATOM      5  C   UNL     1       2.110   7.521  19.860  0.00  0.00    +0.000 A 
ATOM      6  C   UNL     1       2.494   7.518  18.508  0.00  0.00    +0.000 A 
ATOM      7  C   UNL     1       2.116   8.611  17.712  0.00  0.00    +0.000 A 
ATOM      8  C   UNL     1       1.330   9.642  18.234  0.00  0.00    +0.000 A 
ATOM      9  C   UNL     1       0.921   9.602  19.569  0.00  0.00    +0.000 A 
ATOM     10  C   UNL     1       0.009  10.649  20.084  0.00  0.00    +0.000 C 
ATOM     11  O   UNL     1      -0.434  11.525  19.347  0.00  0.00    +0.000 OA
ATOM     12  N   UNL     1      -0.302  10.572  21.432  0.00  0.00    +0.000 N 
ENDROOT
BRANCH   6  13
ATOM     13  C   UNL     1       3.266   6.410  17.916  0.00  0.00    +0.000 A 
ATOM     14  C   UNL     1       4.433   6.466  17.173  0.00  0.00    +0.000 A 
ATOM     15  C   UNL     1       4.870   5.186  16.723  0.00  0.00    +0.000 A 
ATOM     16  C   UNL     1       4.026   4.182  17.133  0.00  0.00    +0.000 A 
ATOM     17  S   UNL     1       2.713   4.784  18.044  0.00  0.00    +0.000 S 
ENDBRANCH   6  13
BRANCH  12  18
ATOM     18  O   UNL     1      -1.108  11.626  21.913  0.00  0.00    +0.000 OA
ATOM     19  H   UNL     1      -1.364  12.082  21.083  0.00  0.00    +0.000 HD
ENDBRANCH  12  18
TORSDOF 2
ENDMDL
MODEL 6
REMARK VINA RESULT:      -7.0      6.318      8.031
REMARK  Name = 
REMARK  2 active torsions:
REMARK  status: ('A' for Active; 'I' for Inactive)
REMARK    1  A    between atoms: C_6  and  C_7
REMARK    2  A    between atoms: N_17  and  O_18
REMARK                            x       y       z     vdW  Elec       q    Type
REMARK                         _______ _______ _______ _____ _____    ______ ____
ROOT
ATOM      1  O   UNL     1       0.197   9.969  23.450  0.00  0.00    +0.000 OA
ATOM      2  C   UNL     1       0.321   9.763  22.242  0.00  0.00    +0.000 C 
ATOM      3  C   UNL     1       0.983   8.497  21.747  0.00  0.00    +0.000 C 
ATOM      4  C   UNL     1       1.421   8.497  20.309  0.00  0.00    +0.000 A 
ATOM      5  C   UNL     1       2.152   7.403  19.808  0.00  0.00    +0.000 A 
ATOM      6  C   UNL     1       2.585   7.357  18.471  0.00  0.00    +0.000 A 
ATOM      7  C   UNL     1       2.303   8.458  17.648  0.00  0.00    +0.000 A 
ATOM      8  C   UNL     1       1.562   9.541  18.127  0.00  0.00    +0.000 A 
ATOM      9  C   UNL     1       1.101   9.545  19.445  0.00  0.00    +0.000 A 
ATOM     10  C   UNL     1       0.234  10.652  19.912  0.00  0.00    +0.000 C 
ATOM     11  O   UNL     1      -0.127  11.541  19.147  0.00  0.00    +0.000 OA
ATOM     12  N   UNL     1      -0.132  10.613  21.248  0.00  0.00    +0.000 N 
ENDROOT
BRANCH   6  13
ATOM     13  C   UNL     1       3.312   6.197  17.923  0.00  0.00    +0.000 A 
ATOM     14  C   UNL     1       2.996   4.852  18.017  0.00  0.00    +0.000 A 
ATOM     15  C   UNL     1       3.963   4.006  17.400  0.00  0.00    +0.000 A 
ATOM     16  C   UNL     1       4.995   4.726  16.847  0.00  0.00    +0.000 A 
ATOM     17  S   UNL     1       4.801   6.405  17.084  0.00  0.00    +0.000 S 
ENDBRANCH   6  13
BRANCH  12  18
ATOM     18  O   UNL     1      -0.891  11.720  21.685  0.00  0.00    +0.000 OA
ATOM     19  H   UNL     1      -1.772  11.527  21.299  0.00  0.00    +0.000 HD
ENDBRANCH  12  18
TORSDOF 2
ENDMDL
MODEL 7
REMARK VINA RESULT:      -6.9      5.035      5.985
REMARK  Name = 
REMARK  2 active torsions:
REMARK  status: ('A' for Active; 'I' for Inactive)
REMARK    1  A    between atoms: C_6  and  C_7
REMARK    2  A    between atoms: N_17  and  O_18
REMARK                            x       y       z     vdW  Elec       q    Type
REMARK                         _______ _______ _______ _____ _____    ______ ____
ROOT
ATOM      1  O   UNL     1       3.115   2.505  19.875  0.00  0.00    +0.000 OA
ATOM      2  C   UNL     1       3.161   3.712  19.637  0.00  0.00    +0.000 C 
ATOM      3  C   UNL     1       2.503   4.701  20.572  0.00  0.00    +0.000 C 
ATOM      4  C   UNL     1       2.287   6.086  20.027  0.00  0.00    +0.000 A 
ATOM      5  C   UNL     1       1.572   7.027  20.793  0.00  0.00    +0.000 A 
ATOM      6  C   UNL     1       1.343   8.333  20.326  0.00  0.00    +0.000 A 
ATOM      7  C   UNL     1       1.814   8.669  19.048  0.00  0.00    +0.000 A 
ATOM      8  C   UNL     1       2.542   7.751  18.286  0.00  0.00    +0.000 A 
ATOM      9  C   UNL     1       2.799   6.474  18.788  0.00  0.00    +0.000 A 
ATOM     10  C   UNL     1       3.653   5.543  18.015  0.00  0.00    +0.000 C 
ATOM     11  O   UNL     1       4.181   5.892  16.963  0.00  0.00    +0.000 OA
ATOM     12  N   UNL     1       3.811   4.276  18.553  0.00  0.00    +0.000 N 
ENDROOT
BRANCH   6  13
ATOM     13  C   UNL     1       0.636   9.341  21.137  0.00  0.00    +0.000 A 
ATOM     14  C   UNL     1       0.030   9.191  22.373  0.00  0.00    +0.000 A 
ATOM     15  C   UNL     1      -0.602  10.382  22.834  0.00  0.00    +0.000 A 
ATOM     16  C   UNL     1      -0.463  11.416  21.938  0.00  0.00    +0.000 A 
ATOM     17  S   UNL     1       0.412  10.945  20.551  0.00  0.00    +0.000 S 
ENDBRANCH   6  13
BRANCH  12  18
ATOM     18  O   UNL     1       4.564   3.386  17.757  0.00  0.00    +0.000 OA
ATOM     19  H   UNL     1       5.390   3.895  17.609  0.00  0.00    +0.000 HD
ENDBRANCH  12  18
TORSDOF 2
ENDMDL
MODEL 8
REMARK VINA RESULT:      -6.8      5.156      6.982
REMARK  Name = 
REMARK  2 active torsions:
REMARK  status: ('A' for Active; 'I' for Inactive)
REMARK    1  A    between atoms: C_6  and  C_7
REMARK    2  A    between atoms: N_17  and  O_18
REMARK                            x       y       z     vdW  Elec       q    Type
REMARK                         _______ _______ _______ _____ _____    ______ ____
ROOT
ATOM      1  O   UNL     1       0.203  10.926  18.351  0.00  0.00    +0.000 OA
ATOM      2  C   UNL     1       0.915  10.010  18.763  0.00  0.00    +0.000 C 
ATOM      3  C   UNL     1       1.967   9.397  17.866  0.00  0.00    +0.000 C 
ATOM      4  C   UNL     1       2.520   8.070  18.305  0.00  0.00    +0.000 A 
ATOM      5  C   UNL     1       3.413   7.380  17.463  0.00  0.00    +0.000 A 
ATOM      6  C   UNL     1       3.956   6.135  17.829  0.00  0.00    +0.000 A 
ATOM      7  C   UNL     1       3.553   5.572  19.049  0.00  0.00    +0.000 A 
ATOM      8  C   UNL     1       2.684   6.255  19.903  0.00  0.00    +0.000 A 
ATOM      9  C   UNL     1       2.192   7.511  19.541  0.00  0.00    +0.000 A 
ATOM     10  C   UNL     1       1.350   8.268  20.496  0.00  0.00    +0.000 C 
ATOM     11  O   UNL     1       1.116   7.833  21.620  0.00  0.00    +0.000 OA
ATOM     12  N   UNL     1       0.854   9.479  20.039  0.00  0.00    +0.000 N 
ENDROOT
BRANCH   6  13
ATOM     13  C   UNL     1       4.927   5.424  16.976  0.00  0.00    +0.000 A 
ATOM     14  C   UNL     1       4.756   4.251  16.260  0.00  0.00    +0.000 A 
ATOM     15  C   UNL     1       5.939   3.834  15.582  0.00  0.00    +0.000 A 
ATOM     16  C   UNL     1       6.985   4.699  15.796  0.00  0.00    +0.000 A 
ATOM     17  S   UNL     1       6.543   5.996  16.816  0.00  0.00    +0.000 S 
ENDBRANCH   6  13
BRANCH  12  18
ATOM     18  O   UNL     1      -0.009  10.141  20.940  0.00  0.00    +0.000 OA
ATOM     19  H   UNL     1      -0.483  10.762  20.347  0.00  0.00    +0.000 HD
ENDBRANCH  12  18
TORSDOF 2
ENDMDL
MODEL 9
REMARK VINA RESULT:      -6.8      4.425      5.374
REMARK  Name = 
REMARK  2 active torsions:
REMARK  status: ('A' for Active; 'I' for Inactive)
REMARK    1  A    between atoms: C_6  and  C_7
REMARK    2  A    between atoms: N_17  and  O_18
REMARK                            x       y       z     vdW  Elec       q    Type
REMARK                         _______ _______ _______ _____ _____    ______ ____
ROOT
ATOM      1  O   UNL     1       5.301   3.632  16.402  0.00  0.00    +0.000 OA
ATOM      2  C   UNL     1       4.399   3.887  17.201  0.00  0.00    +0.000 C 
ATOM      3  C   UNL     1       3.870   5.297  17.331  0.00  0.00    +0.000 C 
ATOM      4  C   UNL     1       3.055   5.588  18.561  0.00  0.00    +0.000 A 
ATOM      5  C   UNL     1       2.630   6.906  18.814  0.00  0.00    +0.000 A 
ATOM      6  C   UNL     1       1.867   7.228  19.951  0.00  0.00    +0.000 A 
ATOM      7  C   UNL     1       1.569   6.201  20.858  0.00  0.00    +0.000 A 
ATOM      8  C   UNL     1       1.967   4.885  20.609  0.00  0.00    +0.000 A 
ATOM      9  C   UNL     1       2.685   4.578  19.451  0.00  0.00    +0.000 A 
ATOM     10  C   UNL     1       3.016   3.167  19.149  0.00  0.00    +0.000 C 
ATOM     11  O   UNL     1       2.629   2.255  19.874  0.00  0.00    +0.000 OA
ATOM     12  N   UNL     1       3.779   2.953  18.012  0.00  0.00    +0.000 N 
ENDROOT
BRANCH   6  13
ATOM     13  C   UNL     1       1.378   8.596  20.203  0.00  0.00    +0.000 A 
ATOM     14  C   UNL     1       1.129   9.610  19.294  0.00  0.00    +0.000 A 
ATOM     15  C   UNL     1       0.706  10.823  19.911  0.00  0.00    +0.000 A 
ATOM     16  C   UNL     1       0.641  10.707  21.279  0.00  0.00    +0.000 A 
ATOM     17  S   UNL     1       1.099   9.150  21.810  0.00  0.00    +0.000 S 
ENDBRANCH   6  13
BRANCH  12  18
ATOM     18  O   UNL     1       4.147   1.608  17.793  0.00  0.00    +0.000 OA
ATOM     19  H   UNL     1       3.442   1.301  17.184  0.00  0.00    +0.000 HD
ENDBRANCH  12  18
TORSDOF 2
ENDMDL
