MODEL 1
REMARK VINA RESULT:      -7.7      0.000      0.000
REMARK  Name = 
REMARK  9 active torsions:
REMARK  status: ('A' for Active; 'I' for Inactive)
REMARK    1  A    between atoms: C_1  and  C_2
REMARK    2  A    between atoms: C_2  and  O_3
REMARK    3  A    between atoms: C_4  and  N_5
REMARK    4  A    between atoms: N_10  and  C_11
REMARK    5  A    between atoms: C_11  and  C_12
REMARK    6  A    between atoms: C_12  and  C_13
REMARK    7  A    between atoms: C_21  and  C_22
REMARK    8  A    between atoms: C_22  and  O_23
REMARK    9  A    between atoms: C_24  and  O_25
REMARK                            x       y       z     vdW  Elec       q    Type
REMARK                         _______ _______ _______ _____ _____    ______ ____
ROOT
ATOM      1  N   UNL     1       2.819   6.753  19.161  0.00  0.00    +0.000 N 
ATOM      2  C   UNL     1       3.144   7.254  17.917  0.00  0.00    +0.000 A 
ATOM      3  N   UNL     1       2.492   8.361  17.640  0.00  0.00    +0.000 NA
ATOM      4  C   UNL     1       1.756   8.631  18.775  0.00  0.00    +0.000 A 
ATOM      5  C   UNL     1       0.849   9.664  19.089  0.00  0.00    +0.000 A 
ATOM      6  N   UNL     1       0.486  10.645  18.158  0.00  0.00    +0.000 N 
ATOM      7  N   UNL     1       0.296   9.663  20.328  0.00  0.00    +0.000 NA
ATOM      8  C   UNL     1       0.635   8.689  21.192  0.00  0.00    +0.000 A 
ATOM      9  N   UNL     1       1.453   7.649  20.980  0.00  0.00    +0.000 NA
ATOM     10  C   UNL     1       1.983   7.669  19.745  0.00  0.00    +0.000 A 
ATOM     11  H   UNL     1       1.191  10.683  17.420  0.00  0.00    +0.000 HD
ENDROOT
BRANCH   1  14
ATOM     12  C   UNL     1       4.489   3.314  19.154  0.00  0.00    +0.000 C 
ATOM     13  C   UNL     1       3.436   4.328  18.693  0.00  0.00    +0.000 C 
ATOM     14  C   UNL     1       3.330   5.493  19.697  0.00  0.00    +0.000 C 
ATOM     15  O   UNL     1       2.465   4.980  20.736  0.00  0.00    +0.000 OA
ATOM     16  C   UNL     1       1.478   4.122  20.106  0.00  0.00    +0.000 C 
ATOM     17  C   UNL     1       2.035   3.708  18.740  0.00  0.00    +0.000 C 
BRANCH  13  18
ATOM     18  O   UNL     1       3.802   4.718  17.368  0.00  0.00    +0.000 OA
ATOM     19  H   UNL     1       4.777   4.841  17.383  0.00  0.00    +0.000 HD
ENDBRANCH  13  18
BRANCH  17  20
ATOM     20  O   UNL     1       1.279   4.252  17.641  0.00  0.00    +0.000 OA
ATOM     21  H   UNL     1       1.444   5.210  17.566  0.00  0.00    +0.000 HD
ENDBRANCH  17  20
BRANCH  16  22
ATOM     22  C   UNL     1       1.172   2.959  21.047  0.00  0.00    +0.000 C 
BRANCH  22  23
ATOM     23  O   UNL     1       2.191   2.869  22.044  0.00  0.00    +0.000 OA
ATOM     24  H   UNL     1       1.917   2.159  22.658  0.00  0.00    +0.000 HD
ENDBRANCH  22  23
ENDBRANCH  16  22
ENDBRANCH   1  14
BRANCH   6  25
ATOM     25  C   UNL     1       0.107  11.928  18.745  0.00  0.00    +0.000 C 
BRANCH  25  26
ATOM     26  C   UNL     1      -1.354  12.244  18.452  0.00  0.00    +0.000 C 
BRANCH  26  27
ATOM     27  C   UNL     1      -2.086  11.260  17.562  0.00  0.00    +0.000 C 
ATOM     28  N   UNL     1      -2.305  11.607  16.266  0.00  0.00    +0.000 N 
ATOM     29  O   UNL     1      -2.474  10.173  17.984  0.00  0.00    +0.000 OA
ATOM     30  H   UNL     1      -2.312  12.592  16.012  0.00  0.00    +0.000 HD
ATOM     31  H   UNL     1      -2.905  10.991  15.734  0.00  0.00    +0.000 HD
ENDBRANCH  26  27
ENDBRANCH  25  26
ENDBRANCH   6  25
TORSDOF 8
ENDMDL
MODEL 2
REMARK VINA RESULT:      -7.1      0.995      1.235
REMARK  Name = 
REMARK  9 active torsions:
REMARK  status: ('A' for Active; 'I' for Inactive)
REMARK    1  A    between atoms: C_1  and  C_2
REMARK    2  A    between atoms: C_2  and  O_3
REMARK    3  A    between atoms: C_4  and  N_5
REMARK    4  A    between atoms: N_10  and  C_11
REMARK    5  A    between atoms: C_11  and  C_12
REMARK    6  A    between atoms: C_12  and  C_13
REMARK    7  A    between atoms: C_21  and  C_22
REMARK    8  A    between atoms: C_22  and  O_23
REMARK    9  A    between atoms: C_24  and  O_25
REMARK                            x       y       z     vdW  Elec       q    Type
REMARK                         _______ _______ _______ _____ _____    ______ ____
ROOT
ATOM      1  N   UNL     1       2.854   6.726  19.127  0.00  0.00    +0.000 N 
ATOM      2  C   UNL     1       3.172   7.231  17.883  0.00  0.00    +0.000 A 
ATOM      3  N   UNL     1       2.530   8.346  17.619  0.00  0.00    +0.000 NA
ATOM      4  C   UNL     1       1.807   8.616  18.763  0.00  0.00    +0.000 A 
ATOM      5  C   UNL     1       0.914   9.657  19.090  0.00  0.00    +0.000 A 
ATOM      6  N   UNL     1       0.553  10.648  18.169  0.00  0.00    +0.000 N 
ATOM      7  N   UNL     1       0.373   9.655  20.335  0.00  0.00    +0.000 NA
ATOM      8  C   UNL     1       0.710   8.672  21.190  0.00  0.00    +0.000 A 
ATOM      9  N   UNL     1       1.515   7.625  20.964  0.00  0.00    +0.000 NA
ATOM     10  C   UNL     1       2.033   7.647  19.725  0.00  0.00    +0.000 A 
ATOM     11  H   UNL     1       1.251  10.683  17.425  0.00  0.00    +0.000 HD
ENDROOT
BRANCH   1  14
ATOM     12  C   UNL     1       4.480   3.266  19.083  0.00  0.00    +0.000 C 
ATOM     13  C   UNL     1       3.433   4.295  18.641  0.00  0.00    +0.000 C 
ATOM     14  C   UNL     1       3.357   5.457  19.651  0.00  0.00    +0.000 C 
ATOM     15  O   UNL     1       2.501   4.951  20.701  0.00  0.00    +0.000 OA
ATOM     16  C   UNL     1       1.494   4.108  20.083  0.00  0.00    +0.000 C 
ATOM     17  C   UNL     1       2.025   3.693  18.706  0.00  0.00    +0.000 C 
BRANCH  13  18
ATOM     18  O   UNL     1       3.785   4.685  17.312  0.00  0.00    +0.000 OA
ATOM     19  H   UNL     1       3.975   3.851  16.828  0.00  0.00    +0.000 HD
ENDBRANCH  13  18
BRANCH  17  20
ATOM     20  O   UNL     1       1.261   4.250  17.621  0.00  0.00    +0.000 OA
ATOM     21  H   UNL     1       0.790   3.539  17.146  0.00  0.00    +0.000 HD
ENDBRANCH  17  20
BRANCH  16  22
ATOM     22  C   UNL     1       1.187   2.945  21.024  0.00  0.00    +0.000 C 
BRANCH  22  23
ATOM     23  O   UNL     1       2.139   2.927  22.089  0.00  0.00    +0.000 OA
ATOM     24  H   UNL     1       2.347   3.860  22.291  0.00  0.00    +0.000 HD
ENDBRANCH  22  23
ENDBRANCH  16  22
ENDBRANCH   1  14
BRANCH   6  25
ATOM     25  C   UNL     1       0.192  11.931  18.767  0.00  0.00    +0.000 C 
BRANCH  25  26
ATOM     26  C   UNL     1      -1.283  12.235  18.542  0.00  0.00    +0.000 C 
BRANCH  26  27
ATOM     27  C   UNL     1      -2.159  12.246  19.778  0.00  0.00    +0.000 C 
ATOM     28  N   UNL     1      -1.590  11.927  20.971  0.00  0.00    +0.000 N 
ATOM     29  O   UNL     1      -3.352  12.537  19.722  0.00  0.00    +0.000 OA
ATOM     30  H   UNL     1      -0.742  11.365  20.980  0.00  0.00    +0.000 HD
ATOM     31  H   UNL     1      -2.223  11.816  21.752  0.00  0.00    +0.000 HD
ENDBRANCH  26  27
ENDBRANCH  25  26
ENDBRANCH   6  25
TORSDOF 8
ENDMDL
MODEL 3
REMARK VINA RESULT:      -7.1      1.522      2.026
REMARK  Name = 
REMARK  9 active torsions:
REMARK  status: ('A' for Active; 'I' for Inactive)
REMARK    1  A    between atoms: C_1  and  C_2
REMARK    2  A    between atoms: C_2  and  O_3
REMARK    3  A    between atoms: C_4  and  N_5
REMARK    4  A    between atoms: N_10  and  C_11
REMARK    5  A    between atoms: C_11  and  C_12
REMARK    6  A    between atoms: C_12  and  C_13
REMARK    7  A    between atoms: C_21  and  C_22
REMARK    8  A    between atoms: C_22  and  O_23
REMARK    9  A    between atoms: C_24  and  O_25
REMARK                            x       y       z     vdW  Elec       q    Type
REMARK                         _______ _______ _______ _____ _____    ______ ____
ROOT
ATOM      1  N   UNL     1       2.735   6.902  19.171  0.00  0.00    +0.000 N 
ATOM      2  C   UNL     1       3.028   7.447  17.938  0.00  0.00    +0.000 A 
ATOM      3  N   UNL     1       2.342   8.543  17.702  0.00  0.00    +0.000 NA
ATOM      4  C   UNL     1       1.615   8.759  18.855  0.00  0.00    +0.000 A 
ATOM      5  C   UNL     1       0.684   9.756  19.210  0.00  0.00    +0.000 A 
ATOM      6  N   UNL     1       0.280  10.753  18.313  0.00  0.00    +0.000 N 
ATOM      7  N   UNL     1       0.149   9.705  20.456  0.00  0.00    +0.000 NA
ATOM      8  C   UNL     1       0.527   8.716  21.286  0.00  0.00    +0.000 A 
ATOM      9  N   UNL     1       1.371   7.706  21.034  0.00  0.00    +0.000 NA
ATOM     10  C   UNL     1       1.882   7.777  19.793  0.00  0.00    +0.000 A 
ATOM     11  H   UNL     1       0.973  10.833  17.567  0.00  0.00    +0.000 HD
ENDROOT
BRANCH   1  14
ATOM     12  C   UNL     1       4.510   3.518  19.043  0.00  0.00    +0.000 C 
ATOM     13  C   UNL     1       3.423   4.513  18.622  0.00  0.00    +0.000 C 
ATOM     14  C   UNL     1       3.289   5.642  19.664  0.00  0.00    +0.000 C 
ATOM     15  O   UNL     1       2.449   5.070  20.692  0.00  0.00    +0.000 OA
ATOM     16  C   UNL     1       1.483   4.202  20.042  0.00  0.00    +0.000 C 
ATOM     17  C   UNL     1       2.042   3.849  18.659  0.00  0.00    +0.000 C 
BRANCH  13  18
ATOM     18  O   UNL     1       3.766   4.956  17.307  0.00  0.00    +0.000 OA
ATOM     19  H   UNL     1       4.526   4.399  17.026  0.00  0.00    +0.000 HD
ENDBRANCH  13  18
BRANCH  17  20
ATOM     20  O   UNL     1       1.261   4.403  17.583  0.00  0.00    +0.000 OA
ATOM     21  H   UNL     1       0.905   5.273  17.844  0.00  0.00    +0.000 HD
ENDBRANCH  17  20
BRANCH  16  22
ATOM     22  C   UNL     1       1.221   3.001  20.948  0.00  0.00    +0.000 C 
BRANCH  22  23
ATOM     23  O   UNL     1       2.176   2.984  22.009  0.00  0.00    +0.000 OA
ATOM     24  H   UNL     1       1.890   2.285  22.629  0.00  0.00    +0.000 HD
ENDBRANCH  22  23
ENDBRANCH  16  22
ENDBRANCH   1  14
BRANCH   6  25
ATOM     25  C   UNL     1      -0.126  12.007  18.942  0.00  0.00    +0.000 C 
BRANCH  25  26
ATOM     26  C   UNL     1       0.726  13.165  18.439  0.00  0.00    +0.000 C 
BRANCH  26  27
ATOM     27  C   UNL     1       2.226  12.990  18.555  0.00  0.00    +0.000 C 
ATOM     28  N   UNL     1       2.894  13.756  19.458  0.00  0.00    +0.000 N 
ATOM     29  O   UNL     1       2.838  12.180  17.861  0.00  0.00    +0.000 OA
ATOM     30  H   UNL     1       2.481  14.634  19.764  0.00  0.00    +0.000 HD
ATOM     31  H   UNL     1       3.903  13.711  19.422  0.00  0.00    +0.000 HD
ENDBRANCH  26  27
ENDBRANCH  25  26
ENDBRANCH   6  25
TORSDOF 8
ENDMDL
MODEL 4
REMARK VINA RESULT:      -7.0      1.650      2.148
REMARK  Name = 
REMARK  9 active torsions:
REMARK  status: ('A' for Active; 'I' for Inactive)
REMARK    1  A    between atoms: C_1  and  C_2
REMARK    2  A    between atoms: C_2  and  O_3
REMARK    3  A    between atoms: C_4  and  N_5
REMARK    4  A    between atoms: N_10  and  C_11
REMARK    5  A    between atoms: C_11  and  C_12
REMARK    6  A    between atoms: C_12  and  C_13
REMARK    7  A    between atoms: C_21  and  C_22
REMARK    8  A    between atoms: C_22  and  O_23
REMARK    9  A    between atoms: C_24  and  O_25
REMARK                            x       y       z     vdW  Elec       q    Type
REMARK                         _______ _______ _______ _____ _____    ______ ____
ROOT
ATOM      1  N   UNL     1       2.855   6.736  19.136  0.00  0.00    +0.000 N 
ATOM      2  C   UNL     1       3.198   7.250  17.903  0.00  0.00    +0.000 A 
ATOM      3  N   UNL     1       2.556   8.364  17.630  0.00  0.00    +0.000 NA
ATOM      4  C   UNL     1       1.807   8.624  18.759  0.00  0.00    +0.000 A 
ATOM      5  C   UNL     1       0.902   9.659  19.073  0.00  0.00    +0.000 A 
ATOM      6  N   UNL     1       0.556  10.653  18.149  0.00  0.00    +0.000 N 
ATOM      7  N   UNL     1       0.333   9.647  20.305  0.00  0.00    +0.000 NA
ATOM      8  C   UNL     1       0.656   8.661  21.162  0.00  0.00    +0.000 A 
ATOM      9  N   UNL     1       1.471   7.619  20.948  0.00  0.00    +0.000 NA
ATOM     10  C   UNL     1       2.016   7.650  19.721  0.00  0.00    +0.000 A 
ATOM     11  H   UNL     1       1.271  10.696  17.421  0.00  0.00    +0.000 HD
ENDROOT
BRANCH   1  14
ATOM     12  C   UNL     1       4.480   3.277  19.104  0.00  0.00    +0.000 C 
ATOM     13  C   UNL     1       3.438   4.306  18.653  0.00  0.00    +0.000 C 
ATOM     14  C   UNL     1       3.352   5.467  19.664  0.00  0.00    +0.000 C 
ATOM     15  O   UNL     1       2.485   4.960  20.704  0.00  0.00    +0.000 OA
ATOM     16  C   UNL     1       1.484   4.118  20.075  0.00  0.00    +0.000 C 
ATOM     17  C   UNL     1       2.029   3.704  18.704  0.00  0.00    +0.000 C 
BRANCH  13  18
ATOM     18  O   UNL     1       3.803   4.698  17.328  0.00  0.00    +0.000 OA
ATOM     19  H   UNL     1       4.755   4.469  17.233  0.00  0.00    +0.000 HD
ENDBRANCH  13  18
BRANCH  17  20
ATOM     20  O   UNL     1       1.277   4.263  17.611  0.00  0.00    +0.000 OA
ATOM     21  H   UNL     1       1.613   3.916  16.763  0.00  0.00    +0.000 HD
ENDBRANCH  17  20
BRANCH  16  22
ATOM     22  C   UNL     1       1.168   2.954  21.011  0.00  0.00    +0.000 C 
BRANCH  22  23
ATOM     23  O   UNL     1       2.077   2.965  22.113  0.00  0.00    +0.000 OA
ATOM     24  H   UNL     1       2.201   3.901  22.361  0.00  0.00    +0.000 HD
ENDBRANCH  22  23
ENDBRANCH  16  22
ENDBRANCH   1  14
BRANCH   6  25
ATOM     25  C   UNL     1       0.177  11.931  18.747  0.00  0.00    +0.000 C 
BRANCH  25  26
ATOM     26  C   UNL     1       1.407  12.684  19.238  0.00  0.00    +0.000 C 
BRANCH  26  27
ATOM     27  C   UNL     1       1.461  12.980  20.723  0.00  0.00    +0.000 C 
ATOM     28  N   UNL     1       0.370  12.682  21.477  0.00  0.00    +0.000 N 
ATOM     29  O   UNL     1       2.458  13.472  21.247  0.00  0.00    +0.000 OA
ATOM     30  H   UNL     1      -0.540  12.616  21.026  0.00  0.00    +0.000 HD
ATOM     31  H   UNL     1       0.386  13.008  22.434  0.00  0.00    +0.000 HD
ENDBRANCH  26  27
ENDBRANCH  25  26
ENDBRANCH   6  25
TORSDOF 8
ENDMDL
MODEL 5
REMARK VINA RESULT:      -7.0      2.244      3.144
REMARK  Name = 
REMARK  9 active torsions:
REMARK  status: ('A' for Active; 'I' for Inactive)
REMARK    1  A    between atoms: C_1  and  C_2
REMARK    2  A    between atoms: C_2  and  O_3
REMARK    3  A    between atoms: C_4  and  N_5
REMARK    4  A    between atoms: N_10  and  C_11
REMARK    5  A    between atoms: C_11  and  C_12
REMARK    6  A    between atoms: C_12  and  C_13
REMARK    7  A    between atoms: C_21  and  C_22
REMARK    8  A    between atoms: C_22  and  O_23
REMARK    9  A    between atoms: C_24  and  O_25
REMARK                            x       y       z     vdW  Elec       q    Type
REMARK                         _______ _______ _______ _____ _____    ______ ____
ROOT
ATOM      1  N   UNL     1       2.451   6.262  19.437  0.00  0.00    +0.000 N 
ATOM      2  C   UNL     1       1.893   6.135  20.692  0.00  0.00    +0.000 A 
ATOM      3  N   UNL     1       1.340   7.252  21.107  0.00  0.00    +0.000 NA
ATOM      4  C   UNL     1       1.488   8.131  20.054  0.00  0.00    +0.000 A 
ATOM      5  C   UNL     1       1.120   9.483  19.894  0.00  0.00    +0.000 A 
ATOM      6  N   UNL     1       0.532  10.223  20.928  0.00  0.00    +0.000 N 
ATOM      7  N   UNL     1       1.388  10.073  18.702  0.00  0.00    +0.000 NA
ATOM      8  C   UNL     1       1.985   9.350  17.737  0.00  0.00    +0.000 A 
ATOM      9  N   UNL     1       2.405   8.079  17.802  0.00  0.00    +0.000 NA
ATOM     10  C   UNL     1       2.133   7.519  18.993  0.00  0.00    +0.000 A 
ATOM     11  H   UNL     1       0.134   9.581  21.614  0.00  0.00    +0.000 HD
ENDROOT
BRANCH   1  14
ATOM     12  C   UNL     1       3.159   3.466  16.927  0.00  0.00    +0.000 C 
ATOM     13  C   UNL     1       2.355   4.129  18.051  0.00  0.00    +0.000 C 
ATOM     14  C   UNL     1       3.201   5.204  18.761  0.00  0.00    +0.000 C 
ATOM     15  O   UNL     1       4.003   4.453  19.700  0.00  0.00    +0.000 OA
ATOM     16  C   UNL     1       3.198   3.346  20.184  0.00  0.00    +0.000 C 
ATOM     17  C   UNL     1       2.069   3.123  19.173  0.00  0.00    +0.000 C 
BRANCH  13  18
ATOM     18  O   UNL     1       1.152   4.617  17.454  0.00  0.00    +0.000 OA
ATOM     19  H   UNL     1       0.579   3.829  17.318  0.00  0.00    +0.000 HD
ENDBRANCH  13  18
BRANCH  17  20
ATOM     20  O   UNL     1       0.768   3.428  19.711  0.00  0.00    +0.000 OA
ATOM     21  H   UNL     1       0.179   3.741  18.999  0.00  0.00    +0.000 HD
ENDBRANCH  17  20
BRANCH  16  22
ATOM     22  C   UNL     1       4.108   2.139  20.398  0.00  0.00    +0.000 C 
BRANCH  22  23
ATOM     23  O   UNL     1       5.304   2.299  19.634  0.00  0.00    +0.000 OA
ATOM     24  H   UNL     1       5.269   1.632  18.921  0.00  0.00    +0.000 HD
ENDBRANCH  22  23
ENDBRANCH  16  22
ENDBRANCH   1  14
BRANCH   6  25
ATOM     25  C   UNL     1      -0.344  11.303  20.479  0.00  0.00    +0.000 C 
BRANCH  25  26
ATOM     26  C   UNL     1      -0.758  12.183  21.651  0.00  0.00    +0.000 C 
BRANCH  26  27
ATOM     27  C   UNL     1      -1.302  11.463  22.868  0.00  0.00    +0.000 C 
ATOM     28  N   UNL     1      -2.533  11.813  23.325  0.00  0.00    +0.000 N 
ATOM     29  O   UNL     1      -0.661  10.582  23.437  0.00  0.00    +0.000 OA
ATOM     30  H   UNL     1      -2.900  12.736  23.100  0.00  0.00    +0.000 HD
ATOM     31  H   UNL     1      -2.813  11.411  24.209  0.00  0.00    +0.000 HD
ENDBRANCH  26  27
ENDBRANCH  25  26
ENDBRANCH   6  25
TORSDOF 8
ENDMDL
MODEL 6
REMARK VINA RESULT:      -6.9      4.545      7.381
REMARK  Name = 
REMARK  9 active torsions:
REMARK  status: ('A' for Active; 'I' for Inactive)
REMARK    1  A    between atoms: C_1  and  C_2
REMARK    2  A    between atoms: C_2  and  O_3
REMARK    3  A    between atoms: C_4  and  N_5
REMARK    4  A    between atoms: N_10  and  C_11
REMARK    5  A    between atoms: C_11  and  C_12
REMARK    6  A    between atoms: C_12  and  C_13
REMARK    7  A    between atoms: C_21  and  C_22
REMARK    8  A    between atoms: C_22  and  O_23
REMARK    9  A    between atoms: C_24  and  O_25
REMARK                            x       y       z     vdW  Elec       q    Type
REMARK                         _______ _______ _______ _____ _____    ______ ____
ROOT
ATOM      1  N   UNL     1       4.151   3.955  18.317  0.00  0.00    +0.000 N 
ATOM      2  C   UNL     1       3.287   3.660  17.283  0.00  0.00    +0.000 A 
ATOM      3  N   UNL     1       3.847   3.818  16.104  0.00  0.00    +0.000 NA
ATOM      4  C   UNL     1       5.152   4.172  16.379  0.00  0.00    +0.000 A 
ATOM      5  C   UNL     1       6.240   4.491  15.541  0.00  0.00    +0.000 A 
ATOM      6  N   UNL     1       6.114   4.553  14.147  0.00  0.00    +0.000 N 
ATOM      7  N   UNL     1       7.428   4.779  16.130  0.00  0.00    +0.000 NA
ATOM      8  C   UNL     1       7.513   4.746  17.473  0.00  0.00    +0.000 A 
ATOM      9  N   UNL     1       6.536   4.492  18.354  0.00  0.00    +0.000 NA
ATOM     10  C   UNL     1       5.370   4.216  17.746  0.00  0.00    +0.000 A 
ATOM     11  H   UNL     1       5.283   4.031  13.863  0.00  0.00    +0.000 HD
ENDROOT
BRANCH   1  14
ATOM     12  C   UNL     1       2.589   2.669  21.560  0.00  0.00    +0.000 C 
ATOM     13  C   UNL     1       2.538   3.098  20.089  0.00  0.00    +0.000 C 
ATOM     14  C   UNL     1       3.775   3.944  19.730  0.00  0.00    +0.000 C 
ATOM     15  O   UNL     1       3.434   5.272  20.188  0.00  0.00    +0.000 OA
ATOM     16  C   UNL     1       2.010   5.461  19.980  0.00  0.00    +0.000 C 
ATOM     17  C   UNL     1       1.377   4.070  19.852  0.00  0.00    +0.000 C 
BRANCH  13  18
ATOM     18  O   UNL     1       2.395   1.900  19.323  0.00  0.00    +0.000 OA
ATOM     19  H   UNL     1       2.278   2.189  18.391  0.00  0.00    +0.000 HD
ENDBRANCH  13  18
BRANCH  17  20
ATOM     20  O   UNL     1       0.854   3.813  18.535  0.00  0.00    +0.000 OA
ATOM     21  H   UNL     1       0.282   3.023  18.553  0.00  0.00    +0.000 HD
ENDBRANCH  17  20
BRANCH  16  22
ATOM     22  C   UNL     1       1.458   6.308  21.124  0.00  0.00    +0.000 C 
BRANCH  22  23
ATOM     23  O   UNL     1       1.897   7.659  20.975  0.00  0.00    +0.000 OA
ATOM     24  H   UNL     1       1.091   8.209  20.932  0.00  0.00    +0.000 HD
ENDBRANCH  22  23
ENDBRANCH  16  22
ENDBRANCH   1  14
BRANCH   6  25
ATOM     25  C   UNL     1       7.340   4.251  13.413  0.00  0.00    +0.000 C 
BRANCH  25  26
ATOM     26  C   UNL     1       7.021   3.786  11.998  0.00  0.00    +0.000 C 
BRANCH  26  27
ATOM     27  C   UNL     1       5.790   2.917  11.841  0.00  0.00    +0.000 C 
ATOM     28  N   UNL     1       5.967   1.588  11.620  0.00  0.00    +0.000 N 
ATOM     29  O   UNL     1       4.655   3.385  11.914  0.00  0.00    +0.000 OA
ATOM     30  H   UNL     1       6.845   1.265  11.218  0.00  0.00    +0.000 HD
ATOM     31  H   UNL     1       5.136   1.058  11.391  0.00  0.00    +0.000 HD
ENDBRANCH  26  27
ENDBRANCH  25  26
ENDBRANCH   6  25
TORSDOF 8
ENDMDL
MODEL 7
REMARK VINA RESULT:      -6.9      5.236      7.238
REMARK  Name = 
REMARK  9 active torsions:
REMARK  status: ('A' for Active; 'I' for Inactive)
REMARK    1  A    between atoms: C_1  and  C_2
REMARK    2  A    between atoms: C_2  and  O_3
REMARK    3  A    between atoms: C_4  and  N_5
REMARK    4  A    between atoms: N_10  and  C_11
REMARK    5  A    between atoms: C_11  and  C_12
REMARK    6  A    between atoms: C_12  and  C_13
REMARK    7  A    between atoms: C_21  and  C_22
REMARK    8  A    between atoms: C_22  and  O_23
REMARK    9  A    between atoms: C_24  and  O_25
REMARK                            x       y       z     vdW  Elec       q    Type
REMARK                         _______ _______ _______ _____ _____    ______ ____
ROOT
ATOM      1  N   UNL     1       4.320   4.238  18.145  0.00  0.00    +0.000 N 
ATOM      2  C   UNL     1       3.475   4.419  17.070  0.00  0.00    +0.000 A 
ATOM      3  N   UNL     1       4.122   4.753  15.977  0.00  0.00    +0.000 NA
ATOM      4  C   UNL     1       5.455   4.729  16.335  0.00  0.00    +0.000 A 
ATOM      5  C   UNL     1       6.631   5.011  15.611  0.00  0.00    +0.000 A 
ATOM      6  N   UNL     1       6.601   5.461  14.285  0.00  0.00    +0.000 N 
ATOM      7  N   UNL     1       7.817   4.869  16.255  0.00  0.00    +0.000 NA
ATOM      8  C   UNL     1       7.817   4.469  17.540  0.00  0.00    +0.000 A 
ATOM      9  N   UNL     1       6.759   4.213  18.322  0.00  0.00    +0.000 NA
ATOM     10  C   UNL     1       5.598   4.367  17.663  0.00  0.00    +0.000 A 
ATOM     11  H   UNL     1       5.698   5.226  13.872  0.00  0.00    +0.000 HD
ENDROOT
BRANCH   1  14
ATOM     12  C   UNL     1       3.949   2.284  21.409  0.00  0.00    +0.000 C 
ATOM     13  C   UNL     1       3.837   2.449  19.890  0.00  0.00    +0.000 C 
ATOM     14  C   UNL     1       3.870   3.941  19.504  0.00  0.00    +0.000 C 
ATOM     15  O   UNL     1       2.510   4.385  19.710  0.00  0.00    +0.000 OA
ATOM     16  C   UNL     1       1.627   3.289  19.354  0.00  0.00    +0.000 C 
ATOM     17  C   UNL     1       2.455   2.000  19.400  0.00  0.00    +0.000 C 
BRANCH  13  18
ATOM     18  O   UNL     1       4.885   1.664  19.319  0.00  0.00    +0.000 OA
ATOM     19  H   UNL     1       5.723   2.123  19.553  0.00  0.00    +0.000 HD
ENDBRANCH  13  18
BRANCH  17  20
ATOM     20  O   UNL     1       2.626   1.399  18.103  0.00  0.00    +0.000 OA
ATOM     21  H   UNL     1       1.755   1.231  17.697  0.00  0.00    +0.000 HD
ENDBRANCH  17  20
BRANCH  16  22
ATOM     22  C   UNL     1       0.425   3.306  20.294  0.00  0.00    +0.000 C 
BRANCH  22  23
ATOM     23  O   UNL     1       0.809   2.803  21.574  0.00  0.00    +0.000 OA
ATOM     24  H   UNL     1       0.956   1.844  21.462  0.00  0.00    +0.000 HD
ENDBRANCH  22  23
ENDBRANCH  16  22
ENDBRANCH   1  14
BRANCH   6  25
ATOM     25  C   UNL     1       7.777   5.102  13.496  0.00  0.00    +0.000 C 
BRANCH  25  26
ATOM     26  C   UNL     1       7.365   4.478  12.168  0.00  0.00    +0.000 C 
BRANCH  26  27
ATOM     27  C   UNL     1       6.312   3.392  12.238  0.00  0.00    +0.000 C 
ATOM     28  N   UNL     1       6.643   2.148  11.801  0.00  0.00    +0.000 N 
ATOM     29  O   UNL     1       5.185   3.611  12.679  0.00  0.00    +0.000 OA
ATOM     30  H   UNL     1       7.406   2.044  11.136  0.00  0.00    +0.000 HD
ATOM     31  H   UNL     1       5.886   1.480  11.738  0.00  0.00    +0.000 HD
ENDBRANCH  26  27
ENDBRANCH  25  26
ENDBRANCH   6  25
TORSDOF 8
ENDMDL
MODEL 8
REMARK VINA RESULT:      -6.9      1.712      1.913
REMARK  Name = 
REMARK  9 active torsions:
REMARK  status: ('A' for Active; 'I' for Inactive)
REMARK    1  A    between atoms: C_1  and  C_2
REMARK    2  A    between atoms: C_2  and  O_3
REMARK    3  A    between atoms: C_4  and  N_5
REMARK    4  A    between atoms: N_10  and  C_11
REMARK    5  A    between atoms: C_11  and  C_12
REMARK    6  A    between atoms: C_12  and  C_13
REMARK    7  A    between atoms: C_21  and  C_22
REMARK    8  A    between atoms: C_22  and  O_23
REMARK    9  A    between atoms: C_24  and  O_25
REMARK                            x       y       z     vdW  Elec       q    Type
REMARK                         _______ _______ _______ _____ _____    ______ ____
ROOT
ATOM      1  N   UNL     1       2.767   6.939  19.047  0.00  0.00    +0.000 N 
ATOM      2  C   UNL     1       3.050   7.455  17.799  0.00  0.00    +0.000 A 
ATOM      3  N   UNL     1       2.364   8.546  17.543  0.00  0.00    +0.000 NA
ATOM      4  C   UNL     1       1.647   8.790  18.696  0.00  0.00    +0.000 A 
ATOM      5  C   UNL     1       0.721   9.798  19.036  0.00  0.00    +0.000 A 
ATOM      6  N   UNL     1       0.312  10.774  18.119  0.00  0.00    +0.000 N 
ATOM      7  N   UNL     1       0.197   9.777  20.287  0.00  0.00    +0.000 NA
ATOM      8  C   UNL     1       0.581   8.807  21.138  0.00  0.00    +0.000 A 
ATOM      9  N   UNL     1       1.420   7.790  20.902  0.00  0.00    +0.000 NA
ATOM     10  C   UNL     1       1.921   7.830  19.655  0.00  0.00    +0.000 A 
ATOM     11  H   UNL     1       0.998  10.835  17.366  0.00  0.00    +0.000 HD
ENDROOT
BRANCH   1  14
ATOM     12  C   UNL     1       4.530   3.548  18.983  0.00  0.00    +0.000 C 
ATOM     13  C   UNL     1       3.440   4.535  18.550  0.00  0.00    +0.000 C 
ATOM     14  C   UNL     1       3.322   5.690  19.564  0.00  0.00    +0.000 C 
ATOM     15  O   UNL     1       2.493   5.147  20.616  0.00  0.00    +0.000 OA
ATOM     16  C   UNL     1       1.517   4.266  19.999  0.00  0.00    +0.000 C 
ATOM     17  C   UNL     1       2.058   3.877  18.619  0.00  0.00    +0.000 C 
BRANCH  13  18
ATOM     18  O   UNL     1       3.770   4.944  17.220  0.00  0.00    +0.000 OA
ATOM     19  H   UNL     1       4.150   5.847  17.303  0.00  0.00    +0.000 HD
ENDBRANCH  13  18
BRANCH  17  20
ATOM     20  O   UNL     1       1.267   4.407  17.539  0.00  0.00    +0.000 OA
ATOM     21  H   UNL     1       0.360   4.589  17.849  0.00  0.00    +0.000 HD
ENDBRANCH  17  20
BRANCH  16  22
ATOM     22  C   UNL     1       1.262   3.089  20.937  0.00  0.00    +0.000 C 
BRANCH  22  23
ATOM     23  O   UNL     1       2.207   3.115  22.007  0.00  0.00    +0.000 OA
ATOM     24  H   UNL     1       2.239   4.037  22.327  0.00  0.00    +0.000 HD
ENDBRANCH  22  23
ENDBRANCH  16  22
ENDBRANCH   1  14
BRANCH   6  25
ATOM     25  C   UNL     1      -0.087  12.044  18.722  0.00  0.00    +0.000 C 
BRANCH  25  26
ATOM     26  C   UNL     1       1.092  13.006  18.783  0.00  0.00    +0.000 C 
BRANCH  26  27
ATOM     27  C   UNL     1       0.752  14.482  18.768  0.00  0.00    +0.000 C 
ATOM     28  N   UNL     1      -0.560  14.839  18.766  0.00  0.00    +0.000 N 
ATOM     29  O   UNL     1       1.626  15.347  18.761  0.00  0.00    +0.000 OA
ATOM     30  H   UNL     1      -1.252  14.176  18.424  0.00  0.00    +0.000 HD
ATOM     31  H   UNL     1      -0.756  15.821  18.625  0.00  0.00    +0.000 HD
ENDBRANCH  26  27
ENDBRANCH  25  26
ENDBRANCH   6  25
TORSDOF 8
ENDMDL
MODEL 9
REMARK VINA RESULT:      -6.9      4.791      6.377
REMARK  Name = 
REMARK  9 active torsions:
REMARK  status: ('A' for Active; 'I' for Inactive)
REMARK    1  A    between atoms: C_1  and  C_2
REMARK    2  A    between atoms: C_2  and  O_3
REMARK    3  A    between atoms: C_4  and  N_5
REMARK    4  A    between atoms: N_10  and  C_11
REMARK    5  A    between atoms: C_11  and  C_12
REMARK    6  A    between atoms: C_12  and  C_13
REMARK    7  A    between atoms: C_21  and  C_22
REMARK    8  A    between atoms: C_22  and  O_23
REMARK    9  A    between atoms: C_24  and  O_25
REMARK                            x       y       z     vdW  Elec       q    Type
REMARK                         _______ _______ _______ _____ _____    ______ ____
ROOT
ATOM      1  N   UNL     1       4.663   4.423  18.816  0.00  0.00    +0.000 N 
ATOM      2  C   UNL     1       5.553   4.490  19.868  0.00  0.00    +0.000 A 
ATOM      3  N   UNL     1       6.506   5.371  19.660  0.00  0.00    +0.000 NA
ATOM      4  C   UNL     1       6.192   5.949  18.446  0.00  0.00    +0.000 A 
ATOM      5  C   UNL     1       6.837   6.942  17.680  0.00  0.00    +0.000 A 
ATOM      6  N   UNL     1       8.060   7.505  18.066  0.00  0.00    +0.000 N 
ATOM      7  N   UNL     1       6.250   7.320  16.517  0.00  0.00    +0.000 NA
ATOM      8  C   UNL     1       5.093   6.739  16.152  0.00  0.00    +0.000 A 
ATOM      9  N   UNL     1       4.424   5.767  16.787  0.00  0.00    +0.000 NA
ATOM     10  C   UNL     1       5.028   5.406  17.932  0.00  0.00    +0.000 A 
ATOM     11  H   UNL     1       8.200   7.348  19.065  0.00  0.00    +0.000 HD
ENDROOT
BRANCH   1  14
ATOM     12  C   UNL     1       1.113   3.170  18.155  0.00  0.00    +0.000 C 
ATOM     13  C   UNL     1       2.140   4.090  18.825  0.00  0.00    +0.000 C 
ATOM     14  C   UNL     1       3.552   3.477  18.739  0.00  0.00    +0.000 C 
ATOM     15  O   UNL     1       3.591   2.537  19.837  0.00  0.00    +0.000 OA
ATOM     16  C   UNL     1       2.821   3.102  20.931  0.00  0.00    +0.000 C 
ATOM     17  C   UNL     1       1.891   4.165  20.336  0.00  0.00    +0.000 C 
BRANCH  13  18
ATOM     18  O   UNL     1       2.008   5.368  18.199  0.00  0.00    +0.000 OA
ATOM     19  H   UNL     1       2.578   5.335  17.398  0.00  0.00    +0.000 HD
ENDBRANCH  13  18
BRANCH  17  20
ATOM     20  O   UNL     1       2.219   5.499  20.766  0.00  0.00    +0.000 OA
ATOM     21  H   UNL     1       1.837   5.667  21.648  0.00  0.00    +0.000 HD
ENDBRANCH  17  20
BRANCH  16  22
ATOM     22  C   UNL     1       2.105   1.967  21.659  0.00  0.00    +0.000 C 
BRANCH  22  23
ATOM     23  O   UNL     1       1.083   2.505  22.499  0.00  0.00    +0.000 OA
ATOM     24  H   UNL     1       1.119   3.475  22.393  0.00  0.00    +0.000 HD
ENDBRANCH  22  23
ENDBRANCH  16  22
ENDBRANCH   1  14
BRANCH   6  25
ATOM     25  C   UNL     1       8.273   8.872  17.598  0.00  0.00    +0.000 C 
BRANCH  25  26
ATOM     26  C   UNL     1       8.926   9.718  18.683  0.00  0.00    +0.000 C 
BRANCH  26  27
ATOM     27  C   UNL     1       9.437  11.078  18.253  0.00  0.00    +0.000 C 
ATOM     28  N   UNL     1       8.554  11.951  17.701  0.00  0.00    +0.000 N 
ATOM     29  O   UNL     1      10.615  11.400  18.397  0.00  0.00    +0.000 OA
ATOM     30  H   UNL     1       7.707  11.590  17.267  0.00  0.00    +0.000 HD
ATOM     31  H   UNL     1       8.947  12.795  17.307  0.00  0.00    +0.000 HD
ENDBRANCH  26  27
ENDBRANCH  25  26
ENDBRANCH   6  25
TORSDOF 8
ENDMDL
