MODEL 1
REMARK VINA RESULT:      -7.1      0.000      0.000
REMARK  Name = 
REMARK  5 active torsions:
REMARK  status: ('A' for Active; 'I' for Inactive)
REMARK    1  A    between atoms: C_1  and  N_2
REMARK    2  A    between atoms: C_3  and  N_4
REMARK    3  A    between atoms: C_5  and  N_6
REMARK    4  A    between atoms: C_10  and  C_11
REMARK    5  A    between atoms: C_11  and  O_12
REMARK                            x       y       z     vdW  Elec       q    Type
REMARK                         _______ _______ _______ _____ _____    ______ ____
ROOT
ATOM      1  C   UNL     1       7.710   4.434  17.786  0.00  0.00    +0.000 C 
ATOM      2  N   UNL     1       6.465   5.184  17.744  0.00  0.00    +0.000 N 
ATOM      3  C   UNL     1       5.300   4.714  18.340  0.00  0.00    +0.000 A 
ATOM      4  C   UNL     1       4.148   5.440  18.287  0.00  0.00    +0.000 A 
ATOM      5  C   UNL     1       4.194   6.759  17.558  0.00  0.00    +0.000 A 
ATOM      6  O   UNL     1       3.212   7.498  17.471  0.00  0.00    +0.000 OA
ATOM      7  N   UNL     1       5.377   7.110  16.998  0.00  0.00    +0.000 N 
ATOM      8  C   UNL     1       6.525   6.384  17.051  0.00  0.00    +0.000 A 
ATOM      9  O   UNL     1       7.536   6.809  16.493  0.00  0.00    +0.000 OA
ATOM     10  H   UNL     1       5.418   7.988  16.507  0.00  0.00    +0.000 HD
ENDROOT
BRANCH   4  11
ATOM     11  N   UNL     1       2.911   5.048  18.838  0.00  0.00    +0.000 N 
ATOM     12  C   UNL     1       2.500   5.456  20.192  0.00  0.00    +0.000 C 
ATOM     13  C   UNL     1       1.857   4.291  20.956  0.00  0.00    +0.000 C 
ATOM     14  O   UNL     1       0.826   3.627  20.206  0.00  0.00    +0.000 OA
ATOM     15  C   UNL     1       1.275   3.190  18.901  0.00  0.00    +0.000 C 
ATOM     16  C   UNL     1       1.853   4.357  18.085  0.00  0.00    +0.000 C 
BRANCH  15  17
ATOM     17  C   UNL     1       2.254   2.011  18.998  0.00  0.00    +0.000 C 
BRANCH  17  18
ATOM     18  O   UNL     1       2.835   1.757  17.719  0.00  0.00    +0.000 OA
ATOM     19  H   UNL     1       2.506   0.880  17.445  0.00  0.00    +0.000 HD
ENDBRANCH  17  18
ENDBRANCH  15  17
ENDBRANCH   4  11
BRANCH   3  20
ATOM     20  N   UNL     1       5.274   3.458  18.947  0.00  0.00    +0.000 N 
ATOM     21  H   UNL     1       6.207   3.078  19.055  0.00  0.00    +0.000 HD
ATOM     22  H   UNL     1       4.718   2.820  18.380  0.00  0.00    +0.000 HD
ENDBRANCH   3  20
TORSDOF 4
ENDMDL
MODEL 2
REMARK VINA RESULT:      -6.6      1.558      2.309
REMARK  Name = 
REMARK  5 active torsions:
REMARK  status: ('A' for Active; 'I' for Inactive)
REMARK    1  A    between atoms: C_1  and  N_2
REMARK    2  A    between atoms: C_3  and  N_4
REMARK    3  A    between atoms: C_5  and  N_6
REMARK    4  A    between atoms: C_10  and  C_11
REMARK    5  A    between atoms: C_11  and  O_12
REMARK                            x       y       z     vdW  Elec       q    Type
REMARK                         _______ _______ _______ _____ _____    ______ ____
ROOT
ATOM      1  C   UNL     1       6.210   7.327  17.025  0.00  0.00    +0.000 C 
ATOM      2  N   UNL     1       5.764   6.135  17.728  0.00  0.00    +0.000 N 
ATOM      3  C   UNL     1       4.438   5.952  18.105  0.00  0.00    +0.000 A 
ATOM      4  C   UNL     1       4.050   4.822  18.760  0.00  0.00    +0.000 A 
ATOM      5  C   UNL     1       5.111   3.794  19.057  0.00  0.00    +0.000 A 
ATOM      6  O   UNL     1       4.858   2.731  19.627  0.00  0.00    +0.000 OA
ATOM      7  N   UNL     1       6.375   4.083  18.662  0.00  0.00    +0.000 N 
ATOM      8  C   UNL     1       6.761   5.212  18.009  0.00  0.00    +0.000 A 
ATOM      9  O   UNL     1       7.945   5.361  17.710  0.00  0.00    +0.000 OA
ATOM     10  H   UNL     1       7.092   3.404  18.858  0.00  0.00    +0.000 HD
ENDROOT
BRANCH   4  11
ATOM     11  N   UNL     1       2.740   4.548  19.204  0.00  0.00    +0.000 N 
ATOM     12  C   UNL     1       2.315   4.822  20.587  0.00  0.00    +0.000 C 
ATOM     13  C   UNL     1       1.469   3.673  21.150  0.00  0.00    +0.000 C 
ATOM     14  O   UNL     1       0.399   3.281  20.276  0.00  0.00    +0.000 OA
ATOM     15  C   UNL     1       0.853   2.965  18.938  0.00  0.00    +0.000 C 
ATOM     16  C   UNL     1       1.638   4.133  18.321  0.00  0.00    +0.000 C 
BRANCH  15  17
ATOM     17  C   UNL     1       1.646   1.651  18.900  0.00  0.00    +0.000 C 
BRANCH  17  18
ATOM     18  O   UNL     1       2.533   1.653  17.780  0.00  0.00    +0.000 OA
ATOM     19  H   UNL     1       3.105   2.436  17.893  0.00  0.00    +0.000 HD
ENDBRANCH  17  18
ENDBRANCH  15  17
ENDBRANCH   4  11
BRANCH   3  20
ATOM     20  N   UNL     1       3.495   6.954  17.876  0.00  0.00    +0.000 N 
ATOM     21  H   UNL     1       3.353   7.527  18.699  0.00  0.00    +0.000 HD
ATOM     22  H   UNL     1       2.610   6.529  17.608  0.00  0.00    +0.000 HD
ENDBRANCH   3  20
TORSDOF 4
ENDMDL
MODEL 3
REMARK VINA RESULT:      -6.6      1.645      5.222
REMARK  Name = 
REMARK  5 active torsions:
REMARK  status: ('A' for Active; 'I' for Inactive)
REMARK    1  A    between atoms: C_1  and  N_2
REMARK    2  A    between atoms: C_3  and  N_4
REMARK    3  A    between atoms: C_5  and  N_6
REMARK    4  A    between atoms: C_10  and  C_11
REMARK    5  A    between atoms: C_11  and  O_12
REMARK                            x       y       z     vdW  Elec       q    Type
REMARK                         _______ _______ _______ _____ _____    ______ ____
ROOT
ATOM      1  C   UNL     1       3.214   2.239  20.999  0.00  0.00    +0.000 C 
ATOM      2  N   UNL     1       3.089   3.374  20.098  0.00  0.00    +0.000 N 
ATOM      3  C   UNL     1       4.137   3.789  19.283  0.00  0.00    +0.000 A 
ATOM      4  C   UNL     1       3.990   4.853  18.447  0.00  0.00    +0.000 A 
ATOM      5  C   UNL     1       2.655   5.555  18.447  0.00  0.00    +0.000 A 
ATOM      6  O   UNL     1       2.416   6.516  17.713  0.00  0.00    +0.000 OA
ATOM      7  N   UNL     1       1.711   5.079  19.295  0.00  0.00    +0.000 N 
ATOM      8  C   UNL     1       1.861   4.016  20.130  0.00  0.00    +0.000 A 
ATOM      9  O   UNL     1       0.927   3.687  20.860  0.00  0.00    +0.000 OA
ATOM     10  H   UNL     1       0.818   5.543  19.305  0.00  0.00    +0.000 HD
ENDROOT
BRANCH   4  11
ATOM     11  N   UNL     1       4.991   5.367  17.597  0.00  0.00    +0.000 N 
ATOM     12  C   UNL     1       5.207   4.836  16.241  0.00  0.00    +0.000 C 
ATOM     13  C   UNL     1       6.702   4.674  15.935  0.00  0.00    +0.000 C 
ATOM     14  O   UNL     1       7.467   5.853  16.230  0.00  0.00    +0.000 OA
ATOM     15  C   UNL     1       7.276   6.321  17.587  0.00  0.00    +0.000 C 
ATOM     16  C   UNL     1       5.791   6.566  17.894  0.00  0.00    +0.000 C 
BRANCH  15  17
ATOM     17  C   UNL     1       7.932   5.385  18.612  0.00  0.00    +0.000 C 
BRANCH  17  18
ATOM     18  O   UNL     1       7.271   5.507  19.872  0.00  0.00    +0.000 OA
ATOM     19  H   UNL     1       6.350   5.761  19.668  0.00  0.00    +0.000 HD
ENDBRANCH  17  18
ENDBRANCH  15  17
ENDBRANCH   4  11
BRANCH   3  20
ATOM     20  N   UNL     1       5.380   3.160  19.358  0.00  0.00    +0.000 N 
ATOM     21  H   UNL     1       6.090   3.677  18.853  0.00  0.00    +0.000 HD
ATOM     22  H   UNL     1       5.309   2.222  18.967  0.00  0.00    +0.000 HD
ENDBRANCH   3  20
TORSDOF 4
ENDMDL
MODEL 4
REMARK VINA RESULT:      -6.3      1.199      1.208
REMARK  Name = 
REMARK  5 active torsions:
REMARK  status: ('A' for Active; 'I' for Inactive)
REMARK    1  A    between atoms: C_1  and  N_2
REMARK    2  A    between atoms: C_3  and  N_4
REMARK    3  A    between atoms: C_5  and  N_6
REMARK    4  A    between atoms: C_10  and  C_11
REMARK    5  A    between atoms: C_11  and  O_12
REMARK                            x       y       z     vdW  Elec       q    Type
REMARK                         _______ _______ _______ _____ _____    ______ ____
ROOT
ATOM      1  C   UNL     1       6.376   4.236  16.234  0.00  0.00    +0.000 C 
ATOM      2  N   UNL     1       5.311   4.983  16.885  0.00  0.00    +0.000 N 
ATOM      3  C   UNL     1       4.442   4.389  17.794  0.00  0.00    +0.000 A 
ATOM      4  C   UNL     1       3.456   5.114  18.392  0.00  0.00    +0.000 A 
ATOM      5  C   UNL     1       3.349   6.572  18.023  0.00  0.00    +0.000 A 
ATOM      6  O   UNL     1       2.504   7.318  18.522  0.00  0.00    +0.000 OA
ATOM      7  N   UNL     1       4.235   7.042  17.112  0.00  0.00    +0.000 N 
ATOM      8  C   UNL     1       5.219   6.316  16.516  0.00  0.00    +0.000 A 
ATOM      9  O   UNL     1       5.957   6.859  15.695  0.00  0.00    +0.000 OA
ATOM     10  H   UNL     1       4.171   8.014  16.857  0.00  0.00    +0.000 HD
ENDROOT
BRANCH   4  11
ATOM     11  N   UNL     1       2.513   4.607  19.309  0.00  0.00    +0.000 N 
ATOM     12  C   UNL     1       2.720   4.694  20.764  0.00  0.00    +0.000 C 
ATOM     13  C   UNL     1       2.329   3.385  21.463  0.00  0.00    +0.000 C 
ATOM     14  O   UNL     1       1.026   2.913  21.084  0.00  0.00    +0.000 OA
ATOM     15  C   UNL     1       0.870   2.786  19.651  0.00  0.00    +0.000 C 
ATOM     16  C   UNL     1       1.181   4.109  18.932  0.00  0.00    +0.000 C 
BRANCH  15  17
ATOM     17  C   UNL     1       1.688   1.616  19.088  0.00  0.00    +0.000 C 
BRANCH  17  18
ATOM     18  O   UNL     1       1.907   1.806  17.689  0.00  0.00    +0.000 OA
ATOM     19  H   UNL     1       2.869   1.703  17.553  0.00  0.00    +0.000 HD
ENDBRANCH  17  18
ENDBRANCH  15  17
ENDBRANCH   4  11
BRANCH   3  20
ATOM     20  N   UNL     1       4.526   3.022  18.060  0.00  0.00    +0.000 N 
ATOM     21  H   UNL     1       4.505   2.475  17.208  0.00  0.00    +0.000 HD
ATOM     22  H   UNL     1       3.747   2.745  18.654  0.00  0.00    +0.000 HD
ENDBRANCH   3  20
TORSDOF 4
ENDMDL
MODEL 5
REMARK VINA RESULT:      -6.3      2.066      2.910
REMARK  Name = 
REMARK  5 active torsions:
REMARK  status: ('A' for Active; 'I' for Inactive)
REMARK    1  A    between atoms: C_1  and  N_2
REMARK    2  A    between atoms: C_3  and  N_4
REMARK    3  A    between atoms: C_5  and  N_6
REMARK    4  A    between atoms: C_10  and  C_11
REMARK    5  A    between atoms: C_11  and  O_12
REMARK                            x       y       z     vdW  Elec       q    Type
REMARK                         _______ _______ _______ _____ _____    ______ ____
ROOT
ATOM      1  C   UNL     1       5.446   4.182  14.199  0.00  0.00    +0.000 C 
ATOM      2  N   UNL     1       5.858   4.432  15.572  0.00  0.00    +0.000 N 
ATOM      3  C   UNL     1       5.034   4.143  16.654  0.00  0.00    +0.000 A 
ATOM      4  C   UNL     1       5.448   4.384  17.929  0.00  0.00    +0.000 A 
ATOM      5  C   UNL     1       6.823   4.975  18.110  0.00  0.00    +0.000 A 
ATOM      6  O   UNL     1       7.297   5.212  19.223  0.00  0.00    +0.000 OA
ATOM      7  N   UNL     1       7.534   5.234  16.986  0.00  0.00    +0.000 N 
ATOM      8  C   UNL     1       7.118   4.993  15.714  0.00  0.00    +0.000 A 
ATOM      9  O   UNL     1       7.856   5.282  14.772  0.00  0.00    +0.000 OA
ATOM     10  H   UNL     1       8.452   5.631  17.096  0.00  0.00    +0.000 HD
ENDROOT
BRANCH   4  11
ATOM     11  N   UNL     1       4.686   4.149  19.092  0.00  0.00    +0.000 N 
ATOM     12  C   UNL     1       4.735   2.861  19.805  0.00  0.00    +0.000 C 
ATOM     13  C   UNL     1       3.333   2.406  20.233  0.00  0.00    +0.000 C 
ATOM     14  O   UNL     1       2.597   3.429  20.923  0.00  0.00    +0.000 OA
ATOM     15  C   UNL     1       2.520   4.666  20.175  0.00  0.00    +0.000 C 
ATOM     16  C   UNL     1       3.917   5.184  19.800  0.00  0.00    +0.000 C 
BRANCH  15  17
ATOM     17  C   UNL     1       1.603   4.538  18.950  0.00  0.00    +0.000 C 
BRANCH  17  18
ATOM     18  O   UNL     1       1.956   5.520  17.975  0.00  0.00    +0.000 OA
ATOM     19  H   UNL     1       1.563   5.216  17.135  0.00  0.00    +0.000 HD
ENDBRANCH  17  18
ENDBRANCH  15  17
ENDBRANCH   4  11
BRANCH   3  20
ATOM     20  N   UNL     1       3.740   3.662  16.448  0.00  0.00    +0.000 N 
ATOM     21  H   UNL     1       3.042   4.319  16.774  0.00  0.00    +0.000 HD
ATOM     22  H   UNL     1       3.626   2.779  16.942  0.00  0.00    +0.000 HD
ENDBRANCH   3  20
TORSDOF 4
ENDMDL
MODEL 6
REMARK VINA RESULT:      -6.3      1.743      5.439
REMARK  Name = 
REMARK  5 active torsions:
REMARK  status: ('A' for Active; 'I' for Inactive)
REMARK    1  A    between atoms: C_1  and  N_2
REMARK    2  A    between atoms: C_3  and  N_4
REMARK    3  A    between atoms: C_5  and  N_6
REMARK    4  A    between atoms: C_10  and  C_11
REMARK    5  A    between atoms: C_11  and  O_12
REMARK                            x       y       z     vdW  Elec       q    Type
REMARK                         _______ _______ _______ _____ _____    ______ ____
ROOT
ATOM      1  C   UNL     1       1.232   3.381  20.977  0.00  0.00    +0.000 C 
ATOM      2  N   UNL     1       2.149   3.420  19.849  0.00  0.00    +0.000 N 
ATOM      3  C   UNL     1       3.001   4.496  19.626  0.00  0.00    +0.000 A 
ATOM      4  C   UNL     1       3.852   4.503  18.562  0.00  0.00    +0.000 A 
ATOM      5  C   UNL     1       3.825   3.305  17.647  0.00  0.00    +0.000 A 
ATOM      6  O   UNL     1       4.569   3.207  16.669  0.00  0.00    +0.000 OA
ATOM      7  N   UNL     1       2.942   2.322  17.947  0.00  0.00    +0.000 N 
ATOM      8  C   UNL     1       2.093   2.318  19.009  0.00  0.00    +0.000 A 
ATOM      9  O   UNL     1       1.330   1.365  19.169  0.00  0.00    +0.000 OA
ATOM     10  H   UNL     1       2.914   1.519  17.340  0.00  0.00    +0.000 HD
ENDROOT
BRANCH   4  11
ATOM     11  N   UNL     1       4.739   5.549  18.234  0.00  0.00    +0.000 N 
ATOM     12  C   UNL     1       4.342   6.654  17.346  0.00  0.00    +0.000 C 
ATOM     13  C   UNL     1       5.455   6.997  16.348  0.00  0.00    +0.000 C 
ATOM     14  O   UNL     1       6.735   7.180  16.974  0.00  0.00    +0.000 OA
ATOM     15  C   UNL     1       7.123   6.055  17.798  0.00  0.00    +0.000 C 
ATOM     16  C   UNL     1       6.057   5.740  18.859  0.00  0.00    +0.000 C 
BRANCH  15  17
ATOM     17  C   UNL     1       7.480   4.824  16.953  0.00  0.00    +0.000 C 
BRANCH  17  18
ATOM     18  O   UNL     1       8.333   3.954  17.699  0.00  0.00    +0.000 OA
ATOM     19  H   UNL     1       8.682   4.490  18.437  0.00  0.00    +0.000 HD
ENDBRANCH  17  18
ENDBRANCH  15  17
ENDBRANCH   4  11
BRANCH   3  20
ATOM     20  N   UNL     1       2.951   5.619  20.454  0.00  0.00    +0.000 N 
ATOM     21  H   UNL     1       3.435   6.407  20.040  0.00  0.00    +0.000 HD
ATOM     22  H   UNL     1       3.379   5.396  21.350  0.00  0.00    +0.000 HD
ENDBRANCH   3  20
TORSDOF 4
ENDMDL
MODEL 7
REMARK VINA RESULT:      -6.2      1.954      2.609
REMARK  Name = 
REMARK  5 active torsions:
REMARK  status: ('A' for Active; 'I' for Inactive)
REMARK    1  A    between atoms: C_1  and  N_2
REMARK    2  A    between atoms: C_3  and  N_4
REMARK    3  A    between atoms: C_5  and  N_6
REMARK    4  A    between atoms: C_10  and  C_11
REMARK    5  A    between atoms: C_11  and  O_12
REMARK                            x       y       z     vdW  Elec       q    Type
REMARK                         _______ _______ _______ _____ _____    ______ ____
ROOT
ATOM      1  C   UNL     1       7.369   7.687  17.142  0.00  0.00    +0.000 C 
ATOM      2  N   UNL     1       6.720   6.574  17.817  0.00  0.00    +0.000 N 
ATOM      3  C   UNL     1       5.451   6.132  17.459  0.00  0.00    +0.000 A 
ATOM      4  C   UNL     1       4.870   5.084  18.106  0.00  0.00    +0.000 A 
ATOM      5  C   UNL     1       5.655   4.435  19.217  0.00  0.00    +0.000 A 
ATOM      6  O   UNL     1       5.226   3.469  19.850  0.00  0.00    +0.000 OA
ATOM      7  N   UNL     1       6.874   4.958  19.495  0.00  0.00    +0.000 N 
ATOM      8  C   UNL     1       7.452   6.005  18.848  0.00  0.00    +0.000 A 
ATOM      9  O   UNL     1       8.565   6.393  19.202  0.00  0.00    +0.000 OA
ATOM     10  H   UNL     1       7.406   4.534  20.237  0.00  0.00    +0.000 HD
ENDROOT
BRANCH   4  11
ATOM     11  N   UNL     1       3.584   4.572  17.837  0.00  0.00    +0.000 N 
ATOM     12  C   UNL     1       2.365   5.241  18.322  0.00  0.00    +0.000 C 
ATOM     13  C   UNL     1       1.352   4.227  18.872  0.00  0.00    +0.000 C 
ATOM     14  O   UNL     1       1.102   3.137  17.970  0.00  0.00    +0.000 OA
ATOM     15  C   UNL     1       2.314   2.465  17.553  0.00  0.00    +0.000 C 
ATOM     16  C   UNL     1       3.316   3.448  16.926  0.00  0.00    +0.000 C 
BRANCH  15  17
ATOM     17  C   UNL     1       2.940   1.652  18.695  0.00  0.00    +0.000 C 
BRANCH  17  18
ATOM     18  O   UNL     1       4.222   1.164  18.298  0.00  0.00    +0.000 OA
ATOM     19  H   UNL     1       4.435   0.439  18.915  0.00  0.00    +0.000 HD
ENDBRANCH  17  18
ENDBRANCH  15  17
ENDBRANCH   4  11
BRANCH   3  20
ATOM     20  N   UNL     1       4.724   6.800  16.472  0.00  0.00    +0.000 N 
ATOM     21  H   UNL     1       4.940   6.447  15.548  0.00  0.00    +0.000 HD
ATOM     22  H   UNL     1       4.938   7.794  16.509  0.00  0.00    +0.000 HD
ENDBRANCH   3  20
TORSDOF 4
ENDMDL
MODEL 8
REMARK VINA RESULT:      -6.1      2.176      5.629
REMARK  Name = 
REMARK  5 active torsions:
REMARK  status: ('A' for Active; 'I' for Inactive)
REMARK    1  A    between atoms: C_1  and  N_2
REMARK    2  A    between atoms: C_3  and  N_4
REMARK    3  A    between atoms: C_5  and  N_6
REMARK    4  A    between atoms: C_10  and  C_11
REMARK    5  A    between atoms: C_11  and  O_12
REMARK                            x       y       z     vdW  Elec       q    Type
REMARK                         _______ _______ _______ _____ _____    ______ ____
ROOT
ATOM      1  C   UNL     1       0.744   3.104  20.159  0.00  0.00    +0.000 C 
ATOM      2  N   UNL     1       2.133   3.380  19.827  0.00  0.00    +0.000 N 
ATOM      3  C   UNL     1       2.498   4.016  18.645  0.00  0.00    +0.000 A 
ATOM      4  C   UNL     1       3.807   4.265  18.363  0.00  0.00    +0.000 A 
ATOM      5  C   UNL     1       4.830   3.822  19.377  0.00  0.00    +0.000 A 
ATOM      6  O   UNL     1       6.037   4.017  19.224  0.00  0.00    +0.000 OA
ATOM      7  N   UNL     1       4.365   3.194  20.485  0.00  0.00    +0.000 N 
ATOM      8  C   UNL     1       3.058   2.946  20.765  0.00  0.00    +0.000 A 
ATOM      9  O   UNL     1       2.764   2.359  21.805  0.00  0.00    +0.000 OA
ATOM     10  H   UNL     1       5.041   2.892  21.168  0.00  0.00    +0.000 HD
ENDROOT
BRANCH   4  11
ATOM     11  N   UNL     1       4.284   4.882  17.188  0.00  0.00    +0.000 N 
ATOM     12  C   UNL     1       4.695   4.098  16.011  0.00  0.00    +0.000 C 
ATOM     13  C   UNL     1       5.993   4.644  15.401  0.00  0.00    +0.000 C 
ATOM     14  O   UNL     1       5.954   6.063  15.175  0.00  0.00    +0.000 OA
ATOM     15  C   UNL     1       5.601   6.810  16.363  0.00  0.00    +0.000 C 
ATOM     16  C   UNL     1       4.263   6.334  16.950  0.00  0.00    +0.000 C 
BRANCH  15  17
ATOM     17  C   UNL     1       6.728   6.795  17.405  0.00  0.00    +0.000 C 
BRANCH  17  18
ATOM     18  O   UNL     1       7.736   7.740  17.042  0.00  0.00    +0.000 OA
ATOM     19  H   UNL     1       8.590   7.305  17.232  0.00  0.00    +0.000 HD
ENDBRANCH  17  18
ENDBRANCH  15  17
ENDBRANCH   4  11
BRANCH   3  20
ATOM     20  N   UNL     1       1.530   4.351  17.696  0.00  0.00    +0.000 N 
ATOM     21  H   UNL     1       1.777   4.006  16.776  0.00  0.00    +0.000 HD
ATOM     22  H   UNL     1       1.431   5.363  17.658  0.00  0.00    +0.000 HD
ENDBRANCH   3  20
TORSDOF 4
ENDMDL
MODEL 9
REMARK VINA RESULT:      -6.0      1.575      1.717
REMARK  Name = 
REMARK  5 active torsions:
REMARK  status: ('A' for Active; 'I' for Inactive)
REMARK    1  A    between atoms: C_1  and  N_2
REMARK    2  A    between atoms: C_3  and  N_4
REMARK    3  A    between atoms: C_5  and  N_6
REMARK    4  A    between atoms: C_10  and  C_11
REMARK    5  A    between atoms: C_11  and  O_12
REMARK                            x       y       z     vdW  Elec       q    Type
REMARK                         _______ _______ _______ _____ _____    ______ ____
ROOT
ATOM      1  C   UNL     1       8.026   5.595  19.837  0.00  0.00    +0.000 C 
ATOM      2  N   UNL     1       7.010   5.884  18.838  0.00  0.00    +0.000 N 
ATOM      3  C   UNL     1       5.830   5.153  18.752  0.00  0.00    +0.000 A 
ATOM      4  C   UNL     1       4.894   5.450  17.808  0.00  0.00    +0.000 A 
ATOM      5  C   UNL     1       5.194   6.591  16.869  0.00  0.00    +0.000 A 
ATOM      6  O   UNL     1       4.404   6.949  15.994  0.00  0.00    +0.000 OA
ATOM      7  N   UNL     1       6.383   7.222  17.030  0.00  0.00    +0.000 N 
ATOM      8  C   UNL     1       7.316   6.924  17.973  0.00  0.00    +0.000 A 
ATOM      9  O   UNL     1       8.363   7.568  18.010  0.00  0.00    +0.000 OA
ATOM     10  H   UNL     1       6.594   7.983  16.406  0.00  0.00    +0.000 HD
ENDROOT
BRANCH   4  11
ATOM     11  N   UNL     1       3.677   4.762  17.622  0.00  0.00    +0.000 N 
ATOM     12  C   UNL     1       2.395   5.306  18.101  0.00  0.00    +0.000 C 
ATOM     13  C   UNL     1       1.536   4.217  18.756  0.00  0.00    +0.000 C 
ATOM     14  O   UNL     1       1.404   3.040  17.943  0.00  0.00    +0.000 OA
ATOM     15  C   UNL     1       2.681   2.496  17.532  0.00  0.00    +0.000 C 
ATOM     16  C   UNL     1       3.532   3.548  16.803  0.00  0.00    +0.000 C 
BRANCH  15  17
ATOM     17  C   UNL     1       3.434   1.856  18.706  0.00  0.00    +0.000 C 
BRANCH  17  18
ATOM     18  O   UNL     1       4.071   0.652  18.276  0.00  0.00    +0.000 OA
ATOM     19  H   UNL     1       3.680  -0.064  18.812  0.00  0.00    +0.000 HD
ENDBRANCH  17  18
ENDBRANCH  15  17
ENDBRANCH   4  11
BRANCH   3  20
ATOM     20  N   UNL     1       5.614   4.060  19.592  0.00  0.00    +0.000 N 
ATOM     21  H   UNL     1       5.682   4.322  20.568  0.00  0.00    +0.000 HD
ATOM     22  H   UNL     1       6.303   3.338  19.390  0.00  0.00    +0.000 HD
ENDBRANCH   3  20
TORSDOF 4
ENDMDL
