MODEL 1
REMARK VINA RESULT:      -8.4      0.000      0.000
REMARK  Name = 
REMARK  8 active torsions:
REMARK  status: ('A' for Active; 'I' for Inactive)
REMARK    1  A    between atoms: C_1  and  N_2
REMARK    2  A    between atoms: C_3  and  C_5
REMARK    3  A    between atoms: C_6  and  C_7
REMARK    4  A    between atoms: C_9  and  O_10
REMARK    5  A    between atoms: O_10  and  C_11
REMARK    6  A    between atoms: C_13  and  C_14
REMARK    7  A    between atoms: C_19  and  O_20
REMARK    8  A    between atoms: O_20  and  C_21
REMARK                            x       y       z     vdW  Elec       q    Type
REMARK                         _______ _______ _______ _____ _____    ______ ____
ROOT
ATOM      1  C   UNL     1       4.937   5.306  17.242  0.00  0.00    +0.000 A 
ATOM      2  C   UNL     1       5.244   4.227  18.080  0.00  0.00    +0.000 A 
ATOM      3  C   UNL     1       4.572   4.055  19.292  0.00  0.00    +0.000 A 
ATOM      4  C   UNL     1       3.628   5.001  19.694  0.00  0.00    +0.000 A 
ATOM      5  C   UNL     1       3.319   6.120  18.890  0.00  0.00    +0.000 A 
ATOM      6  C   UNL     1       3.963   6.233  17.651  0.00  0.00    +0.000 A 
ENDROOT
BRANCH   5   7
ATOM      7  C   UNL     1       2.280   7.079  19.326  0.00  0.00    +0.000 A 
ATOM      8  C   UNL     1       1.642   6.950  20.571  0.00  0.00    +0.000 A 
ATOM      9  C   UNL     1       1.003   8.042  21.162  0.00  0.00    +0.000 A 
ATOM     10  C   UNL     1       1.006   9.275  20.506  0.00  0.00    +0.000 A 
ATOM     11  C   UNL     1       0.854  10.484  21.187  0.00  0.00    +0.000 A 
ATOM     12  C   UNL     1       1.090  11.667  20.486  0.00  0.00    +0.000 A 
ATOM     13  C   UNL     1       0.984  11.693  19.103  0.00  0.00    +0.000 A 
ATOM     14  C   UNL     1       1.184  10.509  18.420  0.00  0.00    +0.000 A 
ATOM     15  C   UNL     1       1.372   9.331  19.144  0.00  0.00    +0.000 A 
ATOM     16  C   UNL     1       2.018   8.231  18.574  0.00  0.00    +0.000 A 
BRANCH  12  17
ATOM     17  O   UNL     1       1.685  12.702  21.172  0.00  0.00    +0.000 OA
ATOM     18  C   UNL     1       1.296  13.990  20.649  0.00  0.00    +0.000 C 
ENDBRANCH  12  17
ENDBRANCH   5   7
BRANCH   1  20
ATOM     19  C   UNL     1       6.201   4.353  15.313  0.00  0.00    +0.000 C 
ATOM     20  C   UNL     1       5.598   5.382  15.930  0.00  0.00    +0.000 C 
BRANCH  19  23
ATOM     21  C   UNL     1       7.010   3.704  11.725  0.00  0.00    +0.000 C 
ATOM     22  N   UNL     1       6.451   3.670  13.053  0.00  0.00    +0.000 N 
ATOM     23  C   UNL     1       6.860   4.566  14.005  0.00  0.00    +0.000 C 
ATOM     24  O   UNL     1       7.687   5.452  13.814  0.00  0.00    +0.000 OA
ATOM     25  H   UNL     1       5.776   2.948  13.275  0.00  0.00    +0.000 HD
ENDBRANCH  19  23
ENDBRANCH   1  20
BRANCH   3  26
ATOM     26  O   UNL     1       4.951   2.956  20.016  0.00  0.00    +0.000 OA
ATOM     27  C   UNL     1       3.895   2.241  20.653  0.00  0.00    +0.000 C 
ENDBRANCH   3  26
TORSDOF 5
ENDMDL
MODEL 2
REMARK VINA RESULT:      -8.3      5.161      8.870
REMARK  Name = 
REMARK  8 active torsions:
REMARK  status: ('A' for Active; 'I' for Inactive)
REMARK    1  A    between atoms: C_1  and  N_2
REMARK    2  A    between atoms: C_3  and  C_5
REMARK    3  A    between atoms: C_6  and  C_7
REMARK    4  A    between atoms: C_9  and  O_10
REMARK    5  A    between atoms: O_10  and  C_11
REMARK    6  A    between atoms: C_13  and  C_14
REMARK    7  A    between atoms: C_19  and  O_20
REMARK    8  A    between atoms: O_20  and  C_21
REMARK                            x       y       z     vdW  Elec       q    Type
REMARK                         _______ _______ _______ _____ _____    ______ ____
ROOT
ATOM      1  C   UNL     1      -3.143  10.716  16.676  0.00  0.00    +0.000 A 
ATOM      2  C   UNL     1      -3.882  11.571  17.501  0.00  0.00    +0.000 A 
ATOM      3  C   UNL     1      -3.416  11.911  18.773  0.00  0.00    +0.000 A 
ATOM      4  C   UNL     1      -2.230  11.345  19.243  0.00  0.00    +0.000 A 
ATOM      5  C   UNL     1      -1.476  10.452  18.450  0.00  0.00    +0.000 A 
ATOM      6  C   UNL     1      -1.936  10.178  17.156  0.00  0.00    +0.000 A 
ENDROOT
BRANCH   5   7
ATOM      7  C   UNL     1      -0.199   9.907  18.962  0.00  0.00    +0.000 A 
ATOM      8  C   UNL     1      -0.014   9.641  20.330  0.00  0.00    +0.000 A 
ATOM      9  C   UNL     1       0.980   8.757  20.757  0.00  0.00    +0.000 A 
ATOM     10  C   UNL     1       1.792   8.130  19.809  0.00  0.00    +0.000 A 
ATOM     11  C   UNL     1       2.437   6.918  20.063  0.00  0.00    +0.000 A 
ATOM     12  C   UNL     1       3.042   6.259  18.992  0.00  0.00    +0.000 A 
ATOM     13  C   UNL     1       3.431   6.967  17.865  0.00  0.00    +0.000 A 
ATOM     14  C   UNL     1       2.761   8.142  17.580  0.00  0.00    +0.000 A 
ATOM     15  C   UNL     1       1.810   8.618  18.485  0.00  0.00    +0.000 A 
ATOM     16  C   UNL     1       0.803   9.494  18.076  0.00  0.00    +0.000 A 
BRANCH  12  17
ATOM     17  O   UNL     1       2.985   4.883  18.982  0.00  0.00    +0.000 OA
ATOM     18  C   UNL     1       2.991   4.354  17.639  0.00  0.00    +0.000 C 
ENDBRANCH  12  17
ENDBRANCH   5   7
BRANCH   1  20
ATOM     19  C   UNL     1      -2.953   9.796  14.365  0.00  0.00    +0.000 C 
ATOM     20  C   UNL     1      -3.625  10.475  15.308  0.00  0.00    +0.000 C 
BRANCH  19  23
ATOM     21  C   UNL     1      -5.647   9.542  11.790  0.00  0.00    +0.000 C 
ATOM     22  N   UNL     1      -4.905   9.700  13.014  0.00  0.00    +0.000 N 
ATOM     23  C   UNL     1      -3.535   9.649  13.011  0.00  0.00    +0.000 C 
ATOM     24  O   UNL     1      -2.849   9.491  12.006  0.00  0.00    +0.000 OA
ATOM     25  H   UNL     1      -5.418   9.815  13.880  0.00  0.00    +0.000 HD
ENDBRANCH  19  23
ENDBRANCH   1  20
BRANCH   3  26
ATOM     26  O   UNL     1      -4.221  12.765  19.479  0.00  0.00    +0.000 OA
ATOM     27  C   UNL     1      -5.589  12.380  19.584  0.00  0.00    +0.000 C 
ENDBRANCH   3  26
TORSDOF 5
ENDMDL
MODEL 3
REMARK VINA RESULT:      -8.2      1.821      2.452
REMARK  Name = 
REMARK  8 active torsions:
REMARK  status: ('A' for Active; 'I' for Inactive)
REMARK    1  A    between atoms: C_1  and  N_2
REMARK    2  A    between atoms: C_3  and  C_5
REMARK    3  A    between atoms: C_6  and  C_7
REMARK    4  A    between atoms: C_9  and  O_10
REMARK    5  A    between atoms: O_10  and  C_11
REMARK    6  A    between atoms: C_13  and  C_14
REMARK    7  A    between atoms: C_19  and  O_20
REMARK    8  A    between atoms: O_20  and  C_21
REMARK                            x       y       z     vdW  Elec       q    Type
REMARK                         _______ _______ _______ _____ _____    ______ ____
ROOT
ATOM      1  C   UNL     1       4.215   4.576  17.126  0.00  0.00    +0.000 A 
ATOM      2  C   UNL     1       3.577   3.543  17.822  0.00  0.00    +0.000 A 
ATOM      3  C   UNL     1       2.591   3.827  18.770  0.00  0.00    +0.000 A 
ATOM      4  C   UNL     1       2.284   5.157  19.063  0.00  0.00    +0.000 A 
ATOM      5  C   UNL     1       2.933   6.225  18.405  0.00  0.00    +0.000 A 
ATOM      6  C   UNL     1       3.873   5.909  17.415  0.00  0.00    +0.000 A 
ENDROOT
BRANCH   5   7
ATOM      7  C   UNL     1       2.550   7.621  18.707  0.00  0.00    +0.000 A 
ATOM      8  C   UNL     1       2.791   8.660  17.793  0.00  0.00    +0.000 A 
ATOM      9  C   UNL     1       2.076   9.858  17.867  0.00  0.00    +0.000 A 
ATOM     10  C   UNL     1       1.109  10.017  18.862  0.00  0.00    +0.000 A 
ATOM     11  C   UNL     1       0.042  10.908  18.730  0.00  0.00    +0.000 A 
ATOM     12  C   UNL     1      -0.990  10.840  19.667  0.00  0.00    +0.000 A 
ATOM     13  C   UNL     1      -0.760  10.296  20.922  0.00  0.00    +0.000 A 
ATOM     14  C   UNL     1       0.261   9.374  21.047  0.00  0.00    +0.000 A 
ATOM     15  C   UNL     1       1.080   9.114  19.947  0.00  0.00    +0.000 A 
ATOM     16  C   UNL     1       1.795   7.918  19.848  0.00  0.00    +0.000 A 
BRANCH  12  17
ATOM     17  O   UNL     1      -2.271  11.068  19.215  0.00  0.00    +0.000 OA
ATOM     18  C   UNL     1      -2.534  10.380  17.974  0.00  0.00    +0.000 C 
ENDBRANCH  12  17
ENDBRANCH   5   7
BRANCH   1  20
ATOM     19  C   UNL     1       5.575   5.044  15.087  0.00  0.00    +0.000 C 
ATOM     20  C   UNL     1       5.169   4.218  16.065  0.00  0.00    +0.000 C 
BRANCH  19  23
ATOM     21  C   UNL     1       6.683   3.150  12.065  0.00  0.00    +0.000 C 
ATOM     22  N   UNL     1       5.914   3.747  13.127  0.00  0.00    +0.000 N 
ATOM     23  C   UNL     1       6.518   4.553  14.056  0.00  0.00    +0.000 C 
ATOM     24  O   UNL     1       7.710   4.842  14.054  0.00  0.00    +0.000 OA
ATOM     25  H   UNL     1       4.926   3.531  13.191  0.00  0.00    +0.000 HD
ENDBRANCH  19  23
ENDBRANCH   1  20
BRANCH   3  26
ATOM     26  O   UNL     1       2.031   2.733  19.373  0.00  0.00    +0.000 OA
ATOM     27  C   UNL     1       0.692   2.898  19.832  0.00  0.00    +0.000 C 
ENDBRANCH   3  26
TORSDOF 5
ENDMDL
MODEL 4
REMARK VINA RESULT:      -8.1      1.750      2.293
REMARK  Name = 
REMARK  8 active torsions:
REMARK  status: ('A' for Active; 'I' for Inactive)
REMARK    1  A    between atoms: C_1  and  N_2
REMARK    2  A    between atoms: C_3  and  C_5
REMARK    3  A    between atoms: C_6  and  C_7
REMARK    4  A    between atoms: C_9  and  O_10
REMARK    5  A    between atoms: O_10  and  C_11
REMARK    6  A    between atoms: C_13  and  C_14
REMARK    7  A    between atoms: C_19  and  O_20
REMARK    8  A    between atoms: O_20  and  C_21
REMARK                            x       y       z     vdW  Elec       q    Type
REMARK                         _______ _______ _______ _____ _____    ______ ____
ROOT
ATOM      1  C   UNL     1       5.498   4.345  16.084  0.00  0.00    +0.000 A 
ATOM      2  C   UNL     1       6.700   4.380  16.801  0.00  0.00    +0.000 A 
ATOM      3  C   UNL     1       6.758   4.973  18.064  0.00  0.00    +0.000 A 
ATOM      4  C   UNL     1       5.618   5.584  18.588  0.00  0.00    +0.000 A 
ATOM      5  C   UNL     1       4.397   5.597  17.878  0.00  0.00    +0.000 A 
ATOM      6  C   UNL     1       4.353   4.941  16.641  0.00  0.00    +0.000 A 
ENDROOT
BRANCH   5   7
ATOM      7  C   UNL     1       3.197   6.214  18.483  0.00  0.00    +0.000 A 
ATOM      8  C   UNL     1       2.671   5.750  19.701  0.00  0.00    +0.000 A 
ATOM      9  C   UNL     1       1.839   6.562  20.475  0.00  0.00    +0.000 A 
ATOM     10  C   UNL     1       1.532   7.850  20.030  0.00  0.00    +0.000 A 
ATOM     11  C   UNL     1       1.154   8.871  20.904  0.00  0.00    +0.000 A 
ATOM     12  C   UNL     1       1.083  10.171  20.403  0.00  0.00    +0.000 A 
ATOM     13  C   UNL     1       0.900  10.389  19.046  0.00  0.00    +0.000 A 
ATOM     14  C   UNL     1       1.320   9.403  18.173  0.00  0.00    +0.000 A 
ATOM     15  C   UNL     1       1.803   8.200  18.690  0.00  0.00    +0.000 A 
ATOM     16  C   UNL     1       2.645   7.379  17.936  0.00  0.00    +0.000 A 
BRANCH  12  17
ATOM     17  O   UNL     1       1.470  11.194  21.240  0.00  0.00    +0.000 OA
ATOM     18  C   UNL     1       1.318  12.487  20.617  0.00  0.00    +0.000 C 
ENDBRANCH  12  17
ENDBRANCH   5   7
BRANCH   1  20
ATOM     19  C   UNL     1       5.682   4.170  13.602  0.00  0.00    +0.000 C 
ATOM     20  C   UNL     1       5.467   3.617  14.807  0.00  0.00    +0.000 C 
BRANCH  19  23
ATOM     21  C   UNL     1       6.828   1.740  11.007  0.00  0.00    +0.000 C 
ATOM     22  N   UNL     1       6.722   2.591  12.165  0.00  0.00    +0.000 N 
ATOM     23  C   UNL     1       5.591   3.333  12.384  0.00  0.00    +0.000 C 
ATOM     24  O   UNL     1       4.604   3.324  11.656  0.00  0.00    +0.000 OA
ATOM     25  H   UNL     1       7.514   2.653  12.794  0.00  0.00    +0.000 HD
ENDBRANCH  19  23
ENDBRANCH   1  20
BRANCH   3  26
ATOM     26  O   UNL     1       7.985   4.933  18.670  0.00  0.00    +0.000 OA
ATOM     27  C   UNL     1       8.158   5.816  19.774  0.00  0.00    +0.000 C 
ENDBRANCH   3  26
TORSDOF 5
ENDMDL
MODEL 5
REMARK VINA RESULT:      -8.0      1.874      2.471
REMARK  Name = 
REMARK  8 active torsions:
REMARK  status: ('A' for Active; 'I' for Inactive)
REMARK    1  A    between atoms: C_1  and  N_2
REMARK    2  A    between atoms: C_3  and  C_5
REMARK    3  A    between atoms: C_6  and  C_7
REMARK    4  A    between atoms: C_9  and  O_10
REMARK    5  A    between atoms: O_10  and  C_11
REMARK    6  A    between atoms: C_13  and  C_14
REMARK    7  A    between atoms: C_19  and  O_20
REMARK    8  A    between atoms: O_20  and  C_21
REMARK                            x       y       z     vdW  Elec       q    Type
REMARK                         _______ _______ _______ _____ _____    ______ ____
ROOT
ATOM      1  C   UNL     1       3.700   4.983  17.666  0.00  0.00    +0.000 A 
ATOM      2  C   UNL     1       3.108   4.028  18.500  0.00  0.00    +0.000 A 
ATOM      3  C   UNL     1       2.187   4.410  19.477  0.00  0.00    +0.000 A 
ATOM      4  C   UNL     1       1.898   5.764  19.657  0.00  0.00    +0.000 A 
ATOM      5  C   UNL     1       2.503   6.758  18.855  0.00  0.00    +0.000 A 
ATOM      6  C   UNL     1       3.376   6.339  17.842  0.00  0.00    +0.000 A 
ENDROOT
BRANCH   5   7
ATOM      7  C   UNL     1       2.140   8.179  19.042  0.00  0.00    +0.000 A 
ATOM      8  C   UNL     1       2.332   9.124  18.019  0.00  0.00    +0.000 A 
ATOM      9  C   UNL     1       1.624  10.328  18.017  0.00  0.00    +0.000 A 
ATOM     10  C   UNL     1       0.713  10.588  19.043  0.00  0.00    +0.000 A 
ATOM     11  C   UNL     1      -0.357  11.471  18.885  0.00  0.00    +0.000 A 
ATOM     12  C   UNL     1      -1.336  11.501  19.879  0.00  0.00    +0.000 A 
ATOM     13  C   UNL     1      -1.039  11.078  21.166  0.00  0.00    +0.000 A 
ATOM     14  C   UNL     1      -0.015  10.165  21.323  0.00  0.00    +0.000 A 
ATOM     15  C   UNL     1       0.742   9.795  20.210  0.00  0.00    +0.000 A 
ATOM     16  C   UNL     1       1.448   8.590  20.188  0.00  0.00    +0.000 A 
BRANCH  12  17
ATOM     17  O   UNL     1      -2.640  11.693  19.477  0.00  0.00    +0.000 OA
ATOM     18  C   UNL     1      -3.281  12.751  20.222  0.00  0.00    +0.000 C 
ENDBRANCH  12  17
ENDBRANCH   5   7
BRANCH   1  20
ATOM     19  C   UNL     1       5.566   5.242  16.030  0.00  0.00    +0.000 C 
ATOM     20  C   UNL     1       4.582   4.517  16.585  0.00  0.00    +0.000 C 
BRANCH  19  23
ATOM     21  C   UNL     1       6.197   3.511  12.781  0.00  0.00    +0.000 C 
ATOM     22  N   UNL     1       5.590   4.142  13.926  0.00  0.00    +0.000 N 
ATOM     23  C   UNL     1       6.367   4.668  14.924  0.00  0.00    +0.000 C 
ATOM     24  O   UNL     1       7.593   4.667  14.923  0.00  0.00    +0.000 OA
ATOM     25  H   UNL     1       4.579   4.158  13.991  0.00  0.00    +0.000 HD
ENDBRANCH  19  23
ENDBRANCH   1  20
BRANCH   3  26
ATOM     26  O   UNL     1       1.668   3.384  20.221  0.00  0.00    +0.000 OA
ATOM     27  C   UNL     1       2.214   3.230  21.528  0.00  0.00    +0.000 C 
ENDBRANCH   3  26
TORSDOF 5
ENDMDL
MODEL 6
REMARK VINA RESULT:      -7.9      1.978      2.763
REMARK  Name = 
REMARK  8 active torsions:
REMARK  status: ('A' for Active; 'I' for Inactive)
REMARK    1  A    between atoms: C_1  and  N_2
REMARK    2  A    between atoms: C_3  and  C_5
REMARK    3  A    between atoms: C_6  and  C_7
REMARK    4  A    between atoms: C_9  and  O_10
REMARK    5  A    between atoms: O_10  and  C_11
REMARK    6  A    between atoms: C_13  and  C_14
REMARK    7  A    between atoms: C_19  and  O_20
REMARK    8  A    between atoms: O_20  and  C_21
REMARK                            x       y       z     vdW  Elec       q    Type
REMARK                         _______ _______ _______ _____ _____    ______ ____
ROOT
ATOM      1  C   UNL     1       6.065   4.838  15.812  0.00  0.00    +0.000 A 
ATOM      2  C   UNL     1       7.192   4.740  16.637  0.00  0.00    +0.000 A 
ATOM      3  C   UNL     1       7.098   5.005  18.005  0.00  0.00    +0.000 A 
ATOM      4  C   UNL     1       5.880   5.429  18.539  0.00  0.00    +0.000 A 
ATOM      5  C   UNL     1       4.731   5.573  17.730  0.00  0.00    +0.000 A 
ATOM      6  C   UNL     1       4.840   5.239  16.374  0.00  0.00    +0.000 A 
ENDROOT
BRANCH   5   7
ATOM      7  C   UNL     1       3.445   5.979  18.338  0.00  0.00    +0.000 A 
ATOM      8  C   UNL     1       2.792   5.166  19.280  0.00  0.00    +0.000 A 
ATOM      9  C   UNL     1       1.844   5.705  20.153  0.00  0.00    +0.000 A 
ATOM     10  C   UNL     1       1.550   7.068  20.088  0.00  0.00    +0.000 A 
ATOM     11  C   UNL     1       1.033   7.774  21.176  0.00  0.00    +0.000 A 
ATOM     12  C   UNL     1       0.978   9.166  21.090  0.00  0.00    +0.000 A 
ATOM     13  C   UNL     1       0.954   9.790  19.852  0.00  0.00    +0.000 A 
ATOM     14  C   UNL     1       1.512   9.118  18.782  0.00  0.00    +0.000 A 
ATOM     15  C   UNL     1       1.969   7.812  18.963  0.00  0.00    +0.000 A 
ATOM     16  C   UNL     1       2.925   7.258  18.108  0.00  0.00    +0.000 A 
BRANCH  12  17
ATOM     17  O   UNL     1       1.226   9.880  22.241  0.00  0.00    +0.000 OA
ATOM     18  C   UNL     1       0.232   9.625  23.257  0.00  0.00    +0.000 C 
ENDBRANCH  12  17
ENDBRANCH   5   7
BRANCH   1  20
ATOM     19  C   UNL     1       5.365   3.611  13.756  0.00  0.00    +0.000 C 
ATOM     20  C   UNL     1       6.196   4.445  14.401  0.00  0.00    +0.000 C 
BRANCH  19  23
ATOM     21  C   UNL     1       7.223   2.183  10.848  0.00  0.00    +0.000 C 
ATOM     22  N   UNL     1       6.792   2.575  12.166  0.00  0.00    +0.000 N 
ATOM     23  C   UNL     1       5.623   3.268  12.339  0.00  0.00    +0.000 C 
ATOM     24  O   UNL     1       4.863   3.586  11.430  0.00  0.00    +0.000 OA
ATOM     25  H   UNL     1       7.387   2.355  12.956  0.00  0.00    +0.000 HD
ENDBRANCH  19  23
ENDBRANCH   1  20
BRANCH   3  26
ATOM     26  O   UNL     1       8.264   4.862  18.707  0.00  0.00    +0.000 OA
ATOM     27  C   UNL     1       8.310   5.519  19.971  0.00  0.00    +0.000 C 
ENDBRANCH   3  26
TORSDOF 5
ENDMDL
MODEL 7
REMARK VINA RESULT:      -7.6      1.238      1.716
REMARK  Name = 
REMARK  8 active torsions:
REMARK  status: ('A' for Active; 'I' for Inactive)
REMARK    1  A    between atoms: C_1  and  N_2
REMARK    2  A    between atoms: C_3  and  C_5
REMARK    3  A    between atoms: C_6  and  C_7
REMARK    4  A    between atoms: C_9  and  O_10
REMARK    5  A    between atoms: O_10  and  C_11
REMARK    6  A    between atoms: C_13  and  C_14
REMARK    7  A    between atoms: C_19  and  O_20
REMARK    8  A    between atoms: O_20  and  C_21
REMARK                            x       y       z     vdW  Elec       q    Type
REMARK                         _______ _______ _______ _____ _____    ______ ____
ROOT
ATOM      1  C   UNL     1       3.722   5.762  18.164  0.00  0.00    +0.000 A 
ATOM      2  C   UNL     1       3.599   4.636  18.985  0.00  0.00    +0.000 A 
ATOM      3  C   UNL     1       2.759   4.656  20.100  0.00  0.00    +0.000 A 
ATOM      4  C   UNL     1       2.082   5.832  20.428  0.00  0.00    +0.000 A 
ATOM      5  C   UNL     1       2.210   6.998  19.641  0.00  0.00    +0.000 A 
ATOM      6  C   UNL     1       3.010   6.929  18.494  0.00  0.00    +0.000 A 
ENDROOT
BRANCH   5   7
ATOM      7  C   UNL     1       1.442   8.213  19.992  0.00  0.00    +0.000 A 
ATOM      8  C   UNL     1       1.012   8.452  21.308  0.00  0.00    +0.000 A 
ATOM      9  C   UNL     1       0.682   9.743  21.728  0.00  0.00    +0.000 A 
ATOM     10  C   UNL     1       0.785  10.804  20.826  0.00  0.00    +0.000 A 
ATOM     11  C   UNL     1       0.963  12.124  21.243  0.00  0.00    +0.000 A 
ATOM     12  C   UNL     1       1.277  13.082  20.277  0.00  0.00    +0.000 A 
ATOM     13  C   UNL     1       0.944  12.869  18.948  0.00  0.00    +0.000 A 
ATOM     14  C   UNL     1       0.817  11.563  18.517  0.00  0.00    +0.000 A 
ATOM     15  C   UNL     1       0.919  10.528  19.448  0.00  0.00    +0.000 A 
ATOM     16  C   UNL     1       1.259   9.233  19.050  0.00  0.00    +0.000 A 
BRANCH  12  17
ATOM     17  O   UNL     1       2.151  14.083  20.639  0.00  0.00    +0.000 OA
ATOM     18  C   UNL     1       3.208  14.251  19.670  0.00  0.00    +0.000 C 
ENDBRANCH  12  17
ENDBRANCH   5   7
BRANCH   1  20
ATOM     19  C   UNL     1       5.594   4.839  16.797  0.00  0.00    +0.000 C 
ATOM     20  C   UNL     1       4.537   5.653  16.945  0.00  0.00    +0.000 C 
BRANCH  19  23
ATOM     21  C   UNL     1       6.425   3.881  13.284  0.00  0.00    +0.000 C 
ATOM     22  N   UNL     1       5.803   4.027  14.575  0.00  0.00    +0.000 N 
ATOM     23  C   UNL     1       6.354   4.845  15.526  0.00  0.00    +0.000 C 
ATOM     24  O   UNL     1       7.370   5.512  15.363  0.00  0.00    +0.000 OA
ATOM     25  H   UNL     1       4.969   3.486  14.775  0.00  0.00    +0.000 HD
ENDBRANCH  19  23
ENDBRANCH   1  20
BRANCH   3  26
ATOM     26  O   UNL     1       2.714   3.490  20.816  0.00  0.00    +0.000 OA
ATOM     27  C   UNL     1       1.437   2.861  20.893  0.00  0.00    +0.000 C 
ENDBRANCH   3  26
TORSDOF 5
ENDMDL
MODEL 8
REMARK VINA RESULT:      -7.6      1.204      1.709
REMARK  Name = 
REMARK  8 active torsions:
REMARK  status: ('A' for Active; 'I' for Inactive)
REMARK    1  A    between atoms: C_1  and  N_2
REMARK    2  A    between atoms: C_3  and  C_5
REMARK    3  A    between atoms: C_6  and  C_7
REMARK    4  A    between atoms: C_9  and  O_10
REMARK    5  A    between atoms: O_10  and  C_11
REMARK    6  A    between atoms: C_13  and  C_14
REMARK    7  A    between atoms: C_19  and  O_20
REMARK    8  A    between atoms: O_20  and  C_21
REMARK                            x       y       z     vdW  Elec       q    Type
REMARK                         _______ _______ _______ _____ _____    ______ ____
ROOT
ATOM      1  C   UNL     1       4.220   6.183  17.283  0.00  0.00    +0.000 A 
ATOM      2  C   UNL     1       4.054   5.124  18.181  0.00  0.00    +0.000 A 
ATOM      3  C   UNL     1       3.166   5.233  19.254  0.00  0.00    +0.000 A 
ATOM      4  C   UNL     1       2.484   6.433  19.460  0.00  0.00    +0.000 A 
ATOM      5  C   UNL     1       2.654   7.535  18.592  0.00  0.00    +0.000 A 
ATOM      6  C   UNL     1       3.503   7.374  17.490  0.00  0.00    +0.000 A 
ENDROOT
BRANCH   5   7
ATOM      7  C   UNL     1       1.880   8.776  18.814  0.00  0.00    +0.000 A 
ATOM      8  C   UNL     1       0.922   8.867  19.838  0.00  0.00    +0.000 A 
ATOM      9  C   UNL     1       0.512  10.111  20.324  0.00  0.00    +0.000 A 
ATOM     10  C   UNL     1       1.067  11.273  19.784  0.00  0.00    +0.000 A 
ATOM     11  C   UNL     1       1.114  12.477  20.490  0.00  0.00    +0.000 A 
ATOM     12  C   UNL     1       1.879  13.518  19.964  0.00  0.00    +0.000 A 
ATOM     13  C   UNL     1       2.163  13.561  18.607  0.00  0.00    +0.000 A 
ATOM     14  C   UNL     1       2.169  12.366  17.913  0.00  0.00    +0.000 A 
ATOM     15  C   UNL     1       1.786  11.196  18.571  0.00  0.00    +0.000 A 
ATOM     16  C   UNL     1       2.194   9.943  18.108  0.00  0.00    +0.000 A 
BRANCH  12  17
ATOM     17  O   UNL     1       2.554  14.321  20.856  0.00  0.00    +0.000 OA
ATOM     18  C   UNL     1       1.657  14.968  21.783  0.00  0.00    +0.000 C 
ENDBRANCH  12  17
ENDBRANCH   5   7
BRANCH   1  20
ATOM     19  C   UNL     1       5.555   4.787  15.702  0.00  0.00    +0.000 C 
ATOM     20  C   UNL     1       5.086   5.977  16.112  0.00  0.00    +0.000 C 
BRANCH  19  23
ATOM     21  C   UNL     1       6.702   3.694  12.321  0.00  0.00    +0.000 C 
ATOM     22  N   UNL     1       5.953   3.909  13.532  0.00  0.00    +0.000 N 
ATOM     23  C   UNL     1       6.447   4.716  14.523  0.00  0.00    +0.000 C 
ATOM     24  O   UNL     1       7.515   5.317  14.461  0.00  0.00    +0.000 OA
ATOM     25  H   UNL     1       5.071   3.425  13.648  0.00  0.00    +0.000 HD
ENDBRANCH  19  23
ENDBRANCH   1  20
BRANCH   3  26
ATOM     26  O   UNL     1       3.081   4.125  20.054  0.00  0.00    +0.000 OA
ATOM     27  C   UNL     1       2.498   2.972  19.455  0.00  0.00    +0.000 C 
ENDBRANCH   3  26
TORSDOF 5
ENDMDL
MODEL 9
REMARK VINA RESULT:      -7.5      2.985      8.225
REMARK  Name = 
REMARK  8 active torsions:
REMARK  status: ('A' for Active; 'I' for Inactive)
REMARK    1  A    between atoms: C_1  and  N_2
REMARK    2  A    between atoms: C_3  and  C_5
REMARK    3  A    between atoms: C_6  and  C_7
REMARK    4  A    between atoms: C_9  and  O_10
REMARK    5  A    between atoms: O_10  and  C_11
REMARK    6  A    between atoms: C_13  and  C_14
REMARK    7  A    between atoms: C_19  and  O_20
REMARK    8  A    between atoms: O_20  and  C_21
REMARK                            x       y       z     vdW  Elec       q    Type
REMARK                         _______ _______ _______ _____ _____    ______ ____
ROOT
ATOM      1  C   UNL     1       1.436   9.664  19.230  0.00  0.00    +0.000 A 
ATOM      2  C   UNL     1       0.656   9.530  20.384  0.00  0.00    +0.000 A 
ATOM      3  C   UNL     1       0.634   8.328  21.093  0.00  0.00    +0.000 A 
ATOM      4  C   UNL     1       1.353   7.233  20.610  0.00  0.00    +0.000 A 
ATOM      5  C   UNL     1       2.124   7.322  19.429  0.00  0.00    +0.000 A 
ATOM      6  C   UNL     1       2.176   8.559  18.774  0.00  0.00    +0.000 A 
ENDROOT
BRANCH   5   7
ATOM      7  C   UNL     1       2.910   6.156  18.971  0.00  0.00    +0.000 A 
ATOM      8  C   UNL     1       2.379   5.228  18.059  0.00  0.00    +0.000 A 
ATOM      9  C   UNL     1       3.220   4.401  17.311  0.00  0.00    +0.000 A 
ATOM     10  C   UNL     1       4.603   4.505  17.472  0.00  0.00    +0.000 A 
ATOM     11  C   UNL     1       5.502   4.119  16.476  0.00  0.00    +0.000 A 
ATOM     12  C   UNL     1       6.845   4.462  16.634  0.00  0.00    +0.000 A 
ATOM     13  C   UNL     1       7.359   4.714  17.897  0.00  0.00    +0.000 A 
ATOM     14  C   UNL     1       6.482   5.146  18.874  0.00  0.00    +0.000 A 
ATOM     15  C   UNL     1       5.118   5.205  18.584  0.00  0.00    +0.000 A 
ATOM     16  C   UNL     1       4.262   6.034  19.314  0.00  0.00    +0.000 A 
BRANCH  12  17
ATOM     17  O   UNL     1       7.548   4.806  15.501  0.00  0.00    +0.000 OA
ATOM     18  C   UNL     1       6.717   4.770  14.321  0.00  0.00    +0.000 C 
ENDBRANCH  12  17
ENDBRANCH   5   7
BRANCH   1  20
ATOM     19  C   UNL     1       1.829  12.128  19.203  0.00  0.00    +0.000 C 
ATOM     20  C   UNL     1       1.506  10.982  18.582  0.00  0.00    +0.000 C 
BRANCH  19  23
ATOM     21  C   UNL     1       3.298  15.057  17.412  0.00  0.00    +0.000 C 
ATOM     22  N   UNL     1       3.097  13.821  18.124  0.00  0.00    +0.000 N 
ATOM     23  C   UNL     1       1.833  13.399  18.444  0.00  0.00    +0.000 C 
ATOM     24  O   UNL     1       0.805  14.000  18.150  0.00  0.00    +0.000 OA
ATOM     25  H   UNL     1       3.910  13.289  18.410  0.00  0.00    +0.000 HD
ENDBRANCH  19  23
ENDBRANCH   1  20
BRANCH   3  26
ATOM     26  O   UNL     1      -0.156   8.325  22.211  0.00  0.00    +0.000 OA
ATOM     27  C   UNL     1      -0.195   9.548  22.942  0.00  0.00    +0.000 C 
ENDBRANCH   3  26
TORSDOF 5
ENDMDL
