MODEL 1
REMARK VINA RESULT:      -6.2      0.000      0.000
REMARK  Name = 
REMARK  13 active torsions:
REMARK  status: ('A' for Active; 'I' for Inactive)
REMARK    1  A    between atoms: C_2  and  C_3
REMARK    2  A    between atoms: C_3  and  C_4
REMARK    3  A    between atoms: C_4  and  C_5
REMARK    4  A    between atoms: C_5  and  C_6
REMARK    5  A    between atoms: C_6  and  C_7
REMARK    6  A    between atoms: C_7  and  C_8
REMARK    7  A    between atoms: C_8  and  C_9
REMARK    8  A    between atoms: C_9  and  C_10
REMARK    9  A    between atoms: C_13  and  C_14
REMARK   10  A    between atoms: C_14  and  C_15
REMARK   11  A    between atoms: C_15  and  C_16
REMARK   12  A    between atoms: C_16  and  C_17
REMARK   13  A    between atoms: C_17  and  C_18
REMARK                            x       y       z     vdW  Elec       q    Type
REMARK                         _______ _______ _______ _____ _____    ______ ____
ROOT
ATOM      1  C   UNL     1       5.629   4.933  18.724  0.00  0.00    +0.000 C 
ATOM      2  C   UNL     1       6.849   5.667  19.240  0.00  0.00    +0.000 C 
ATOM      3  C   UNL     1       7.655   5.879  17.968  0.00  0.00    +0.000 C 
ATOM      4  C   UNL     1       6.600   6.017  16.865  0.00  0.00    +0.000 C 
ATOM      5  N   UNL     1       5.324   5.669  17.498  0.00  0.00    +0.000 NA
ATOM      6  H   UNL     1       4.733   5.104  16.895  0.00  0.00    +0.000 HD
ENDROOT
BRANCH   1   7
ATOM      7  C   UNL     1       4.445   4.957  19.682  0.00  0.00    +0.000 C 
BRANCH   7   8
ATOM      8  C   UNL     1       3.406   5.996  19.260  0.00  0.00    +0.000 C 
BRANCH   8   9
ATOM      9  C   UNL     1       2.082   5.766  19.975  0.00  0.00    +0.000 C 
BRANCH   9  10
ATOM     10  C   UNL     1       2.215   4.643  20.997  0.00  0.00    +0.000 C 
BRANCH  10  11
ATOM     11  C   UNL     1       1.087   3.632  20.831  0.00  0.00    +0.000 C 
BRANCH  11  12
ATOM     12  C   UNL     1       1.605   2.330  20.231  0.00  0.00    +0.000 C 
BRANCH  12  13
ATOM     13  C   UNL     1       1.245   2.243  18.750  0.00  0.00    +0.000 C 
BRANCH  13  15
ATOM     14  C   UNL     1       2.697   3.180  16.945  0.00  0.00    +0.000 C 
ATOM     15  C   UNL     1       2.472   2.261  17.890  0.00  0.00    +0.000 C 
ENDBRANCH  13  15
ENDBRANCH  12  13
ENDBRANCH  11  12
ENDBRANCH  10  11
ENDBRANCH   9  10
ENDBRANCH   8   9
ENDBRANCH   7   8
ENDBRANCH   1   7
BRANCH   4  16
ATOM     16  C   UNL     1       6.903   5.143  15.641  0.00  0.00    +0.000 C 
BRANCH  16  17
ATOM     17  C   UNL     1       5.849   4.051  15.437  0.00  0.00    +0.000 C 
BRANCH  17  18
ATOM     18  C   UNL     1       5.255   4.095  14.033  0.00  0.00    +0.000 C 
BRANCH  18  19
ATOM     19  C   UNL     1       6.281   3.603  13.011  0.00  0.00    +0.000 C 
BRANCH  19  20
ATOM     20  C   UNL     1       5.611   2.983  11.821  0.00  0.00    +0.000 C 
ATOM     21  C   UNL     1       4.355   3.258  11.462  0.00  0.00    +0.000 C 
ENDBRANCH  19  20
ENDBRANCH  18  19
ENDBRANCH  17  18
ENDBRANCH  16  17
ENDBRANCH   4  16
TORSDOF 13
ENDMDL
MODEL 2
REMARK VINA RESULT:      -6.0      2.180      5.131
REMARK  Name = 
REMARK  13 active torsions:
REMARK  status: ('A' for Active; 'I' for Inactive)
REMARK    1  A    between atoms: C_2  and  C_3
REMARK    2  A    between atoms: C_3  and  C_4
REMARK    3  A    between atoms: C_4  and  C_5
REMARK    4  A    between atoms: C_5  and  C_6
REMARK    5  A    between atoms: C_6  and  C_7
REMARK    6  A    between atoms: C_7  and  C_8
REMARK    7  A    between atoms: C_8  and  C_9
REMARK    8  A    between atoms: C_9  and  C_10
REMARK    9  A    between atoms: C_13  and  C_14
REMARK   10  A    between atoms: C_14  and  C_15
REMARK   11  A    between atoms: C_15  and  C_16
REMARK   12  A    between atoms: C_16  and  C_17
REMARK   13  A    between atoms: C_17  and  C_18
REMARK                            x       y       z     vdW  Elec       q    Type
REMARK                         _______ _______ _______ _____ _____    ______ ____
ROOT
ATOM      1  C   UNL     1       4.474   3.649  17.625  0.00  0.00    +0.000 C 
ATOM      2  C   UNL     1       5.028   3.734  16.217  0.00  0.00    +0.000 C 
ATOM      3  C   UNL     1       6.130   4.772  16.371  0.00  0.00    +0.000 C 
ATOM      4  C   UNL     1       6.635   4.585  17.805  0.00  0.00    +0.000 C 
ATOM      5  N   UNL     1       5.692   3.655  18.434  0.00  0.00    +0.000 NA
ATOM      6  H   UNL     1       5.469   3.915  19.390  0.00  0.00    +0.000 HD
ENDROOT
BRANCH   1   7
ATOM      7  C   UNL     1       3.651   2.395  17.888  0.00  0.00    +0.000 C 
BRANCH   7   8
ATOM      8  C   UNL     1       2.844   2.518  19.180  0.00  0.00    +0.000 C 
BRANCH   8   9
ATOM      9  C   UNL     1       1.473   3.123  18.913  0.00  0.00    +0.000 C 
BRANCH   9  10
ATOM     10  C   UNL     1       0.927   3.783  20.173  0.00  0.00    +0.000 C 
BRANCH  10  11
ATOM     11  C   UNL     1       2.011   4.604  20.861  0.00  0.00    +0.000 C 
BRANCH  11  12
ATOM     12  C   UNL     1       1.963   6.059  20.409  0.00  0.00    +0.000 C 
BRANCH  12  13
ATOM     13  C   UNL     1       3.131   6.368  19.475  0.00  0.00    +0.000 C 
BRANCH  13  15
ATOM     14  C   UNL     1       2.241   8.152  17.967  0.00  0.00    +0.000 C 
ATOM     15  C   UNL     1       2.648   6.892  18.156  0.00  0.00    +0.000 C 
ENDBRANCH  13  15
ENDBRANCH  12  13
ENDBRANCH  11  12
ENDBRANCH  10  11
ENDBRANCH   9  10
ENDBRANCH   8   9
ENDBRANCH   7   8
ENDBRANCH   1   7
BRANCH   4  16
ATOM     16  C   UNL     1       6.749   5.910  18.571  0.00  0.00    +0.000 C 
BRANCH  16  17
ATOM     17  C   UNL     1       7.064   7.086  17.644  0.00  0.00    +0.000 C 
BRANCH  17  18
ATOM     18  C   UNL     1       8.207   7.941  18.184  0.00  0.00    +0.000 C 
BRANCH  18  19
ATOM     19  C   UNL     1       8.055   9.385  17.704  0.00  0.00    +0.000 C 
BRANCH  19  20
ATOM     20  C   UNL     1       9.055  10.286  18.365  0.00  0.00    +0.000 C 
ATOM     21  C   UNL     1       9.303  10.268  19.677  0.00  0.00    +0.000 C 
ENDBRANCH  19  20
ENDBRANCH  18  19
ENDBRANCH  17  18
ENDBRANCH  16  17
ENDBRANCH   4  16
TORSDOF 13
ENDMDL
MODEL 3
REMARK VINA RESULT:      -6.0      1.433      6.701
REMARK  Name = 
REMARK  13 active torsions:
REMARK  status: ('A' for Active; 'I' for Inactive)
REMARK    1  A    between atoms: C_2  and  C_3
REMARK    2  A    between atoms: C_3  and  C_4
REMARK    3  A    between atoms: C_4  and  C_5
REMARK    4  A    between atoms: C_5  and  C_6
REMARK    5  A    between atoms: C_6  and  C_7
REMARK    6  A    between atoms: C_7  and  C_8
REMARK    7  A    between atoms: C_8  and  C_9
REMARK    8  A    between atoms: C_9  and  C_10
REMARK    9  A    between atoms: C_13  and  C_14
REMARK   10  A    between atoms: C_14  and  C_15
REMARK   11  A    between atoms: C_15  and  C_16
REMARK   12  A    between atoms: C_16  and  C_17
REMARK   13  A    between atoms: C_17  and  C_18
REMARK                            x       y       z     vdW  Elec       q    Type
REMARK                         _______ _______ _______ _____ _____    ______ ____
ROOT
ATOM      1  C   UNL     1       3.813   5.456  17.745  0.00  0.00    +0.000 C 
ATOM      2  C   UNL     1       3.564   6.945  17.618  0.00  0.00    +0.000 C 
ATOM      3  C   UNL     1       2.572   7.199  18.742  0.00  0.00    +0.000 C 
ATOM      4  C   UNL     1       2.942   6.173  19.819  0.00  0.00    +0.000 C 
ATOM      5  N   UNL     1       3.927   5.286  19.192  0.00  0.00    +0.000 NA
ATOM      6  H   UNL     1       3.782   4.312  19.438  0.00  0.00    +0.000 HD
ENDROOT
BRANCH   1   7
ATOM      7  C   UNL     1       5.076   4.980  17.040  0.00  0.00    +0.000 C 
BRANCH   7   8
ATOM      8  C   UNL     1       5.535   5.981  15.980  0.00  0.00    +0.000 C 
BRANCH   8   9
ATOM      9  C   UNL     1       6.520   5.340  15.013  0.00  0.00    +0.000 C 
BRANCH   9  10
ATOM     10  C   UNL     1       6.112   3.903  14.710  0.00  0.00    +0.000 C 
BRANCH  10  11
ATOM     11  C   UNL     1       5.383   3.823  13.374  0.00  0.00    +0.000 C 
BRANCH  11  12
ATOM     12  C   UNL     1       6.320   3.349  12.269  0.00  0.00    +0.000 C 
BRANCH  12  13
ATOM     13  C   UNL     1       5.633   2.297  11.400  0.00  0.00    +0.000 C 
BRANCH  13  15
ATOM     14  C   UNL     1       6.162  -0.144  11.327  0.00  0.00    +0.000 C 
ATOM     15  C   UNL     1       6.536   1.127  11.148  0.00  0.00    +0.000 C 
ENDBRANCH  13  15
ENDBRANCH  12  13
ENDBRANCH  11  12
ENDBRANCH  10  11
ENDBRANCH   9  10
ENDBRANCH   8   9
ENDBRANCH   7   8
ENDBRANCH   1   7
BRANCH   4  16
ATOM     16  C   UNL     1       1.724   5.410  20.355  0.00  0.00    +0.000 C 
BRANCH  16  17
ATOM     17  C   UNL     1       2.116   4.351  21.388  0.00  0.00    +0.000 C 
BRANCH  17  18
ATOM     18  C   UNL     1       1.372   3.038  21.163  0.00  0.00    +0.000 C 
BRANCH  18  19
ATOM     19  C   UNL     1       0.970   2.908  19.693  0.00  0.00    +0.000 C 
BRANCH  19  20
ATOM     20  C   UNL     1       1.902   1.994  18.953  0.00  0.00    +0.000 C 
ATOM     21  C   UNL     1       2.366   2.256  17.729  0.00  0.00    +0.000 C 
ENDBRANCH  19  20
ENDBRANCH  18  19
ENDBRANCH  17  18
ENDBRANCH  16  17
ENDBRANCH   4  16
TORSDOF 13
ENDMDL
MODEL 4
REMARK VINA RESULT:      -6.0      1.290      1.734
REMARK  Name = 
REMARK  13 active torsions:
REMARK  status: ('A' for Active; 'I' for Inactive)
REMARK    1  A    between atoms: C_2  and  C_3
REMARK    2  A    between atoms: C_3  and  C_4
REMARK    3  A    between atoms: C_4  and  C_5
REMARK    4  A    between atoms: C_5  and  C_6
REMARK    5  A    between atoms: C_6  and  C_7
REMARK    6  A    between atoms: C_7  and  C_8
REMARK    7  A    between atoms: C_8  and  C_9
REMARK    8  A    between atoms: C_9  and  C_10
REMARK    9  A    between atoms: C_13  and  C_14
REMARK   10  A    between atoms: C_14  and  C_15
REMARK   11  A    between atoms: C_15  and  C_16
REMARK   12  A    between atoms: C_16  and  C_17
REMARK   13  A    between atoms: C_17  and  C_18
REMARK                            x       y       z     vdW  Elec       q    Type
REMARK                         _______ _______ _______ _____ _____    ______ ____
ROOT
ATOM      1  C   UNL     1       4.552   4.776  16.796  0.00  0.00    +0.000 C 
ATOM      2  C   UNL     1       5.681   4.266  17.668  0.00  0.00    +0.000 C 
ATOM      3  C   UNL     1       6.877   4.372  16.736  0.00  0.00    +0.000 C 
ATOM      4  C   UNL     1       6.558   5.573  15.838  0.00  0.00    +0.000 C 
ATOM      5  N   UNL     1       5.168   5.929  16.141  0.00  0.00    +0.000 NA
ATOM      6  H   UNL     1       4.641   6.175  15.309  0.00  0.00    +0.000 HD
ENDROOT
BRANCH   1   7
ATOM      7  C   UNL     1       3.311   5.192  17.576  0.00  0.00    +0.000 C 
BRANCH   7   8
ATOM      8  C   UNL     1       3.681   5.892  18.883  0.00  0.00    +0.000 C 
BRANCH   8   9
ATOM      9  C   UNL     1       2.437   6.246  19.685  0.00  0.00    +0.000 C 
BRANCH   9  10
ATOM     10  C   UNL     1       2.185   5.203  20.767  0.00  0.00    +0.000 C 
BRANCH  10  11
ATOM     11  C   UNL     1       1.000   4.320  20.396  0.00  0.00    +0.000 C 
BRANCH  11  12
ATOM     12  C   UNL     1       1.300   2.854  20.687  0.00  0.00    +0.000 C 
BRANCH  12  13
ATOM     13  C   UNL     1       2.767   2.673  21.071  0.00  0.00    +0.000 C 
BRANCH  13  15
ATOM     14  C   UNL     1       3.114   1.741  18.778  0.00  0.00    +0.000 C 
ATOM     15  C   UNL     1       3.603   2.330  19.876  0.00  0.00    +0.000 C 
ENDBRANCH  13  15
ENDBRANCH  12  13
ENDBRANCH  11  12
ENDBRANCH  10  11
ENDBRANCH   9  10
ENDBRANCH   8   9
ENDBRANCH   7   8
ENDBRANCH   1   7
BRANCH   4  16
ATOM     16  C   UNL     1       6.775   5.274  14.349  0.00  0.00    +0.000 C 
BRANCH  16  17
ATOM     17  C   UNL     1       6.076   3.984  13.912  0.00  0.00    +0.000 C 
BRANCH  17  18
ATOM     18  C   UNL     1       6.530   3.537  12.526  0.00  0.00    +0.000 C 
BRANCH  18  19
ATOM     19  C   UNL     1       5.458   2.658  11.880  0.00  0.00    +0.000 C 
BRANCH  19  20
ATOM     20  C   UNL     1       4.200   3.434  11.625  0.00  0.00    +0.000 C 
ATOM     21  C   UNL     1       3.457   3.285  10.525  0.00  0.00    +0.000 C 
ENDBRANCH  19  20
ENDBRANCH  18  19
ENDBRANCH  17  18
ENDBRANCH  16  17
ENDBRANCH   4  16
TORSDOF 13
ENDMDL
MODEL 5
REMARK VINA RESULT:      -6.0      1.327      6.099
REMARK  Name = 
REMARK  13 active torsions:
REMARK  status: ('A' for Active; 'I' for Inactive)
REMARK    1  A    between atoms: C_2  and  C_3
REMARK    2  A    between atoms: C_3  and  C_4
REMARK    3  A    between atoms: C_4  and  C_5
REMARK    4  A    between atoms: C_5  and  C_6
REMARK    5  A    between atoms: C_6  and  C_7
REMARK    6  A    between atoms: C_7  and  C_8
REMARK    7  A    between atoms: C_8  and  C_9
REMARK    8  A    between atoms: C_9  and  C_10
REMARK    9  A    between atoms: C_13  and  C_14
REMARK   10  A    between atoms: C_14  and  C_15
REMARK   11  A    between atoms: C_15  and  C_16
REMARK   12  A    between atoms: C_16  and  C_17
REMARK   13  A    between atoms: C_17  and  C_18
REMARK                            x       y       z     vdW  Elec       q    Type
REMARK                         _______ _______ _______ _____ _____    ______ ____
ROOT
ATOM      1  C   UNL     1       3.419   5.710  18.937  0.00  0.00    +0.000 C 
ATOM      2  C   UNL     1       2.509   6.822  19.417  0.00  0.00    +0.000 C 
ATOM      3  C   UNL     1       1.624   6.098  20.420  0.00  0.00    +0.000 C 
ATOM      4  C   UNL     1       2.522   5.002  21.003  0.00  0.00    +0.000 C 
ATOM      5  N   UNL     1       3.737   5.014  20.183  0.00  0.00    +0.000 NA
ATOM      6  H   UNL     1       4.077   4.079  19.978  0.00  0.00    +0.000 HD
ENDROOT
BRANCH   1   7
ATOM      7  C   UNL     1       4.686   6.205  18.250  0.00  0.00    +0.000 C 
BRANCH   7   8
ATOM      8  C   UNL     1       4.372   6.873  16.913  0.00  0.00    +0.000 C 
BRANCH   8   9
ATOM      9  C   UNL     1       5.155   6.225  15.780  0.00  0.00    +0.000 C 
BRANCH   9  10
ATOM     10  C   UNL     1       6.310   5.400  16.335  0.00  0.00    +0.000 C 
BRANCH  10  11
ATOM     11  C   UNL     1       6.979   4.600  15.223  0.00  0.00    +0.000 C 
BRANCH  11  12
ATOM     12  C   UNL     1       5.940   3.985  14.292  0.00  0.00    +0.000 C 
BRANCH  12  13
ATOM     13  C   UNL     1       6.478   3.907  12.866  0.00  0.00    +0.000 C 
BRANCH  13  15
ATOM     14  C   UNL     1       4.409   3.293  11.606  0.00  0.00    +0.000 C 
ATOM     15  C   UNL     1       5.645   2.993  12.019  0.00  0.00    +0.000 C 
ENDBRANCH  13  15
ENDBRANCH  12  13
ENDBRANCH  11  12
ENDBRANCH  10  11
ENDBRANCH   9  10
ENDBRANCH   8   9
ENDBRANCH   7   8
ENDBRANCH   1   7
BRANCH   4  16
ATOM     16  C   UNL     1       1.843   3.626  21.022  0.00  0.00    +0.000 C 
BRANCH  16  17
ATOM     17  C   UNL     1       0.568   3.600  20.175  0.00  0.00    +0.000 C 
BRANCH  17  18
ATOM     18  C   UNL     1       0.797   2.917  18.830  0.00  0.00    +0.000 C 
BRANCH  18  19
ATOM     19  C   UNL     1       2.015   1.995  18.910  0.00  0.00    +0.000 C 
BRANCH  19  20
ATOM     20  C   UNL     1       2.840   2.075  17.660  0.00  0.00    +0.000 C 
ATOM     21  C   UNL     1       4.081   2.569  17.631  0.00  0.00    +0.000 C 
ENDBRANCH  19  20
ENDBRANCH  18  19
ENDBRANCH  17  18
ENDBRANCH  16  17
ENDBRANCH   4  16
TORSDOF 13
ENDMDL
MODEL 6
REMARK VINA RESULT:      -5.9      0.939      1.114
REMARK  Name = 
REMARK  13 active torsions:
REMARK  status: ('A' for Active; 'I' for Inactive)
REMARK    1  A    between atoms: C_2  and  C_3
REMARK    2  A    between atoms: C_3  and  C_4
REMARK    3  A    between atoms: C_4  and  C_5
REMARK    4  A    between atoms: C_5  and  C_6
REMARK    5  A    between atoms: C_6  and  C_7
REMARK    6  A    between atoms: C_7  and  C_8
REMARK    7  A    between atoms: C_8  and  C_9
REMARK    8  A    between atoms: C_9  and  C_10
REMARK    9  A    between atoms: C_13  and  C_14
REMARK   10  A    between atoms: C_14  and  C_15
REMARK   11  A    between atoms: C_15  and  C_16
REMARK   12  A    between atoms: C_16  and  C_17
REMARK   13  A    between atoms: C_17  and  C_18
REMARK                            x       y       z     vdW  Elec       q    Type
REMARK                         _______ _______ _______ _____ _____    ______ ____
ROOT
ATOM      1  C   UNL     1       4.960   5.023  18.123  0.00  0.00    +0.000 C 
ATOM      2  C   UNL     1       6.419   4.660  18.304  0.00  0.00    +0.000 C 
ATOM      3  C   UNL     1       6.917   4.616  16.867  0.00  0.00    +0.000 C 
ATOM      4  C   UNL     1       6.063   5.656  16.134  0.00  0.00    +0.000 C 
ATOM      5  N   UNL     1       5.026   6.056  17.091  0.00  0.00    +0.000 NA
ATOM      6  H   UNL     1       4.116   6.164  16.653  0.00  0.00    +0.000 HD
ENDROOT
BRANCH   1   7
ATOM      7  C   UNL     1       4.297   5.558  19.386  0.00  0.00    +0.000 C 
BRANCH   7   8
ATOM      8  C   UNL     1       2.791   5.734  19.195  0.00  0.00    +0.000 C 
BRANCH   8   9
ATOM      9  C   UNL     1       2.056   5.632  20.524  0.00  0.00    +0.000 C 
BRANCH   9  10
ATOM     10  C   UNL     1       0.967   4.568  20.450  0.00  0.00    +0.000 C 
BRANCH  10  11
ATOM     11  C   UNL     1       1.375   3.329  21.238  0.00  0.00    +0.000 C 
BRANCH  11  12
ATOM     12  C   UNL     1       2.190   2.375  20.371  0.00  0.00    +0.000 C 
BRANCH  12  13
ATOM     13  C   UNL     1       1.442   2.055  19.079  0.00  0.00    +0.000 C 
BRANCH  13  15
ATOM     14  C   UNL     1       3.516   1.798  17.709  0.00  0.00    +0.000 C 
ATOM     15  C   UNL     1       2.296   2.321  17.876  0.00  0.00    +0.000 C 
ENDBRANCH  13  15
ENDBRANCH  12  13
ENDBRANCH  11  12
ENDBRANCH  10  11
ENDBRANCH   9  10
ENDBRANCH   8   9
ENDBRANCH   7   8
ENDBRANCH   1   7
BRANCH   4  16
ATOM     16  C   UNL     1       5.475   5.123  14.821  0.00  0.00    +0.000 C 
BRANCH  16  17
ATOM     17  C   UNL     1       6.316   3.988  14.232  0.00  0.00    +0.000 C 
BRANCH  17  18
ATOM     18  C   UNL     1       6.634   4.226  12.759  0.00  0.00    +0.000 C 
BRANCH  18  19
ATOM     19  C   UNL     1       6.624   2.899  11.998  0.00  0.00    +0.000 C 
BRANCH  19  20
ATOM     20  C   UNL     1       5.223   2.458  11.692  0.00  0.00    +0.000 C 
ATOM     21  C   UNL     1       4.255   3.299  11.319  0.00  0.00    +0.000 C 
ENDBRANCH  19  20
ENDBRANCH  18  19
ENDBRANCH  17  18
ENDBRANCH  16  17
ENDBRANCH   4  16
TORSDOF 13
ENDMDL
MODEL 7
REMARK VINA RESULT:      -5.9      1.324      6.806
REMARK  Name = 
REMARK  13 active torsions:
REMARK  status: ('A' for Active; 'I' for Inactive)
REMARK    1  A    between atoms: C_2  and  C_3
REMARK    2  A    between atoms: C_3  and  C_4
REMARK    3  A    between atoms: C_4  and  C_5
REMARK    4  A    between atoms: C_5  and  C_6
REMARK    5  A    between atoms: C_6  and  C_7
REMARK    6  A    between atoms: C_7  and  C_8
REMARK    7  A    between atoms: C_8  and  C_9
REMARK    8  A    between atoms: C_9  and  C_10
REMARK    9  A    between atoms: C_13  and  C_14
REMARK   10  A    between atoms: C_14  and  C_15
REMARK   11  A    between atoms: C_15  and  C_16
REMARK   12  A    between atoms: C_16  and  C_17
REMARK   13  A    between atoms: C_17  and  C_18
REMARK                            x       y       z     vdW  Elec       q    Type
REMARK                         _______ _______ _______ _____ _____    ______ ____
ROOT
ATOM      1  C   UNL     1       5.753   5.470  16.864  0.00  0.00    +0.000 C 
ATOM      2  C   UNL     1       5.105   6.826  16.681  0.00  0.00    +0.000 C 
ATOM      3  C   UNL     1       3.958   6.769  17.678  0.00  0.00    +0.000 C 
ATOM      4  C   UNL     1       4.479   5.877  18.810  0.00  0.00    +0.000 C 
ATOM      5  N   UNL     1       5.743   5.320  18.319  0.00  0.00    +0.000 NA
ATOM      6  H   UNL     1       5.856   4.341  18.565  0.00  0.00    +0.000 HD
ENDROOT
BRANCH   1   7
ATOM      7  C   UNL     1       7.173   5.387  16.319  0.00  0.00    +0.000 C 
BRANCH   7   8
ATOM      8  C   UNL     1       7.190   4.866  14.882  0.00  0.00    +0.000 C 
BRANCH   8   9
ATOM      9  C   UNL     1       6.096   3.830  14.663  0.00  0.00    +0.000 C 
BRANCH   9  10
ATOM     10  C   UNL     1       5.410   4.055  13.321  0.00  0.00    +0.000 C 
BRANCH  10  11
ATOM     11  C   UNL     1       6.162   3.336  12.208  0.00  0.00    +0.000 C 
BRANCH  11  12
ATOM     12  C   UNL     1       5.193   2.716  11.207  0.00  0.00    +0.000 C 
BRANCH  12  13
ATOM     13  C   UNL     1       3.763   3.169  11.496  0.00  0.00    +0.000 C 
BRANCH  13  15
ATOM     14  C   UNL     1       3.120   4.388   9.411  0.00  0.00    +0.000 C 
ATOM     15  C   UNL     1       2.981   3.338  10.229  0.00  0.00    +0.000 C 
ENDBRANCH  13  15
ENDBRANCH  12  13
ENDBRANCH  11  12
ENDBRANCH  10  11
ENDBRANCH   9  10
ENDBRANCH   8   9
ENDBRANCH   7   8
ENDBRANCH   1   7
BRANCH   4  16
ATOM     16  C   UNL     1       3.477   4.788  19.217  0.00  0.00    +0.000 C 
BRANCH  16  17
ATOM     17  C   UNL     1       2.858   4.092  18.002  0.00  0.00    +0.000 C 
BRANCH  17  18
ATOM     18  C   UNL     1       1.354   3.898  18.167  0.00  0.00    +0.000 C 
BRANCH  18  19
ATOM     19  C   UNL     1       1.075   2.662  19.024  0.00  0.00    +0.000 C 
BRANCH  19  20
ATOM     20  C   UNL     1       0.758   3.042  20.440  0.00  0.00    +0.000 C 
ATOM     21  C   UNL     1       1.487   2.645  21.486  0.00  0.00    +0.000 C 
ENDBRANCH  19  20
ENDBRANCH  18  19
ENDBRANCH  17  18
ENDBRANCH  16  17
ENDBRANCH   4  16
TORSDOF 13
ENDMDL
MODEL 8
REMARK VINA RESULT:      -5.9      0.951      1.123
REMARK  Name = 
REMARK  13 active torsions:
REMARK  status: ('A' for Active; 'I' for Inactive)
REMARK    1  A    between atoms: C_2  and  C_3
REMARK    2  A    between atoms: C_3  and  C_4
REMARK    3  A    between atoms: C_4  and  C_5
REMARK    4  A    between atoms: C_5  and  C_6
REMARK    5  A    between atoms: C_6  and  C_7
REMARK    6  A    between atoms: C_7  and  C_8
REMARK    7  A    between atoms: C_8  and  C_9
REMARK    8  A    between atoms: C_9  and  C_10
REMARK    9  A    between atoms: C_13  and  C_14
REMARK   10  A    between atoms: C_14  and  C_15
REMARK   11  A    between atoms: C_15  and  C_16
REMARK   12  A    between atoms: C_16  and  C_17
REMARK   13  A    between atoms: C_17  and  C_18
REMARK                            x       y       z     vdW  Elec       q    Type
REMARK                         _______ _______ _______ _____ _____    ______ ____
ROOT
ATOM      1  C   UNL     1       4.981   6.028  17.394  0.00  0.00    +0.000 C 
ATOM      2  C   UNL     1       5.909   5.702  18.546  0.00  0.00    +0.000 C 
ATOM      3  C   UNL     1       7.098   5.078  17.832  0.00  0.00    +0.000 C 
ATOM      4  C   UNL     1       7.142   5.783  16.472  0.00  0.00    +0.000 C 
ATOM      5  N   UNL     1       5.906   6.570  16.399  0.00  0.00    +0.000 NA
ATOM      6  H   UNL     1       5.479   6.537  15.479  0.00  0.00    +0.000 HD
ENDROOT
BRANCH   1   7
ATOM      7  C   UNL     1       3.900   7.042  17.741  0.00  0.00    +0.000 C 
BRANCH   7   8
ATOM      8  C   UNL     1       2.601   6.354  18.157  0.00  0.00    +0.000 C 
BRANCH   8   9
ATOM      9  C   UNL     1       2.443   6.352  19.671  0.00  0.00    +0.000 C 
BRANCH   9  10
ATOM     10  C   UNL     1       2.965   5.047  20.260  0.00  0.00    +0.000 C 
BRANCH  10  11
ATOM     11  C   UNL     1       1.883   4.363  21.088  0.00  0.00    +0.000 C 
BRANCH  11  12
ATOM     12  C   UNL     1       1.680   2.921  20.635  0.00  0.00    +0.000 C 
BRANCH  12  13
ATOM     13  C   UNL     1       1.011   2.881  19.263  0.00  0.00    +0.000 C 
BRANCH  13  15
ATOM     14  C   UNL     1       2.637   2.604  17.385  0.00  0.00    +0.000 C 
ATOM     15  C   UNL     1       1.812   2.068  18.291  0.00  0.00    +0.000 C 
ENDBRANCH  13  15
ENDBRANCH  12  13
ENDBRANCH  11  12
ENDBRANCH  10  11
ENDBRANCH   9  10
ENDBRANCH   8   9
ENDBRANCH   7   8
ENDBRANCH   1   7
BRANCH   4  16
ATOM     16  C   UNL     1       7.282   4.804  15.300  0.00  0.00    +0.000 C 
BRANCH  16  17
ATOM     17  C   UNL     1       6.113   3.817  15.230  0.00  0.00    +0.000 C 
BRANCH  17  18
ATOM     18  C   UNL     1       5.322   3.969  13.934  0.00  0.00    +0.000 C 
BRANCH  18  19
ATOM     19  C   UNL     1       6.208   3.630  12.735  0.00  0.00    +0.000 C 
BRANCH  19  20
ATOM     20  C   UNL     1       5.451   2.848  11.703  0.00  0.00    +0.000 C 
ATOM     21  C   UNL     1       4.232   3.187  11.276  0.00  0.00    +0.000 C 
ENDBRANCH  19  20
ENDBRANCH  18  19
ENDBRANCH  17  18
ENDBRANCH  16  17
ENDBRANCH   4  16
TORSDOF 13
ENDMDL
MODEL 9
REMARK VINA RESULT:      -5.9      1.270      6.914
REMARK  Name = 
REMARK  13 active torsions:
REMARK  status: ('A' for Active; 'I' for Inactive)
REMARK    1  A    between atoms: C_2  and  C_3
REMARK    2  A    between atoms: C_3  and  C_4
REMARK    3  A    between atoms: C_4  and  C_5
REMARK    4  A    between atoms: C_5  and  C_6
REMARK    5  A    between atoms: C_6  and  C_7
REMARK    6  A    between atoms: C_7  and  C_8
REMARK    7  A    between atoms: C_8  and  C_9
REMARK    8  A    between atoms: C_9  and  C_10
REMARK    9  A    between atoms: C_13  and  C_14
REMARK   10  A    between atoms: C_14  and  C_15
REMARK   11  A    between atoms: C_15  and  C_16
REMARK   12  A    between atoms: C_16  and  C_17
REMARK   13  A    between atoms: C_17  and  C_18
REMARK                            x       y       z     vdW  Elec       q    Type
REMARK                         _______ _______ _______ _____ _____    ______ ____
ROOT
ATOM      1  C   UNL     1       6.251   5.421  16.833  0.00  0.00    +0.000 C 
ATOM      2  C   UNL     1       6.968   5.042  18.112  0.00  0.00    +0.000 C 
ATOM      3  C   UNL     1       5.852   5.126  19.141  0.00  0.00    +0.000 C 
ATOM      4  C   UNL     1       4.586   4.745  18.365  0.00  0.00    +0.000 C 
ATOM      5  N   UNL     1       4.993   4.687  16.958  0.00  0.00    +0.000 NA
ATOM      6  H   UNL     1       4.297   5.087  16.336  0.00  0.00    +0.000 HD
ENDROOT
BRANCH   1   7
ATOM      7  C   UNL     1       6.994   5.017  15.566  0.00  0.00    +0.000 C 
BRANCH   7   8
ATOM      8  C   UNL     1       6.044   4.901  14.375  0.00  0.00    +0.000 C 
BRANCH   8   9
ATOM      9  C   UNL     1       6.026   3.482  13.826  0.00  0.00    +0.000 C 
BRANCH   9  10
ATOM     10  C   UNL     1       6.527   3.460  12.387  0.00  0.00    +0.000 C 
BRANCH  10  11
ATOM     11  C   UNL     1       5.499   2.807  11.471  0.00  0.00    +0.000 C 
BRANCH  11  12
ATOM     12  C   UNL     1       4.089   3.281  11.809  0.00  0.00    +0.000 C 
BRANCH  12  13
ATOM     13  C   UNL     1       3.176   3.153  10.591  0.00  0.00    +0.000 C 
BRANCH  13  15
ATOM     14  C   UNL     1       2.279   4.834   8.973  0.00  0.00    +0.000 C 
ATOM     15  C   UNL     1       3.295   4.349   9.696  0.00  0.00    +0.000 C 
ENDBRANCH  13  15
ENDBRANCH  12  13
ENDBRANCH  11  12
ENDBRANCH  10  11
ENDBRANCH   9  10
ENDBRANCH   8   9
ENDBRANCH   7   8
ENDBRANCH   1   7
BRANCH   4  16
ATOM     16  C   UNL     1       3.429   5.725  18.600  0.00  0.00    +0.000 C 
BRANCH  16  17
ATOM     17  C   UNL     1       2.754   5.504  19.957  0.00  0.00    +0.000 C 
BRANCH  17  18
ATOM     18  C   UNL     1       2.718   4.027  20.337  0.00  0.00    +0.000 C 
BRANCH  18  19
ATOM     19  C   UNL     1       1.296   3.619  20.722  0.00  0.00    +0.000 C 
BRANCH  19  20
ATOM     20  C   UNL     1       0.529   3.126  19.531  0.00  0.00    +0.000 C 
ATOM     21  C   UNL     1       1.049   2.311  18.611  0.00  0.00    +0.000 C 
ENDBRANCH  19  20
ENDBRANCH  18  19
ENDBRANCH  17  18
ENDBRANCH  16  17
ENDBRANCH   4  16
TORSDOF 13
ENDMDL
