MODEL 1
REMARK VINA RESULT:      -7.5      0.000      0.000
REMARK  Name = 
REMARK  9 active torsions:
REMARK  status: ('A' for Active; 'I' for Inactive)
REMARK    1  A    between atoms: C_1  and  C_2
REMARK    2  A    between atoms: C_2  and  C_3
REMARK    3  A    between atoms: C_2  and  C_18
REMARK    4  A    between atoms: C_3  and  C_4
REMARK    5  A    between atoms: C_4  and  C_5
REMARK    6  A    between atoms: C_8  and  O_9
REMARK    7  A    between atoms: O_9  and  C_10
REMARK    8  A    between atoms: C_18  and  C_19
REMARK    9  A    between atoms: C_19  and  O_21
REMARK                            x       y       z     vdW  Elec       q    Type
REMARK                         _______ _______ _______ _____ _____    ______ ____
ROOT
ATOM      1  C   UNL     1       4.438   5.507  18.739  0.00  0.00    +0.000 A 
ATOM      2  C   UNL     1       5.655   4.819  18.841  0.00  0.00    +0.000 A 
ATOM      3  C   UNL     1       6.584   4.865  17.800  0.00  0.00    +0.000 A 
ATOM      4  C   UNL     1       6.302   5.587  16.640  0.00  0.00    +0.000 A 
ATOM      5  C   UNL     1       5.121   6.324  16.554  0.00  0.00    +0.000 A 
ATOM      6  C   UNL     1       4.184   6.265  17.588  0.00  0.00    +0.000 A 
ENDROOT
BRANCH   1   7
ATOM      7  C   UNL     1       3.410   5.433  19.843  0.00  0.00    +0.000 C 
BRANCH   7   8
ATOM      8  C   UNL     1       2.007   5.113  19.316  0.00  0.00    +0.000 C 
BRANCH   8  10
ATOM      9  C   UNL     1       2.174   3.410  21.199  0.00  0.00    +0.000 C 
ATOM     10  C   UNL     1       1.325   3.927  20.032  0.00  0.00    +0.000 C 
BRANCH  10  11
ATOM     11  C   UNL     1       1.071   2.806  19.005  0.00  0.00    +0.000 C 
BRANCH  11  12
ATOM     12  C   UNL     1       2.274   2.509  18.138  0.00  0.00    +0.000 C 
ATOM     13  O   UNL     1       3.212   1.801  18.466  0.00  0.00    +0.000 OA
BRANCH  12  14
ATOM     14  O   UNL     1       2.196   3.080  16.915  0.00  0.00    +0.000 OA
ATOM     15  H   UNL     1       1.448   3.695  16.805  0.00  0.00    +0.000 HD
ENDBRANCH  12  14
ENDBRANCH  11  12
ENDBRANCH  10  11
ENDBRANCH   8  10
ENDBRANCH   7   8
ENDBRANCH   1   7
BRANCH   4  16
ATOM     16  O   UNL     1       7.274   5.568  15.666  0.00  0.00    +0.000 OA
BRANCH  16  17
ATOM     17  C   UNL     1       7.025   4.953  14.460  0.00  0.00    +0.000 A 
ATOM     18  C   UNL     1       7.786   5.403  13.379  0.00  0.00    +0.000 A 
ATOM     19  C   UNL     1       7.612   4.842  12.113  0.00  0.00    +0.000 A 
ATOM     20  C   UNL     1       6.679   3.822  11.925  0.00  0.00    +0.000 A 
ATOM     21  C   UNL     1       5.941   3.347  13.008  0.00  0.00    +0.000 A 
ATOM     22  C   UNL     1       6.130   3.894  14.279  0.00  0.00    +0.000 A 
ENDBRANCH  16  17
ENDBRANCH   4  16
TORSDOF 8
ENDMDL
MODEL 2
REMARK VINA RESULT:      -7.4      0.139      1.057
REMARK  Name = 
REMARK  9 active torsions:
REMARK  status: ('A' for Active; 'I' for Inactive)
REMARK    1  A    between atoms: C_1  and  C_2
REMARK    2  A    between atoms: C_2  and  C_3
REMARK    3  A    between atoms: C_2  and  C_18
REMARK    4  A    between atoms: C_3  and  C_4
REMARK    5  A    between atoms: C_4  and  C_5
REMARK    6  A    between atoms: C_8  and  O_9
REMARK    7  A    between atoms: O_9  and  C_10
REMARK    8  A    between atoms: C_18  and  C_19
REMARK    9  A    between atoms: C_19  and  O_21
REMARK                            x       y       z     vdW  Elec       q    Type
REMARK                         _______ _______ _______ _____ _____    ______ ____
ROOT
ATOM      1  C   UNL     1       4.417   5.496  18.704  0.00  0.00    +0.000 A 
ATOM      2  C   UNL     1       5.634   4.815  18.838  0.00  0.00    +0.000 A 
ATOM      3  C   UNL     1       6.585   4.856  17.816  0.00  0.00    +0.000 A 
ATOM      4  C   UNL     1       6.325   5.567  16.644  0.00  0.00    +0.000 A 
ATOM      5  C   UNL     1       5.142   6.297  16.527  0.00  0.00    +0.000 A 
ATOM      6  C   UNL     1       4.183   6.243  17.541  0.00  0.00    +0.000 A 
ENDROOT
BRANCH   1   7
ATOM      7  C   UNL     1       3.366   5.427  19.786  0.00  0.00    +0.000 C 
BRANCH   7   8
ATOM      8  C   UNL     1       1.975   5.097  19.232  0.00  0.00    +0.000 C 
BRANCH   8  10
ATOM      9  C   UNL     1       2.067   3.479  21.195  0.00  0.00    +0.000 C 
ATOM     10  C   UNL     1       1.263   3.946  19.974  0.00  0.00    +0.000 C 
BRANCH  10  11
ATOM     11  C   UNL     1       1.043   2.781  18.990  0.00  0.00    +0.000 C 
BRANCH  11  12
ATOM     12  C   UNL     1       2.258   2.481  18.141  0.00  0.00    +0.000 C 
ATOM     13  O   UNL     1       3.185   1.763  18.479  0.00  0.00    +0.000 OA
BRANCH  12  14
ATOM     14  O   UNL     1       2.205   3.062  16.921  0.00  0.00    +0.000 OA
ATOM     15  H   UNL     1       2.431   2.468  16.182  0.00  0.00    +0.000 HD
ENDBRANCH  12  14
ENDBRANCH  11  12
ENDBRANCH  10  11
ENDBRANCH   8  10
ENDBRANCH   7   8
ENDBRANCH   1   7
BRANCH   4  16
ATOM     16  O   UNL     1       7.317   5.544  15.691  0.00  0.00    +0.000 OA
BRANCH  16  17
ATOM     17  C   UNL     1       7.078   4.964  14.466  0.00  0.00    +0.000 A 
ATOM     18  C   UNL     1       6.043   4.027  14.430  0.00  0.00    +0.000 A 
ATOM     19  C   UNL     1       5.719   3.383  13.234  0.00  0.00    +0.000 A 
ATOM     20  C   UNL     1       6.425   3.680  12.068  0.00  0.00    +0.000 A 
ATOM     21  C   UNL     1       7.436   4.639  12.093  0.00  0.00    +0.000 A 
ATOM     22  C   UNL     1       7.747   5.298  13.285  0.00  0.00    +0.000 A 
ENDBRANCH  16  17
ENDBRANCH   4  16
TORSDOF 8
ENDMDL
MODEL 3
REMARK VINA RESULT:      -7.4      1.049      1.791
REMARK  Name = 
REMARK  9 active torsions:
REMARK  status: ('A' for Active; 'I' for Inactive)
REMARK    1  A    between atoms: C_1  and  C_2
REMARK    2  A    between atoms: C_2  and  C_3
REMARK    3  A    between atoms: C_2  and  C_18
REMARK    4  A    between atoms: C_3  and  C_4
REMARK    5  A    between atoms: C_4  and  C_5
REMARK    6  A    between atoms: C_8  and  O_9
REMARK    7  A    between atoms: O_9  and  C_10
REMARK    8  A    between atoms: C_18  and  C_19
REMARK    9  A    between atoms: C_19  and  O_21
REMARK                            x       y       z     vdW  Elec       q    Type
REMARK                         _______ _______ _______ _____ _____    ______ ____
ROOT
ATOM      1  C   UNL     1       4.527   5.682  18.596  0.00  0.00    +0.000 A 
ATOM      2  C   UNL     1       5.835   5.238  18.829  0.00  0.00    +0.000 A 
ATOM      3  C   UNL     1       6.773   5.226  17.794  0.00  0.00    +0.000 A 
ATOM      4  C   UNL     1       6.410   5.644  16.514  0.00  0.00    +0.000 A 
ATOM      5  C   UNL     1       5.128   6.145  16.287  0.00  0.00    +0.000 A 
ATOM      6  C   UNL     1       4.184   6.142  17.317  0.00  0.00    +0.000 A 
ENDROOT
BRANCH   1   7
ATOM      7  C   UNL     1       3.494   5.664  19.698  0.00  0.00    +0.000 C 
BRANCH   7   8
ATOM      8  C   UNL     1       2.193   4.973  19.271  0.00  0.00    +0.000 C 
BRANCH   8  10
ATOM      9  C   UNL     1       0.894   2.789  19.139  0.00  0.00    +0.000 C 
ATOM     10  C   UNL     1       2.282   3.432  19.246  0.00  0.00    +0.000 C 
BRANCH  10  11
ATOM     11  C   UNL     1       3.006   2.955  20.519  0.00  0.00    +0.000 C 
BRANCH  11  12
ATOM     12  C   UNL     1       4.268   2.174  20.231  0.00  0.00    +0.000 C 
ATOM     13  O   UNL     1       5.052   1.778  21.078  0.00  0.00    +0.000 OA
BRANCH  12  14
ATOM     14  O   UNL     1       4.435   1.910  18.915  0.00  0.00    +0.000 OA
ATOM     15  H   UNL     1       4.871   2.623  18.414  0.00  0.00    +0.000 HD
ENDBRANCH  12  14
ENDBRANCH  11  12
ENDBRANCH  10  11
ENDBRANCH   8  10
ENDBRANCH   7   8
ENDBRANCH   1   7
BRANCH   4  16
ATOM     16  O   UNL     1       7.399   5.590  15.558  0.00  0.00    +0.000 OA
BRANCH  16  17
ATOM     17  C   UNL     1       7.154   4.974  14.352  0.00  0.00    +0.000 A 
ATOM     18  C   UNL     1       6.185   3.969  14.370  0.00  0.00    +0.000 A 
ATOM     19  C   UNL     1       5.860   3.284  13.197  0.00  0.00    +0.000 A 
ATOM     20  C   UNL     1       6.498   3.608  12.000  0.00  0.00    +0.000 A 
ATOM     21  C   UNL     1       7.442   4.634  11.972  0.00  0.00    +0.000 A 
ATOM     22  C   UNL     1       7.752   5.333  13.140  0.00  0.00    +0.000 A 
ENDBRANCH  16  17
ENDBRANCH   4  16
TORSDOF 8
ENDMDL
MODEL 4
REMARK VINA RESULT:      -7.3      1.317      2.115
REMARK  Name = 
REMARK  9 active torsions:
REMARK  status: ('A' for Active; 'I' for Inactive)
REMARK    1  A    between atoms: C_1  and  C_2
REMARK    2  A    between atoms: C_2  and  C_3
REMARK    3  A    between atoms: C_2  and  C_18
REMARK    4  A    between atoms: C_3  and  C_4
REMARK    5  A    between atoms: C_4  and  C_5
REMARK    6  A    between atoms: C_8  and  O_9
REMARK    7  A    between atoms: O_9  and  C_10
REMARK    8  A    between atoms: C_18  and  C_19
REMARK    9  A    between atoms: C_19  and  O_21
REMARK                            x       y       z     vdW  Elec       q    Type
REMARK                         _______ _______ _______ _____ _____    ______ ____
ROOT
ATOM      1  C   UNL     1       4.570   5.779  18.552  0.00  0.00    +0.000 A 
ATOM      2  C   UNL     1       5.871   5.319  18.797  0.00  0.00    +0.000 A 
ATOM      3  C   UNL     1       6.812   5.278  17.766  0.00  0.00    +0.000 A 
ATOM      4  C   UNL     1       6.461   5.681  16.478  0.00  0.00    +0.000 A 
ATOM      5  C   UNL     1       5.186   6.197  16.239  0.00  0.00    +0.000 A 
ATOM      6  C   UNL     1       4.239   6.223  17.265  0.00  0.00    +0.000 A 
ENDROOT
BRANCH   1   7
ATOM      7  C   UNL     1       3.533   5.792  19.650  0.00  0.00    +0.000 C 
BRANCH   7   8
ATOM      8  C   UNL     1       2.232   5.096  19.236  0.00  0.00    +0.000 C 
BRANCH   8  10
ATOM      9  C   UNL     1       2.109   3.073  17.695  0.00  0.00    +0.000 C 
ATOM     10  C   UNL     1       2.350   3.560  19.130  0.00  0.00    +0.000 C 
BRANCH  10  11
ATOM     11  C   UNL     1       1.341   2.916  20.100  0.00  0.00    +0.000 C 
BRANCH  11  12
ATOM     12  C   UNL     1       1.925   2.630  21.465  0.00  0.00    +0.000 C 
ATOM     13  O   UNL     1       1.276   2.524  22.493  0.00  0.00    +0.000 OA
BRANCH  12  14
ATOM     14  O   UNL     1       3.265   2.456  21.439  0.00  0.00    +0.000 OA
ATOM     15  H   UNL     1       3.584   1.893  20.710  0.00  0.00    +0.000 HD
ENDBRANCH  12  14
ENDBRANCH  11  12
ENDBRANCH  10  11
ENDBRANCH   8  10
ENDBRANCH   7   8
ENDBRANCH   1   7
BRANCH   4  16
ATOM     16  O   UNL     1       7.452   5.598  15.527  0.00  0.00    +0.000 OA
BRANCH  16  17
ATOM     17  C   UNL     1       7.195   4.988  14.320  0.00  0.00    +0.000 A 
ATOM     18  C   UNL     1       6.233   3.976  14.344  0.00  0.00    +0.000 A 
ATOM     19  C   UNL     1       5.897   3.297  13.171  0.00  0.00    +0.000 A 
ATOM     20  C   UNL     1       6.518   3.634  11.968  0.00  0.00    +0.000 A 
ATOM     21  C   UNL     1       7.454   4.665  11.934  0.00  0.00    +0.000 A 
ATOM     22  C   UNL     1       7.775   5.359  13.103  0.00  0.00    +0.000 A 
ENDBRANCH  16  17
ENDBRANCH   4  16
TORSDOF 8
ENDMDL
MODEL 5
REMARK VINA RESULT:      -7.3      0.889      1.386
REMARK  Name = 
REMARK  9 active torsions:
REMARK  status: ('A' for Active; 'I' for Inactive)
REMARK    1  A    between atoms: C_1  and  C_2
REMARK    2  A    between atoms: C_2  and  C_3
REMARK    3  A    between atoms: C_2  and  C_18
REMARK    4  A    between atoms: C_3  and  C_4
REMARK    5  A    between atoms: C_4  and  C_5
REMARK    6  A    between atoms: C_8  and  O_9
REMARK    7  A    between atoms: O_9  and  C_10
REMARK    8  A    between atoms: C_18  and  C_19
REMARK    9  A    between atoms: C_19  and  O_21
REMARK                            x       y       z     vdW  Elec       q    Type
REMARK                         _______ _______ _______ _____ _____    ______ ____
ROOT
ATOM      1  C   UNL     1       4.524   5.629  18.578  0.00  0.00    +0.000 A 
ATOM      2  C   UNL     1       5.662   4.812  18.535  0.00  0.00    +0.000 A 
ATOM      3  C   UNL     1       6.539   4.878  17.450  0.00  0.00    +0.000 A 
ATOM      4  C   UNL     1       6.283   5.750  16.392  0.00  0.00    +0.000 A 
ATOM      5  C   UNL     1       5.186   6.610  16.455  0.00  0.00    +0.000 A 
ATOM      6  C   UNL     1       4.299   6.533  17.531  0.00  0.00    +0.000 A 
ENDROOT
BRANCH   1   7
ATOM      7  C   UNL     1       3.548   5.539  19.727  0.00  0.00    +0.000 C 
BRANCH   7   8
ATOM      8  C   UNL     1       2.166   5.046  19.284  0.00  0.00    +0.000 C 
BRANCH   8  10
ATOM      9  C   UNL     1       0.690   3.019  18.847  0.00  0.00    +0.000 C 
ATOM     10  C   UNL     1       2.128   3.550  18.903  0.00  0.00    +0.000 C 
BRANCH  10  11
ATOM     11  C   UNL     1       2.962   2.755  19.925  0.00  0.00    +0.000 C 
BRANCH  11  12
ATOM     12  C   UNL     1       3.912   1.769  19.282  0.00  0.00    +0.000 C 
ATOM     13  O   UNL     1       3.696   1.173  18.239  0.00  0.00    +0.000 OA
BRANCH  12  14
ATOM     14  O   UNL     1       5.072   1.634  19.962  0.00  0.00    +0.000 OA
ATOM     15  H   UNL     1       4.961   1.443  20.912  0.00  0.00    +0.000 HD
ENDBRANCH  12  14
ENDBRANCH  11  12
ENDBRANCH  10  11
ENDBRANCH   8  10
ENDBRANCH   7   8
ENDBRANCH   1   7
BRANCH   4  16
ATOM     16  O   UNL     1       7.200   5.740  15.365  0.00  0.00    +0.000 OA
BRANCH  16  17
ATOM     17  C   UNL     1       6.958   4.988  14.238  0.00  0.00    +0.000 A 
ATOM     18  C   UNL     1       7.738   5.299  13.122  0.00  0.00    +0.000 A 
ATOM     19  C   UNL     1       7.572   4.592  11.930  0.00  0.00    +0.000 A 
ATOM     20  C   UNL     1       6.631   3.566  11.852  0.00  0.00    +0.000 A 
ATOM     21  C   UNL     1       5.874   3.231  12.973  0.00  0.00    +0.000 A 
ATOM     22  C   UNL     1       6.054   3.924  14.172  0.00  0.00    +0.000 A 
ENDBRANCH  16  17
ENDBRANCH   4  16
TORSDOF 8
ENDMDL
MODEL 6
REMARK VINA RESULT:      -7.2      1.524      2.205
REMARK  Name = 
REMARK  9 active torsions:
REMARK  status: ('A' for Active; 'I' for Inactive)
REMARK    1  A    between atoms: C_1  and  C_2
REMARK    2  A    between atoms: C_2  and  C_3
REMARK    3  A    between atoms: C_2  and  C_18
REMARK    4  A    between atoms: C_3  and  C_4
REMARK    5  A    between atoms: C_4  and  C_5
REMARK    6  A    between atoms: C_8  and  O_9
REMARK    7  A    between atoms: O_9  and  C_10
REMARK    8  A    between atoms: C_18  and  C_19
REMARK    9  A    between atoms: C_19  and  O_21
REMARK                            x       y       z     vdW  Elec       q    Type
REMARK                         _______ _______ _______ _____ _____    ______ ____
ROOT
ATOM      1  C   UNL     1       4.435   5.719  18.413  0.00  0.00    +0.000 A 
ATOM      2  C   UNL     1       4.364   6.499  17.251  0.00  0.00    +0.000 A 
ATOM      3  C   UNL     1       5.367   6.419  16.283  0.00  0.00    +0.000 A 
ATOM      4  C   UNL     1       6.458   5.570  16.472  0.00  0.00    +0.000 A 
ATOM      5  C   UNL     1       6.506   4.746  17.597  0.00  0.00    +0.000 A 
ATOM      6  C   UNL     1       5.512   4.837  18.573  0.00  0.00    +0.000 A 
ENDROOT
BRANCH   1   7
ATOM      7  C   UNL     1       3.375   5.826  19.484  0.00  0.00    +0.000 C 
BRANCH   7   8
ATOM      8  C   UNL     1       2.088   5.080  19.112  0.00  0.00    +0.000 C 
BRANCH   8  10
ATOM      9  C   UNL     1       2.009   2.800  17.985  0.00  0.00    +0.000 C 
ATOM     10  C   UNL     1       2.170   3.551  19.312  0.00  0.00    +0.000 C 
BRANCH  10  11
ATOM     11  C   UNL     1       1.082   3.123  20.316  0.00  0.00    +0.000 C 
BRANCH  11  12
ATOM     12  C   UNL     1       1.608   2.937  21.722  0.00  0.00    +0.000 C 
ATOM     13  O   UNL     1       2.664   3.384  22.136  0.00  0.00    +0.000 OA
BRANCH  12  14
ATOM     14  O   UNL     1       0.759   2.245  22.514  0.00  0.00    +0.000 OA
ATOM     15  H   UNL     1       1.197   1.698  23.192  0.00  0.00    +0.000 HD
ENDBRANCH  12  14
ENDBRANCH  11  12
ENDBRANCH  10  11
ENDBRANCH   8  10
ENDBRANCH   7   8
ENDBRANCH   1   7
BRANCH   4  16
ATOM     16  O   UNL     1       7.399   5.564  15.468  0.00  0.00    +0.000 OA
BRANCH  16  17
ATOM     17  C   UNL     1       7.114   4.959  14.264  0.00  0.00    +0.000 A 
ATOM     18  C   UNL     1       7.862   5.400  13.171  0.00  0.00    +0.000 A 
ATOM     19  C   UNL     1       7.651   4.848  11.906  0.00  0.00    +0.000 A 
ATOM     20  C   UNL     1       6.697   3.846  11.732  0.00  0.00    +0.000 A 
ATOM     21  C   UNL     1       5.972   3.379  12.828  0.00  0.00    +0.000 A 
ATOM     22  C   UNL     1       6.197   3.917  14.097  0.00  0.00    +0.000 A 
ENDBRANCH  16  17
ENDBRANCH   4  16
TORSDOF 8
ENDMDL
MODEL 7
REMARK VINA RESULT:      -7.2      0.385      1.512
REMARK  Name = 
REMARK  9 active torsions:
REMARK  status: ('A' for Active; 'I' for Inactive)
REMARK    1  A    between atoms: C_1  and  C_2
REMARK    2  A    between atoms: C_2  and  C_3
REMARK    3  A    between atoms: C_2  and  C_18
REMARK    4  A    between atoms: C_3  and  C_4
REMARK    5  A    between atoms: C_4  and  C_5
REMARK    6  A    between atoms: C_8  and  O_9
REMARK    7  A    between atoms: O_9  and  C_10
REMARK    8  A    between atoms: C_18  and  C_19
REMARK    9  A    between atoms: C_19  and  O_21
REMARK                            x       y       z     vdW  Elec       q    Type
REMARK                         _______ _______ _______ _____ _____    ______ ____
ROOT
ATOM      1  C   UNL     1       4.251   5.320  18.763  0.00  0.00    +0.000 A 
ATOM      2  C   UNL     1       4.050   6.273  17.756  0.00  0.00    +0.000 A 
ATOM      3  C   UNL     1       4.963   6.397  16.706  0.00  0.00    +0.000 A 
ATOM      4  C   UNL     1       6.093   5.580  16.658  0.00  0.00    +0.000 A 
ATOM      5  C   UNL     1       6.269   4.588  17.624  0.00  0.00    +0.000 A 
ATOM      6  C   UNL     1       5.366   4.474  18.683  0.00  0.00    +0.000 A 
ENDROOT
BRANCH   1   7
ATOM      7  C   UNL     1       3.292   5.203  19.923  0.00  0.00    +0.000 C 
BRANCH   7   8
ATOM      8  C   UNL     1       1.857   4.910  19.470  0.00  0.00    +0.000 C 
BRANCH   8  10
ATOM      9  C   UNL     1       2.173   3.038  21.166  0.00  0.00    +0.000 C 
ATOM     10  C   UNL     1       1.253   3.632  20.091  0.00  0.00    +0.000 C 
BRANCH  10  11
ATOM     11  C   UNL     1       0.996   2.607  18.970  0.00  0.00    +0.000 C 
BRANCH  11  12
ATOM     12  C   UNL     1       2.211   2.348  18.108  0.00  0.00    +0.000 C 
ATOM     13  O   UNL     1       3.117   1.581  18.393  0.00  0.00    +0.000 OA
BRANCH  12  14
ATOM     14  O   UNL     1       2.186   3.031  16.942  0.00  0.00    +0.000 OA
ATOM     15  H   UNL     1       1.922   2.498  16.169  0.00  0.00    +0.000 HD
ENDBRANCH  12  14
ENDBRANCH  11  12
ENDBRANCH  10  11
ENDBRANCH   8  10
ENDBRANCH   7   8
ENDBRANCH   1   7
BRANCH   4  16
ATOM     16  O   UNL     1       6.938   5.779  15.591  0.00  0.00    +0.000 OA
BRANCH  16  17
ATOM     17  C   UNL     1       6.768   5.050  14.436  0.00  0.00    +0.000 A 
ATOM     18  C   UNL     1       5.614   4.264  14.379  0.00  0.00    +0.000 A 
ATOM     19  C   UNL     1       5.347   3.488  13.250  0.00  0.00    +0.000 A 
ATOM     20  C   UNL     1       6.230   3.502  12.169  0.00  0.00    +0.000 A 
ATOM     21  C   UNL     1       7.365   4.310  12.209  0.00  0.00    +0.000 A 
ATOM     22  C   UNL     1       7.621   5.102  13.330  0.00  0.00    +0.000 A 
ENDBRANCH  16  17
ENDBRANCH   4  16
TORSDOF 8
ENDMDL
MODEL 8
REMARK VINA RESULT:      -7.2      4.322      7.880
REMARK  Name = 
REMARK  9 active torsions:
REMARK  status: ('A' for Active; 'I' for Inactive)
REMARK    1  A    between atoms: C_1  and  C_2
REMARK    2  A    between atoms: C_2  and  C_3
REMARK    3  A    between atoms: C_2  and  C_18
REMARK    4  A    between atoms: C_3  and  C_4
REMARK    5  A    between atoms: C_4  and  C_5
REMARK    6  A    between atoms: C_8  and  O_9
REMARK    7  A    between atoms: O_9  and  C_10
REMARK    8  A    between atoms: C_18  and  C_19
REMARK    9  A    between atoms: C_19  and  O_21
REMARK                            x       y       z     vdW  Elec       q    Type
REMARK                         _______ _______ _______ _____ _____    ______ ____
ROOT
ATOM      1  C   UNL     1       7.506   6.937  18.040  0.00  0.00    +0.000 A 
ATOM      2  C   UNL     1       6.540   7.302  17.093  0.00  0.00    +0.000 A 
ATOM      3  C   UNL     1       5.632   6.358  16.609  0.00  0.00    +0.000 A 
ATOM      4  C   UNL     1       5.687   5.037  17.056  0.00  0.00    +0.000 A 
ATOM      5  C   UNL     1       6.606   4.680  18.043  0.00  0.00    +0.000 A 
ATOM      6  C   UNL     1       7.526   5.618  18.515  0.00  0.00    +0.000 A 
ENDROOT
BRANCH   1   7
ATOM      7  C   UNL     1       8.518   7.940  18.542  0.00  0.00    +0.000 C 
BRANCH   7   8
ATOM      8  C   UNL     1       8.228   9.362  18.048  0.00  0.00    +0.000 C 
BRANCH   8  10
ATOM      9  C   UNL     1       9.315  10.523  20.035  0.00  0.00    +0.000 C 
ATOM     10  C   UNL     1       9.268  10.408  18.506  0.00  0.00    +0.000 C 
BRANCH  10  11
ATOM     11  C   UNL     1       8.920  11.767  17.869  0.00  0.00    +0.000 C 
BRANCH  11  12
ATOM     12  C   UNL     1      10.139  12.591  17.519  0.00  0.00    +0.000 C 
ATOM     13  O   UNL     1      10.173  13.810  17.497  0.00  0.00    +0.000 OA
BRANCH  12  14
ATOM     14  O   UNL     1      11.231  11.835  17.265  0.00  0.00    +0.000 OA
ATOM     15  H   UNL     1      12.062  12.340  17.196  0.00  0.00    +0.000 HD
ENDBRANCH  12  14
ENDBRANCH  11  12
ENDBRANCH  10  11
ENDBRANCH   8  10
ENDBRANCH   7   8
ENDBRANCH   1   7
BRANCH   4  16
ATOM     16  O   UNL     1       4.757   4.178  16.517  0.00  0.00    +0.000 OA
BRANCH  16  17
ATOM     17  C   UNL     1       3.636   3.839  17.242  0.00  0.00    +0.000 A 
ATOM     18  C   UNL     1       3.515   2.489  17.577  0.00  0.00    +0.000 A 
ATOM     19  C   UNL     1       2.416   2.043  18.314  0.00  0.00    +0.000 A 
ATOM     20  C   UNL     1       1.438   2.949  18.724  0.00  0.00    +0.000 A 
ATOM     21  C   UNL     1       1.572   4.302  18.420  0.00  0.00    +0.000 A 
ATOM     22  C   UNL     1       2.682   4.752  17.701  0.00  0.00    +0.000 A 
ENDBRANCH  16  17
ENDBRANCH   4  16
TORSDOF 8
ENDMDL
MODEL 9
REMARK VINA RESULT:      -7.2      4.362      7.865
REMARK  Name = 
REMARK  9 active torsions:
REMARK  status: ('A' for Active; 'I' for Inactive)
REMARK    1  A    between atoms: C_1  and  C_2
REMARK    2  A    between atoms: C_2  and  C_3
REMARK    3  A    between atoms: C_2  and  C_18
REMARK    4  A    between atoms: C_3  and  C_4
REMARK    5  A    between atoms: C_4  and  C_5
REMARK    6  A    between atoms: C_8  and  O_9
REMARK    7  A    between atoms: O_9  and  C_10
REMARK    8  A    between atoms: C_18  and  C_19
REMARK    9  A    between atoms: C_19  and  O_21
REMARK                            x       y       z     vdW  Elec       q    Type
REMARK                         _______ _______ _______ _____ _____    ______ ____
ROOT
ATOM      1  C   UNL     1       7.535   6.948  18.145  0.00  0.00    +0.000 A 
ATOM      2  C   UNL     1       6.631   7.269  17.124  0.00  0.00    +0.000 A 
ATOM      3  C   UNL     1       5.758   6.302  16.623  0.00  0.00    +0.000 A 
ATOM      4  C   UNL     1       5.787   5.001  17.126  0.00  0.00    +0.000 A 
ATOM      5  C   UNL     1       6.641   4.688  18.183  0.00  0.00    +0.000 A 
ATOM      6  C   UNL     1       7.527   5.649  18.674  0.00  0.00    +0.000 A 
ENDROOT
BRANCH   1   7
ATOM      7  C   UNL     1       8.511   7.974  18.669  0.00  0.00    +0.000 C 
BRANCH   7   8
ATOM      8  C   UNL     1       8.280   9.364  18.064  0.00  0.00    +0.000 C 
BRANCH   8  10
ATOM      9  C   UNL     1       9.363  10.565  20.030  0.00  0.00    +0.000 C 
ATOM     10  C   UNL     1       9.320  10.418  18.503  0.00  0.00    +0.000 C 
BRANCH  10  11
ATOM     11  C   UNL     1       8.975  11.764  17.837  0.00  0.00    +0.000 C 
BRANCH  11  12
ATOM     12  C   UNL     1      10.190  12.619  17.557  0.00  0.00    +0.000 C 
ATOM     13  O   UNL     1      10.232  13.832  17.682  0.00  0.00    +0.000 OA
BRANCH  12  14
ATOM     14  O   UNL     1      11.269  11.896  17.184  0.00  0.00    +0.000 OA
ATOM     15  H   UNL     1      11.195  11.490  16.301  0.00  0.00    +0.000 HD
ENDBRANCH  12  14
ENDBRANCH  11  12
ENDBRANCH  10  11
ENDBRANCH   8  10
ENDBRANCH   7   8
ENDBRANCH   1   7
BRANCH   4  16
ATOM     16  O   UNL     1       4.894   4.116  16.565  0.00  0.00    +0.000 OA
BRANCH  16  17
ATOM     17  C   UNL     1       3.802   3.692  17.289  0.00  0.00    +0.000 A 
ATOM     18  C   UNL     1       2.864   4.678  17.603  0.00  0.00    +0.000 A 
ATOM     19  C   UNL     1       1.719   4.350  18.332  0.00  0.00    +0.000 A 
ATOM     20  C   UNL     1       1.505   3.034  18.742  0.00  0.00    +0.000 A 
ATOM     21  C   UNL     1       2.423   2.043  18.401  0.00  0.00    +0.000 A 
ATOM     22  C   UNL     1       3.558   2.365  17.654  0.00  0.00    +0.000 A 
ENDBRANCH  16  17
ENDBRANCH   4  16
TORSDOF 8
ENDMDL
