MODEL 1
REMARK VINA RESULT:      -8.0      0.000      0.000
REMARK  Name = 
REMARK  3 active torsions:
REMARK  status: ('A' for Active; 'I' for Inactive)
REMARK    1  A    between atoms: C_1  and  C_18
REMARK    2  A    between atoms: N_2  and  C_3
REMARK    3  A    between atoms: C_6  and  C_7
REMARK                            x       y       z     vdW  Elec       q    Type
REMARK                         _______ _______ _______ _____ _____    ______ ____
ROOT
ATOM      1  C   UNL     1       7.785   7.698  18.043  0.00  0.00    +0.000 A 
ATOM      2  C   UNL     1       6.617   7.752  17.278  0.00  0.00    +0.000 A 
ATOM      3  C   UNL     1       5.626   6.767  17.397  0.00  0.00    +0.000 A 
ATOM      4  C   UNL     1       5.777   5.704  18.295  0.00  0.00    +0.000 A 
ATOM      5  C   UNL     1       6.974   5.613  19.016  0.00  0.00    +0.000 A 
ATOM      6  C   UNL     1       7.969   6.590  18.880  0.00  0.00    +0.000 A 
ENDROOT
BRANCH   4   7
ATOM      7  C   UNL     1       4.681   4.758  18.503  0.00  0.00    +0.000 A 
ATOM      8  N   UNL     1       4.269   3.779  17.716  0.00  0.00    +0.000 NA
ATOM      9  C   UNL     1       3.109   3.348  18.312  0.00  0.00    +0.000 A 
ATOM     10  C   UNL     1       2.180   2.375  17.923  0.00  0.00    +0.000 A 
ATOM     11  C   UNL     1       1.043   2.189  18.725  0.00  0.00    +0.000 A 
ATOM     12  C   UNL     1       0.846   2.938  19.892  0.00  0.00    +0.000 A 
ATOM     13  C   UNL     1       1.776   3.905  20.302  0.00  0.00    +0.000 A 
ATOM     14  C   UNL     1       2.878   4.071  19.470  0.00  0.00    +0.000 A 
ATOM     15  O   UNL     1       3.894   4.968  19.612  0.00  0.00    +0.000 OA
ENDBRANCH   4   7
BRANCH   1  17
ATOM     16  C   UNL     1       8.883   9.556  18.918  0.00  0.00    +0.000 C 
ATOM     17  N   UNL     1       8.710   8.753  17.916  0.00  0.00    +0.000 NA
BRANCH  16  18
ATOM     18  C   UNL     1       9.766  10.685  18.844  0.00  0.00    +0.000 A 
ATOM     19  C   UNL     1      10.399  11.451  19.803  0.00  0.00    +0.000 A 
ATOM     20  C   UNL     1      11.182  12.405  19.107  0.00  0.00    +0.000 A 
ATOM     21  C   UNL     1      10.968  12.174  17.770  0.00  0.00    +0.000 A 
ATOM     22  O   UNL     1      10.113  11.133  17.599  0.00  0.00    +0.000 OA
ENDBRANCH  16  18
ENDBRANCH   1  17
TORSDOF 3
ENDMDL
MODEL 2
REMARK VINA RESULT:      -7.6      1.022      1.073
REMARK  Name = 
REMARK  3 active torsions:
REMARK  status: ('A' for Active; 'I' for Inactive)
REMARK    1  A    between atoms: C_1  and  C_18
REMARK    2  A    between atoms: N_2  and  C_3
REMARK    3  A    between atoms: C_6  and  C_7
REMARK                            x       y       z     vdW  Elec       q    Type
REMARK                         _______ _______ _______ _____ _____    ______ ____
ROOT
ATOM      1  C   UNL     1       7.996   7.790  18.156  0.00  0.00    +0.000 A 
ATOM      2  C   UNL     1       6.901   7.966  17.305  0.00  0.00    +0.000 A 
ATOM      3  C   UNL     1       5.861   7.026  17.258  0.00  0.00    +0.000 A 
ATOM      4  C   UNL     1       5.888   5.886  18.070  0.00  0.00    +0.000 A 
ATOM      5  C   UNL     1       7.014   5.677  18.877  0.00  0.00    +0.000 A 
ATOM      6  C   UNL     1       8.058   6.610  18.907  0.00  0.00    +0.000 A 
ENDROOT
BRANCH   4   7
ATOM      7  C   UNL     1       4.739   4.983  18.106  0.00  0.00    +0.000 A 
ATOM      8  N   UNL     1       3.559   5.118  17.524  0.00  0.00    +0.000 NA
ATOM      9  C   UNL     1       2.819   4.085  18.044  0.00  0.00    +0.000 A 
ATOM     10  C   UNL     1       1.476   3.730  17.861  0.00  0.00    +0.000 A 
ATOM     11  C   UNL     1       0.980   2.632  18.580  0.00  0.00    +0.000 A 
ATOM     12  C   UNL     1       1.801   1.895  19.443  0.00  0.00    +0.000 A 
ATOM     13  C   UNL     1       3.152   2.229  19.623  0.00  0.00    +0.000 A 
ATOM     14  C   UNL     1       3.599   3.334  18.908  0.00  0.00    +0.000 A 
ATOM     15  O   UNL     1       4.842   3.893  18.940  0.00  0.00    +0.000 OA
ENDBRANCH   4   7
BRANCH   1  17
ATOM     16  C   UNL     1       8.588  10.041  18.224  0.00  0.00    +0.000 C 
ATOM     17  N   UNL     1       8.973   8.804  18.197  0.00  0.00    +0.000 NA
BRANCH  16  18
ATOM     18  C   UNL     1       9.525  11.129  18.210  0.00  0.00    +0.000 A 
ATOM     19  C   UNL     1      10.828  11.256  18.648  0.00  0.00    +0.000 A 
ATOM     20  C   UNL     1      11.241  12.570  18.314  0.00  0.00    +0.000 A 
ATOM     21  C   UNL     1      10.162  13.169  17.709  0.00  0.00    +0.000 A 
ATOM     22  O   UNL     1       9.118  12.303  17.638  0.00  0.00    +0.000 OA
ENDBRANCH  16  18
ENDBRANCH   1  17
TORSDOF 3
ENDMDL
MODEL 3
REMARK VINA RESULT:      -7.5      5.124      7.209
REMARK  Name = 
REMARK  3 active torsions:
REMARK  status: ('A' for Active; 'I' for Inactive)
REMARK    1  A    between atoms: C_1  and  C_18
REMARK    2  A    between atoms: N_2  and  C_3
REMARK    3  A    between atoms: C_6  and  C_7
REMARK                            x       y       z     vdW  Elec       q    Type
REMARK                         _______ _______ _______ _____ _____    ______ ____
ROOT
ATOM      1  C   UNL     1       3.773   6.005  17.719  0.00  0.00    +0.000 A 
ATOM      2  C   UNL     1       3.417   7.309  17.363  0.00  0.00    +0.000 A 
ATOM      3  C   UNL     1       2.631   8.104  18.211  0.00  0.00    +0.000 A 
ATOM      4  C   UNL     1       2.188   7.613  19.445  0.00  0.00    +0.000 A 
ATOM      5  C   UNL     1       2.491   6.286  19.775  0.00  0.00    +0.000 A 
ATOM      6  C   UNL     1       3.260   5.491  18.916  0.00  0.00    +0.000 A 
ENDROOT
BRANCH   4   7
ATOM      7  C   UNL     1       1.483   8.494  20.374  0.00  0.00    +0.000 A 
ATOM      8  N   UNL     1       1.187   8.293  21.648  0.00  0.00    +0.000 NA
ATOM      9  C   UNL     1       0.370   9.350  21.964  0.00  0.00    +0.000 A 
ATOM     10  C   UNL     1      -0.314   9.664  23.145  0.00  0.00    +0.000 A 
ATOM     11  C   UNL     1      -1.130  10.806  23.152  0.00  0.00    +0.000 A 
ATOM     12  C   UNL     1      -1.248  11.623  22.020  0.00  0.00    +0.000 A 
ATOM     13  C   UNL     1      -0.556  11.329  20.836  0.00  0.00    +0.000 A 
ATOM     14  C   UNL     1       0.226  10.180  20.865  0.00  0.00    +0.000 A 
ATOM     15  O   UNL     1       0.954   9.648  19.842  0.00  0.00    +0.000 OA
ENDBRANCH   4   7
BRANCH   1  17
ATOM     16  C   UNL     1       4.982   5.842  15.737  0.00  0.00    +0.000 C 
ATOM     17  N   UNL     1       4.614   5.287  16.847  0.00  0.00    +0.000 NA
BRANCH  16  18
ATOM     18  C   UNL     1       5.793   5.152  14.773  0.00  0.00    +0.000 A 
ATOM     19  C   UNL     1       5.569   4.052  13.970  0.00  0.00    +0.000 A 
ATOM     20  C   UNL     1       6.740   3.874  13.192  0.00  0.00    +0.000 A 
ATOM     21  C   UNL     1       7.611   4.864  13.578  0.00  0.00    +0.000 A 
ATOM     22  O   UNL     1       7.046   5.646  14.534  0.00  0.00    +0.000 OA
ENDBRANCH  16  18
ENDBRANCH   1  17
TORSDOF 3
ENDMDL
MODEL 4
REMARK VINA RESULT:      -7.5      0.983      1.115
REMARK  Name = 
REMARK  3 active torsions:
REMARK  status: ('A' for Active; 'I' for Inactive)
REMARK    1  A    between atoms: C_1  and  C_18
REMARK    2  A    between atoms: N_2  and  C_3
REMARK    3  A    between atoms: C_6  and  C_7
REMARK                            x       y       z     vdW  Elec       q    Type
REMARK                         _______ _______ _______ _____ _____    ______ ____
ROOT
ATOM      1  C   UNL     1       7.787   7.920  17.851  0.00  0.00    +0.000 A 
ATOM      2  C   UNL     1       6.582   7.878  17.144  0.00  0.00    +0.000 A 
ATOM      3  C   UNL     1       5.662   6.838  17.341  0.00  0.00    +0.000 A 
ATOM      4  C   UNL     1       5.924   5.814  18.260  0.00  0.00    +0.000 A 
ATOM      5  C   UNL     1       7.158   5.822  18.923  0.00  0.00    +0.000 A 
ATOM      6  C   UNL     1       8.081   6.854  18.709  0.00  0.00    +0.000 A 
ENDROOT
BRANCH   4   7
ATOM      7  C   UNL     1       4.901   4.810  18.550  0.00  0.00    +0.000 A 
ATOM      8  N   UNL     1       5.051   3.518  18.786  0.00  0.00    +0.000 NA
ATOM      9  C   UNL     1       3.764   3.039  18.806  0.00  0.00    +0.000 A 
ATOM     10  C   UNL     1       3.268   1.738  18.953  0.00  0.00    +0.000 A 
ATOM     11  C   UNL     1       1.879   1.549  18.879  0.00  0.00    +0.000 A 
ATOM     12  C   UNL     1       1.006   2.627  18.685  0.00  0.00    +0.000 A 
ATOM     13  C   UNL     1       1.489   3.938  18.553  0.00  0.00    +0.000 A 
ATOM     14  C   UNL     1       2.871   4.079  18.613  0.00  0.00    +0.000 A 
ATOM     15  O   UNL     1       3.593   5.227  18.466  0.00  0.00    +0.000 OA
ENDBRANCH   4   7
BRANCH   1  17
ATOM     16  C   UNL     1       8.755   9.904  18.593  0.00  0.00    +0.000 C 
ATOM     17  N   UNL     1       8.636   9.026  17.648  0.00  0.00    +0.000 NA
BRANCH  16  18
ATOM     18  C   UNL     1       9.557  11.085  18.438  0.00  0.00    +0.000 A 
ATOM     19  C   UNL     1      10.746  11.336  17.782  0.00  0.00    +0.000 A 
ATOM     20  C   UNL     1      11.017  12.717  17.952  0.00  0.00    +0.000 A 
ATOM     21  C   UNL     1       9.988  13.219  18.712  0.00  0.00    +0.000 A 
ATOM     22  O   UNL     1       9.096  12.239  19.010  0.00  0.00    +0.000 OA
ENDBRANCH  16  18
ENDBRANCH   1  17
TORSDOF 3
ENDMDL
MODEL 5
REMARK VINA RESULT:      -7.5      6.193      8.129
REMARK  Name = 
REMARK  3 active torsions:
REMARK  status: ('A' for Active; 'I' for Inactive)
REMARK    1  A    between atoms: C_1  and  C_18
REMARK    2  A    between atoms: N_2  and  C_3
REMARK    3  A    between atoms: C_6  and  C_7
REMARK                            x       y       z     vdW  Elec       q    Type
REMARK                         _______ _______ _______ _____ _____    ______ ____
ROOT
ATOM      1  C   UNL     1       2.738   7.084  18.505  0.00  0.00    +0.000 A 
ATOM      2  C   UNL     1       2.372   8.225  17.785  0.00  0.00    +0.000 A 
ATOM      3  C   UNL     1       1.652   9.265  18.391  0.00  0.00    +0.000 A 
ATOM      4  C   UNL     1       1.286   9.191  19.741  0.00  0.00    +0.000 A 
ATOM      5  C   UNL     1       1.597   8.022  20.446  0.00  0.00    +0.000 A 
ATOM      6  C   UNL     1       2.301   6.979  19.831  0.00  0.00    +0.000 A 
ENDROOT
BRANCH   4   7
ATOM      7  C   UNL     1       0.652  10.336  20.392  0.00  0.00    +0.000 A 
ATOM      8  N   UNL     1       0.960  11.619  20.301  0.00  0.00    +0.000 NA
ATOM      9  C   UNL     1       0.170  12.212  21.254  0.00  0.00    +0.000 A 
ATOM     10  C   UNL     1       0.083  13.544  21.679  0.00  0.00    +0.000 A 
ATOM     11  C   UNL     1      -0.799  13.846  22.729  0.00  0.00    +0.000 A 
ATOM     12  C   UNL     1      -1.587  12.853  23.326  0.00  0.00    +0.000 A 
ATOM     13  C   UNL     1      -1.521  11.519  22.899  0.00  0.00    +0.000 A 
ATOM     14  C   UNL     1      -0.623  11.259  21.870  0.00  0.00    +0.000 A 
ATOM     15  O   UNL     1      -0.333  10.051  21.309  0.00  0.00    +0.000 OA
ENDBRANCH   4   7
BRANCH   1  17
ATOM     16  C   UNL     1       4.428   6.492  17.017  0.00  0.00    +0.000 C 
ATOM     17  N   UNL     1       3.513   6.107  17.850  0.00  0.00    +0.000 NA
BRANCH  16  18
ATOM     18  C   UNL     1       5.219   5.554  16.270  0.00  0.00    +0.000 A 
ATOM     19  C   UNL     1       5.048   4.222  15.950  0.00  0.00    +0.000 A 
ATOM     20  C   UNL     1       6.155   3.855  15.145  0.00  0.00    +0.000 A 
ATOM     21  C   UNL     1       6.940   4.977  15.037  0.00  0.00    +0.000 A 
ATOM     22  O   UNL     1       6.381   6.014  15.713  0.00  0.00    +0.000 OA
ENDBRANCH  16  18
ENDBRANCH   1  17
TORSDOF 3
ENDMDL
MODEL 6
REMARK VINA RESULT:      -7.4      1.610      9.411
REMARK  Name = 
REMARK  3 active torsions:
REMARK  status: ('A' for Active; 'I' for Inactive)
REMARK    1  A    between atoms: C_1  and  C_18
REMARK    2  A    between atoms: N_2  and  C_3
REMARK    3  A    between atoms: C_6  and  C_7
REMARK                            x       y       z     vdW  Elec       q    Type
REMARK                         _______ _______ _______ _____ _____    ______ ____
ROOT
ATOM      1  C   UNL     1       6.749   6.175  17.882  0.00  0.00    +0.000 A 
ATOM      2  C   UNL     1       7.804   6.301  18.790  0.00  0.00    +0.000 A 
ATOM      3  C   UNL     1       8.493   7.513  18.938  0.00  0.00    +0.000 A 
ATOM      4  C   UNL     1       8.136   8.637  18.184  0.00  0.00    +0.000 A 
ATOM      5  C   UNL     1       7.121   8.496  17.229  0.00  0.00    +0.000 A 
ATOM      6  C   UNL     1       6.448   7.277  17.072  0.00  0.00    +0.000 A 
ENDROOT
BRANCH   4   7
ATOM      7  C   UNL     1       8.775   9.927  18.441  0.00  0.00    +0.000 A 
ATOM      8  N   UNL     1       8.800  11.007  17.679  0.00  0.00    +0.000 NA
ATOM      9  C   UNL     1       9.685  11.838  18.321  0.00  0.00    +0.000 A 
ATOM     10  C   UNL     1      10.177  13.103  17.975  0.00  0.00    +0.000 A 
ATOM     11  C   UNL     1      11.129  13.694  18.820  0.00  0.00    +0.000 A 
ATOM     12  C   UNL     1      11.565  13.053  19.987  0.00  0.00    +0.000 A 
ATOM     13  C   UNL     1      11.068  11.793  20.353  0.00  0.00    +0.000 A 
ATOM     14  C   UNL     1      10.142  11.235  19.480  0.00  0.00    +0.000 A 
ATOM     15  O   UNL     1       9.547  10.012  19.576  0.00  0.00    +0.000 OA
ENDBRANCH   4   7
BRANCH   1  17
ATOM     16  C   UNL     1       4.800   4.923  18.118  0.00  0.00    +0.000 C 
ATOM     17  N   UNL     1       6.062   4.946  17.830  0.00  0.00    +0.000 NA
BRANCH  16  18
ATOM     18  C   UNL     1       4.047   3.701  18.140  0.00  0.00    +0.000 A 
ATOM     19  C   UNL     1       2.999   3.226  17.377  0.00  0.00    +0.000 A 
ATOM     20  C   UNL     1       2.710   1.923  17.852  0.00  0.00    +0.000 A 
ATOM     21  C   UNL     1       3.586   1.688  18.884  0.00  0.00    +0.000 A 
ATOM     22  O   UNL     1       4.403   2.758  19.066  0.00  0.00    +0.000 OA
ENDBRANCH  16  18
ENDBRANCH   1  17
TORSDOF 3
ENDMDL
MODEL 7
REMARK VINA RESULT:      -7.4      6.099      8.052
REMARK  Name = 
REMARK  3 active torsions:
REMARK  status: ('A' for Active; 'I' for Inactive)
REMARK    1  A    between atoms: C_1  and  C_18
REMARK    2  A    between atoms: N_2  and  C_3
REMARK    3  A    between atoms: C_6  and  C_7
REMARK                            x       y       z     vdW  Elec       q    Type
REMARK                         _______ _______ _______ _____ _____    ______ ____
ROOT
ATOM      1  C   UNL     1       2.823   7.235  18.262  0.00  0.00    +0.000 A 
ATOM      2  C   UNL     1       2.471   6.991  19.593  0.00  0.00    +0.000 A 
ATOM      3  C   UNL     1       1.730   7.926  20.330  0.00  0.00    +0.000 A 
ATOM      4  C   UNL     1       1.315   9.130  19.747  0.00  0.00    +0.000 A 
ATOM      5  C   UNL     1       1.720   9.403  18.435  0.00  0.00    +0.000 A 
ATOM      6  C   UNL     1       2.476   8.474  17.709  0.00  0.00    +0.000 A 
ENDROOT
BRANCH   4   7
ATOM      7  C   UNL     1       0.434  10.035  20.484  0.00  0.00    +0.000 A 
ATOM      8  N   UNL     1       0.229  10.116  21.788  0.00  0.00    +0.000 NA
ATOM      9  C   UNL     1      -0.820  10.995  21.899  0.00  0.00    +0.000 A 
ATOM     10  C   UNL     1      -1.532  11.443  23.019  0.00  0.00    +0.000 A 
ATOM     11  C   UNL     1      -2.607  12.320  22.810  0.00  0.00    +0.000 A 
ATOM     12  C   UNL     1      -2.953  12.756  21.525  0.00  0.00    +0.000 A 
ATOM     13  C   UNL     1      -2.238  12.328  20.396  0.00  0.00    +0.000 A 
ATOM     14  C   UNL     1      -1.193  11.446  20.644  0.00  0.00    +0.000 A 
ATOM     15  O   UNL     1      -0.379  10.848  19.728  0.00  0.00    +0.000 OA
ENDBRANCH   4   7
BRANCH   1  17
ATOM     16  C   UNL     1       4.575   6.546  16.891  0.00  0.00    +0.000 C 
ATOM     17  N   UNL     1       3.516   6.226  17.564  0.00  0.00    +0.000 NA
BRANCH  16  18
ATOM     18  C   UNL     1       5.300   5.583  16.111  0.00  0.00    +0.000 A 
ATOM     19  C   UNL     1       4.982   4.329  15.629  0.00  0.00    +0.000 A 
ATOM     20  C   UNL     1       6.103   3.887  14.882  0.00  0.00    +0.000 A 
ATOM     21  C   UNL     1       7.040   4.888  14.968  0.00  0.00    +0.000 A 
ATOM     22  O   UNL     1       6.563   5.922  15.708  0.00  0.00    +0.000 OA
ENDBRANCH  16  18
ENDBRANCH   1  17
TORSDOF 3
ENDMDL
MODEL 8
REMARK VINA RESULT:      -7.3      1.530      9.381
REMARK  Name = 
REMARK  3 active torsions:
REMARK  status: ('A' for Active; 'I' for Inactive)
REMARK    1  A    between atoms: C_1  and  C_18
REMARK    2  A    between atoms: N_2  and  C_3
REMARK    3  A    between atoms: C_6  and  C_7
REMARK                            x       y       z     vdW  Elec       q    Type
REMARK                         _______ _______ _______ _____ _____    ______ ____
ROOT
ATOM      1  C   UNL     1       6.682   6.039  17.954  0.00  0.00    +0.000 A 
ATOM      2  C   UNL     1       7.736   6.082  18.871  0.00  0.00    +0.000 A 
ATOM      3  C   UNL     1       8.491   7.250  19.054  0.00  0.00    +0.000 A 
ATOM      4  C   UNL     1       8.204   8.410  18.324  0.00  0.00    +0.000 A 
ATOM      5  C   UNL     1       7.190   8.349  17.360  0.00  0.00    +0.000 A 
ATOM      6  C   UNL     1       6.451   7.175  17.169  0.00  0.00    +0.000 A 
ENDROOT
BRANCH   4   7
ATOM      7  C   UNL     1       8.913   9.654  18.617  0.00  0.00    +0.000 A 
ATOM      8  N   UNL     1       9.481  10.040  19.747  0.00  0.00    +0.000 NA
ATOM      9  C   UNL     1       9.824  11.348  19.510  0.00  0.00    +0.000 A 
ATOM     10  C   UNL     1      10.404  12.314  20.343  0.00  0.00    +0.000 A 
ATOM     11  C   UNL     1      10.590  13.605  19.825  0.00  0.00    +0.000 A 
ATOM     12  C   UNL     1      10.228  13.922  18.510  0.00  0.00    +0.000 A 
ATOM     13  C   UNL     1       9.661  12.960  17.661  0.00  0.00    +0.000 A 
ATOM     14  C   UNL     1       9.476  11.700  18.217  0.00  0.00    +0.000 A 
ATOM     15  O   UNL     1       8.906  10.610  17.628  0.00  0.00    +0.000 OA
ENDBRANCH   4   7
BRANCH   1  17
ATOM     16  C   UNL     1       4.646   4.913  18.042  0.00  0.00    +0.000 C 
ATOM     17  N   UNL     1       5.928   4.852  17.867  0.00  0.00    +0.000 NA
BRANCH  16  18
ATOM     18  C   UNL     1       3.819   3.740  18.023  0.00  0.00    +0.000 A 
ATOM     19  C   UNL     1       2.648   3.423  17.363  0.00  0.00    +0.000 A 
ATOM     20  C   UNL     1       2.335   2.086  17.715  0.00  0.00    +0.000 A 
ATOM     21  C   UNL     1       3.322   1.675  18.578  0.00  0.00    +0.000 A 
ATOM     22  O   UNL     1       4.228   2.669  18.770  0.00  0.00    +0.000 OA
ENDBRANCH  16  18
ENDBRANCH   1  17
TORSDOF 3
ENDMDL
MODEL 9
REMARK VINA RESULT:      -7.3      6.232      8.158
REMARK  Name = 
REMARK  3 active torsions:
REMARK  status: ('A' for Active; 'I' for Inactive)
REMARK    1  A    between atoms: C_1  and  C_18
REMARK    2  A    between atoms: N_2  and  C_3
REMARK    3  A    between atoms: C_6  and  C_7
REMARK                            x       y       z     vdW  Elec       q    Type
REMARK                         _______ _______ _______ _____ _____    ______ ____
ROOT
ATOM      1  C   UNL     1       2.699   7.319  18.377  0.00  0.00    +0.000 A 
ATOM      2  C   UNL     1       2.292   7.181  19.707  0.00  0.00    +0.000 A 
ATOM      3  C   UNL     1       1.473   8.141  20.318  0.00  0.00    +0.000 A 
ATOM      4  C   UNL     1       1.032   9.263  19.608  0.00  0.00    +0.000 A 
ATOM      5  C   UNL     1       1.489   9.435  18.295  0.00  0.00    +0.000 A 
ATOM      6  C   UNL     1       2.323   8.482  17.695  0.00  0.00    +0.000 A 
ENDROOT
BRANCH   4   7
ATOM      7  C   UNL     1       0.074  10.186  20.215  0.00  0.00    +0.000 A 
ATOM      8  N   UNL     1      -0.513  11.244  19.680  0.00  0.00    +0.000 NA
ATOM      9  C   UNL     1      -1.154  11.832  20.742  0.00  0.00    +0.000 A 
ATOM     10  C   UNL     1      -1.898  13.016  20.827  0.00  0.00    +0.000 A 
ATOM     11  C   UNL     1      -2.396  13.393  22.084  0.00  0.00    +0.000 A 
ATOM     12  C   UNL     1      -2.177  12.605  23.221  0.00  0.00    +0.000 A 
ATOM     13  C   UNL     1      -1.447  11.409  23.146  0.00  0.00    +0.000 A 
ATOM     14  C   UNL     1      -0.955  11.082  21.888  0.00  0.00    +0.000 A 
ATOM     15  O   UNL     1      -0.182  10.009  21.555  0.00  0.00    +0.000 OA
ENDBRANCH   4   7
BRANCH   1  17
ATOM     16  C   UNL     1       4.445   6.599  17.015  0.00  0.00    +0.000 C 
ATOM     17  N   UNL     1       3.471   6.286  17.810  0.00  0.00    +0.000 NA
BRANCH  16  18
ATOM     18  C   UNL     1       5.240   5.602  16.357  0.00  0.00    +0.000 A 
ATOM     19  C   UNL     1       5.187   4.222  16.329  0.00  0.00    +0.000 A 
ATOM     20  C   UNL     1       6.220   3.795  15.458  0.00  0.00    +0.000 A 
ATOM     21  C   UNL     1       6.850   4.936  15.021  0.00  0.00    +0.000 A 
ATOM     22  O   UNL     1       6.262   6.036  15.558  0.00  0.00    +0.000 OA
ENDBRANCH  16  18
ENDBRANCH   1  17
TORSDOF 3
ENDMDL
