MODEL 1
REMARK VINA RESULT:      -9.3      0.000      0.000
REMARK  Name = 
REMARK  5 active torsions:
REMARK  status: ('A' for Active; 'I' for Inactive)
REMARK    1  A    between atoms: C_1  and  C_2
REMARK    2  A    between atoms: C_2  and  N_3
REMARK    3  A    between atoms: C_10  and  C_12
REMARK    4  A    between atoms: C_12  and  C_13
REMARK    5  A    between atoms: C_21  and  C_22
REMARK                            x       y       z     vdW  Elec       q    Type
REMARK                         _______ _______ _______ _____ _____    ______ ____
ROOT
ATOM      1  N   UNL     1       6.361   3.980  13.461  0.00  0.00    +0.000 N 
ATOM      2  C   UNL     1       5.559   3.528  14.474  0.00  0.00    +0.000 A 
ATOM      3  C   UNL     1       5.927   4.281  15.545  0.00  0.00    +0.000 A 
ATOM      4  C   UNL     1       6.929   5.158  15.115  0.00  0.00    +0.000 A 
ATOM      5  N   UNL     1       7.526   6.135  15.946  0.00  0.00    +0.000 NA
ATOM      6  C   UNL     1       7.058   6.194  17.166  0.00  0.00    +0.000 A 
ATOM      7  N   UNL     1       7.459   7.090  18.147  0.00  0.00    +0.000 N 
ATOM      8  C   UNL     1       8.192   8.249  17.931  0.00  0.00    +0.000 C 
ATOM      9  O   UNL     1       8.489   8.692  16.824  0.00  0.00    +0.000 OA
ATOM     10  N   UNL     1       6.056   5.333  17.670  0.00  0.00    +0.000 N 
ATOM     11  N   UNL     1       5.495   5.369  18.906  0.00  0.00    +0.000 NA
ATOM     12  C   UNL     1       4.600   4.361  18.802  0.00  0.00    +0.000 A 
ATOM     13  N   UNL     1       4.586   3.699  17.590  0.00  0.00    +0.000 NA
ATOM     14  C   UNL     1       5.479   4.363  16.912  0.00  0.00    +0.000 A 
ATOM     15  N   UNL     1       7.218   4.974  13.829  0.00  0.00    +0.000 NA
ATOM     16  H   UNL     1       7.057   6.957  19.073  0.00  0.00    +0.000 HD
ENDROOT
BRANCH  12  17
ATOM     17  C   UNL     1       3.658   3.949  19.886  0.00  0.00    +0.000 A 
ATOM     18  C   UNL     1       2.672   4.761  20.422  0.00  0.00    +0.000 A 
ATOM     19  C   UNL     1       2.001   3.998  21.404  0.00  0.00    +0.000 A 
ATOM     20  C   UNL     1       2.640   2.782  21.436  0.00  0.00    +0.000 A 
ATOM     21  O   UNL     1       3.629   2.732  20.507  0.00  0.00    +0.000 OA
ENDBRANCH  12  17
BRANCH   1  23
ATOM     22  C   UNL     1       4.973   3.018  11.659  0.00  0.00    +0.000 C 
ATOM     23  C   UNL     1       6.350   3.488  12.092  0.00  0.00    +0.000 C 
ENDBRANCH   1  23
BRANCH   8  24
ATOM     24  C   UNL     1       8.567   9.008  19.196  0.00  0.00    +0.000 C 
BRANCH  24  25
ATOM     25  C   UNL     1       9.147  10.375  18.923  0.00  0.00    +0.000 A 
ATOM     26  C   UNL     1      10.309  10.799  19.582  0.00  0.00    +0.000 A 
ATOM     27  C   UNL     1      10.824  12.079  19.362  0.00  0.00    +0.000 A 
ATOM     28  C   UNL     1      10.191  12.945  18.473  0.00  0.00    +0.000 A 
ATOM     29  C   UNL     1       9.060  12.520  17.777  0.00  0.00    +0.000 A 
ATOM     30  C   UNL     1       8.547  11.238  17.993  0.00  0.00    +0.000 A 
ENDBRANCH  24  25
ENDBRANCH   8  24
TORSDOF 4
ENDMDL
MODEL 2
REMARK VINA RESULT:      -8.2      7.778     11.303
REMARK  Name = 
REMARK  5 active torsions:
REMARK  status: ('A' for Active; 'I' for Inactive)
REMARK    1  A    between atoms: C_1  and  C_2
REMARK    2  A    between atoms: C_2  and  N_3
REMARK    3  A    between atoms: C_10  and  C_12
REMARK    4  A    between atoms: C_12  and  C_13
REMARK    5  A    between atoms: C_21  and  C_22
REMARK                            x       y       z     vdW  Elec       q    Type
REMARK                         _______ _______ _______ _____ _____    ______ ____
ROOT
ATOM      1  N   UNL     1      -1.479  12.923  22.710  0.00  0.00    +0.000 N 
ATOM      2  C   UNL     1      -2.108  12.894  21.494  0.00  0.00    +0.000 A 
ATOM      3  C   UNL     1      -1.416  11.960  20.788  0.00  0.00    +0.000 A 
ATOM      4  C   UNL     1      -0.408  11.466  21.624  0.00  0.00    +0.000 A 
ATOM      5  N   UNL     1       0.487  10.437  21.250  0.00  0.00    +0.000 NA
ATOM      6  C   UNL     1       0.300   9.940  20.054  0.00  0.00    +0.000 A 
ATOM      7  N   UNL     1       1.026   8.904  19.483  0.00  0.00    +0.000 N 
ATOM      8  C   UNL     1       1.860   8.030  20.166  0.00  0.00    +0.000 C 
ATOM      9  O   UNL     1       1.980   7.990  21.389  0.00  0.00    +0.000 OA
ATOM     10  N   UNL     1      -0.689  10.398  19.154  0.00  0.00    +0.000 N 
ATOM     11  N   UNL     1      -0.967   9.898  17.922  0.00  0.00    +0.000 NA
ATOM     12  C   UNL     1      -2.003  10.689  17.561  0.00  0.00    +0.000 A 
ATOM     13  N   UNL     1      -2.369  11.650  18.483  0.00  0.00    +0.000 NA
ATOM     14  C   UNL     1      -1.550  11.404  19.466  0.00  0.00    +0.000 A 
ATOM     15  N   UNL     1      -0.427  12.063  22.814  0.00  0.00    +0.000 NA
ATOM     16  H   UNL     1       0.812   8.683  18.513  0.00  0.00    +0.000 HD
ENDROOT
BRANCH  12  17
ATOM     17  C   UNL     1      -2.747  10.574  16.271  0.00  0.00    +0.000 A 
ATOM     18  C   UNL     1      -2.390   9.734  15.229  0.00  0.00    +0.000 A 
ATOM     19  C   UNL     1      -3.348   9.917  14.207  0.00  0.00    +0.000 A 
ATOM     20  C   UNL     1      -4.209  10.883  14.668  0.00  0.00    +0.000 A 
ATOM     21  O   UNL     1      -3.868  11.273  15.924  0.00  0.00    +0.000 OA
ENDBRANCH  12  17
BRANCH   1  23
ATOM     22  C   UNL     1      -3.353  13.946  23.951  0.00  0.00    +0.000 C 
ATOM     23  C   UNL     1      -1.850  13.770  23.833  0.00  0.00    +0.000 C 
ENDBRANCH   1  23
BRANCH   8  24
ATOM     24  C   UNL     1       2.600   7.037  19.283  0.00  0.00    +0.000 C 
BRANCH  24  25
ATOM     25  C   UNL     1       2.044   5.635  19.362  0.00  0.00    +0.000 A 
ATOM     26  C   UNL     1       1.909   4.856  18.205  0.00  0.00    +0.000 A 
ATOM     27  C   UNL     1       1.356   3.575  18.272  0.00  0.00    +0.000 A 
ATOM     28  C   UNL     1       0.944   3.053  19.496  0.00  0.00    +0.000 A 
ATOM     29  C   UNL     1       1.115   3.799  20.661  0.00  0.00    +0.000 A 
ATOM     30  C   UNL     1       1.671   5.079  20.596  0.00  0.00    +0.000 A 
ENDBRANCH  24  25
ENDBRANCH   8  24
TORSDOF 4
ENDMDL
MODEL 3
REMARK VINA RESULT:      -8.0      7.680     11.108
REMARK  Name = 
REMARK  5 active torsions:
REMARK  status: ('A' for Active; 'I' for Inactive)
REMARK    1  A    between atoms: C_1  and  C_2
REMARK    2  A    between atoms: C_2  and  N_3
REMARK    3  A    between atoms: C_10  and  C_12
REMARK    4  A    between atoms: C_12  and  C_13
REMARK    5  A    between atoms: C_21  and  C_22
REMARK                            x       y       z     vdW  Elec       q    Type
REMARK                         _______ _______ _______ _____ _____    ______ ____
ROOT
ATOM      1  N   UNL     1      -1.228  13.021  22.222  0.00  0.00    +0.000 N 
ATOM      2  C   UNL     1      -1.872  12.953  21.016  0.00  0.00    +0.000 A 
ATOM      3  C   UNL     1      -1.216  11.967  20.348  0.00  0.00    +0.000 A 
ATOM      4  C   UNL     1      -0.213  11.483  21.196  0.00  0.00    +0.000 A 
ATOM      5  N   UNL     1       0.647  10.411  20.862  0.00  0.00    +0.000 NA
ATOM      6  C   UNL     1       0.432   9.864  19.693  0.00  0.00    +0.000 A 
ATOM      7  N   UNL     1       1.121   8.780  19.165  0.00  0.00    +0.000 N 
ATOM      8  C   UNL     1       1.937   7.915  19.880  0.00  0.00    +0.000 C 
ATOM      9  O   UNL     1       2.069   7.930  21.102  0.00  0.00    +0.000 OA
ATOM     10  N   UNL     1      -0.554  10.308  18.782  0.00  0.00    +0.000 N 
ATOM     11  N   UNL     1      -0.860   9.759  17.579  0.00  0.00    +0.000 NA
ATOM     12  C   UNL     1      -1.876  10.562  17.191  0.00  0.00    +0.000 A 
ATOM     13  N   UNL     1      -2.204  11.576  18.069  0.00  0.00    +0.000 NA
ATOM     14  C   UNL     1      -1.381  11.352  19.055  0.00  0.00    +0.000 A 
ATOM     15  N   UNL     1      -0.200  12.135  22.356  0.00  0.00    +0.000 NA
ATOM     16  H   UNL     1       0.889   8.520  18.208  0.00  0.00    +0.000 HD
ENDROOT
BRANCH  12  17
ATOM     17  C   UNL     1      -2.638  10.408  15.916  0.00  0.00    +0.000 A 
ATOM     18  C   UNL     1      -3.979  10.716  15.758  0.00  0.00    +0.000 A 
ATOM     19  C   UNL     1      -4.309  10.441  14.412  0.00  0.00    +0.000 A 
ATOM     20  C   UNL     1      -3.163   9.947  13.838  0.00  0.00    +0.000 A 
ATOM     21  O   UNL     1      -2.140   9.943  14.731  0.00  0.00    +0.000 OA
ENDBRANCH  12  17
BRANCH   1  23
ATOM     22  C   UNL     1      -0.743  15.208  23.260  0.00  0.00    +0.000 C 
ATOM     23  C   UNL     1      -1.561  13.931  23.307  0.00  0.00    +0.000 C 
ENDBRANCH   1  23
BRANCH   8  24
ATOM     24  C   UNL     1       2.637   6.860  19.037  0.00  0.00    +0.000 C 
BRANCH  24  25
ATOM     25  C   UNL     1       2.040   5.481  19.188  0.00  0.00    +0.000 A 
ATOM     26  C   UNL     1       1.613   5.023  20.442  0.00  0.00    +0.000 A 
ATOM     27  C   UNL     1       1.099   3.733  20.590  0.00  0.00    +0.000 A 
ATOM     28  C   UNL     1       0.996   2.890  19.486  0.00  0.00    +0.000 A 
ATOM     29  C   UNL     1       1.375   3.347  18.226  0.00  0.00    +0.000 A 
ATOM     30  C   UNL     1       1.885   4.640  18.075  0.00  0.00    +0.000 A 
ENDBRANCH  24  25
ENDBRANCH   8  24
TORSDOF 4
ENDMDL
MODEL 4
REMARK VINA RESULT:      -7.8      4.338      6.017
REMARK  Name = 
REMARK  5 active torsions:
REMARK  status: ('A' for Active; 'I' for Inactive)
REMARK    1  A    between atoms: C_1  and  C_2
REMARK    2  A    between atoms: C_2  and  N_3
REMARK    3  A    between atoms: C_10  and  C_12
REMARK    4  A    between atoms: C_12  and  C_13
REMARK    5  A    between atoms: C_21  and  C_22
REMARK                            x       y       z     vdW  Elec       q    Type
REMARK                         _______ _______ _______ _____ _____    ______ ____
ROOT
ATOM      1  N   UNL     1       6.048   5.302  15.174  0.00  0.00    +0.000 N 
ATOM      2  C   UNL     1       5.656   4.428  16.152  0.00  0.00    +0.000 A 
ATOM      3  C   UNL     1       4.863   5.178  16.964  0.00  0.00    +0.000 A 
ATOM      4  C   UNL     1       4.812   6.468  16.423  0.00  0.00    +0.000 A 
ATOM      5  N   UNL     1       4.037   7.517  16.970  0.00  0.00    +0.000 NA
ATOM      6  C   UNL     1       3.332   7.201  18.026  0.00  0.00    +0.000 A 
ATOM      7  N   UNL     1       2.473   8.049  18.712  0.00  0.00    +0.000 N 
ATOM      8  C   UNL     1       1.989   9.261  18.242  0.00  0.00    +0.000 C 
ATOM      9  O   UNL     1       2.171   9.693  17.105  0.00  0.00    +0.000 OA
ATOM     10  N   UNL     1       3.346   5.924  18.632  0.00  0.00    +0.000 N 
ATOM     11  N   UNL     1       2.607   5.517  19.696  0.00  0.00    +0.000 NA
ATOM     12  C   UNL     1       3.003   4.228  19.795  0.00  0.00    +0.000 A 
ATOM     13  N   UNL     1       3.948   3.821  18.872  0.00  0.00    +0.000 NA
ATOM     14  C   UNL     1       4.098   4.897  18.153  0.00  0.00    +0.000 A 
ATOM     15  N   UNL     1       5.551   6.563  15.320  0.00  0.00    +0.000 NA
ATOM     16  H   UNL     1       2.056   7.677  19.563  0.00  0.00    +0.000 HD
ENDROOT
BRANCH  12  17
ATOM     17  C   UNL     1       2.486   3.257  20.806  0.00  0.00    +0.000 A 
ATOM     18  C   UNL     1       1.162   3.164  21.202  0.00  0.00    +0.000 A 
ATOM     19  C   UNL     1       1.091   2.126  22.157  0.00  0.00    +0.000 A 
ATOM     20  C   UNL     1       2.378   1.673  22.316  0.00  0.00    +0.000 A 
ATOM     21  O   UNL     1       3.228   2.334  21.488  0.00  0.00    +0.000 OA
ENDBRANCH  12  17
BRANCH   1  23
ATOM     22  C   UNL     1       6.323   3.903  13.158  0.00  0.00    +0.000 C 
ATOM     23  C   UNL     1       6.913   4.979  14.050  0.00  0.00    +0.000 C 
ENDBRANCH   1  23
BRANCH   8  24
ATOM     24  C   UNL     1       1.127  10.028  19.233  0.00  0.00    +0.000 C 
BRANCH  24  25
ATOM     25  C   UNL     1      -0.205  10.455  18.664  0.00  0.00    +0.000 A 
ATOM     26  C   UNL     1      -0.853   9.669  17.702  0.00  0.00    +0.000 A 
ATOM     27  C   UNL     1      -2.065  10.083  17.144  0.00  0.00    +0.000 A 
ATOM     28  C   UNL     1      -2.648  11.282  17.549  0.00  0.00    +0.000 A 
ATOM     29  C   UNL     1      -2.037  12.051  18.537  0.00  0.00    +0.000 A 
ATOM     30  C   UNL     1      -0.827  11.636  19.099  0.00  0.00    +0.000 A 
ENDBRANCH  24  25
ENDBRANCH   8  24
TORSDOF 4
ENDMDL
MODEL 5
REMARK VINA RESULT:      -7.7      8.169     11.374
REMARK  Name = 
REMARK  5 active torsions:
REMARK  status: ('A' for Active; 'I' for Inactive)
REMARK    1  A    between atoms: C_1  and  C_2
REMARK    2  A    between atoms: C_2  and  N_3
REMARK    3  A    between atoms: C_10  and  C_12
REMARK    4  A    between atoms: C_12  and  C_13
REMARK    5  A    between atoms: C_21  and  C_22
REMARK                            x       y       z     vdW  Elec       q    Type
REMARK                         _______ _______ _______ _____ _____    ______ ____
ROOT
ATOM      1  N   UNL     1      -2.909  13.061  21.575  0.00  0.00    +0.000 N 
ATOM      2  C   UNL     1      -3.335  12.867  20.288  0.00  0.00    +0.000 A 
ATOM      3  C   UNL     1      -2.421  12.008  19.764  0.00  0.00    +0.000 A 
ATOM      4  C   UNL     1      -1.492  11.721  20.772  0.00  0.00    +0.000 A 
ATOM      5  N   UNL     1      -0.415  10.818  20.612  0.00  0.00    +0.000 NA
ATOM      6  C   UNL     1      -0.346  10.230  19.445  0.00  0.00    +0.000 A 
ATOM      7  N   UNL     1       0.596   9.283  19.067  0.00  0.00    +0.000 N 
ATOM      8  C   UNL     1       1.431   8.586  19.929  0.00  0.00    +0.000 C 
ATOM      9  O   UNL     1       1.367   8.636  21.156  0.00  0.00    +0.000 OA
ATOM     10  N   UNL     1      -1.242  10.481  18.380  0.00  0.00    +0.000 N 
ATOM     11  N   UNL     1      -1.256   9.874  17.165  0.00  0.00    +0.000 NA
ATOM     12  C   UNL     1      -2.326  10.477  16.599  0.00  0.00    +0.000 A 
ATOM     13  N   UNL     1      -2.959  11.424  17.379  0.00  0.00    +0.000 NA
ATOM     14  C   UNL     1      -2.272  11.362  18.485  0.00  0.00    +0.000 A 
ATOM     15  N   UNL     1      -1.775  12.377  21.895  0.00  0.00    +0.000 NA
ATOM     16  H   UNL     1       0.565   8.977  18.097  0.00  0.00    +0.000 HD
ENDROOT
BRANCH  12  17
ATOM     17  C   UNL     1      -2.841  10.176  15.230  0.00  0.00    +0.000 A 
ATOM     18  C   UNL     1      -4.163  10.315  14.839  0.00  0.00    +0.000 A 
ATOM     19  C   UNL     1      -4.230   9.942  13.477  0.00  0.00    +0.000 A 
ATOM     20  C   UNL     1      -2.956   9.563  13.129  0.00  0.00    +0.000 A 
ATOM     21  O   UNL     1      -2.103   9.721  14.174  0.00  0.00    +0.000 OA
ENDBRANCH  12  17
BRANCH   1  23
ATOM     22  C   UNL     1      -2.571  14.551  23.515  0.00  0.00    +0.000 C 
ATOM     23  C   UNL     1      -3.561  13.907  22.562  0.00  0.00    +0.000 C 
ENDBRANCH   1  23
BRANCH   8  24
ATOM     24  C   UNL     1       2.428   7.666  19.242  0.00  0.00    +0.000 C 
BRANCH  24  25
ATOM     25  C   UNL     1       2.006   6.216  19.246  0.00  0.00    +0.000 A 
ATOM     26  C   UNL     1       1.586   5.600  20.433  0.00  0.00    +0.000 A 
ATOM     27  C   UNL     1       1.235   4.249  20.447  0.00  0.00    +0.000 A 
ATOM     28  C   UNL     1       1.289   3.500  19.274  0.00  0.00    +0.000 A 
ATOM     29  C   UNL     1       1.661   4.110  18.078  0.00  0.00    +0.000 A 
ATOM     30  C   UNL     1       2.008   5.463  18.061  0.00  0.00    +0.000 A 
ENDBRANCH  24  25
ENDBRANCH   8  24
TORSDOF 4
ENDMDL
MODEL 6
REMARK VINA RESULT:      -7.5      8.578     10.113
REMARK  Name = 
REMARK  5 active torsions:
REMARK  status: ('A' for Active; 'I' for Inactive)
REMARK    1  A    between atoms: C_1  and  C_2
REMARK    2  A    between atoms: C_2  and  N_3
REMARK    3  A    between atoms: C_10  and  C_12
REMARK    4  A    between atoms: C_12  and  C_13
REMARK    5  A    between atoms: C_21  and  C_22
REMARK                            x       y       z     vdW  Elec       q    Type
REMARK                         _______ _______ _______ _____ _____    ______ ____
ROOT
ATOM      1  N   UNL     1       2.518  16.648  18.841  0.00  0.00    +0.000 N 
ATOM      2  C   UNL     1       2.595  15.869  19.964  0.00  0.00    +0.000 A 
ATOM      3  C   UNL     1       3.917  15.565  20.064  0.00  0.00    +0.000 A 
ATOM      4  C   UNL     1       4.571  16.189  18.996  0.00  0.00    +0.000 A 
ATOM      5  N   UNL     1       5.971  16.141  18.797  0.00  0.00    +0.000 NA
ATOM      6  C   UNL     1       6.642  15.483  19.706  0.00  0.00    +0.000 A 
ATOM      7  N   UNL     1       8.022  15.330  19.745  0.00  0.00    +0.000 N 
ATOM      8  C   UNL     1       8.937  16.075  19.016  0.00  0.00    +0.000 C 
ATOM      9  O   UNL     1       8.651  17.048  18.320  0.00  0.00    +0.000 OA
ATOM     10  N   UNL     1       6.047  14.819  20.803  0.00  0.00    +0.000 N 
ATOM     11  N   UNL     1       6.685  14.160  21.804  0.00  0.00    +0.000 NA
ATOM     12  C   UNL     1       5.632  13.777  22.561  0.00  0.00    +0.000 A 
ATOM     13  N   UNL     1       4.389  14.144  22.083  0.00  0.00    +0.000 NA
ATOM     14  C   UNL     1       4.703  14.818  21.013  0.00  0.00    +0.000 A 
ATOM     15  N   UNL     1       3.716  16.854  18.223  0.00  0.00    +0.000 NA
ATOM     16  H   UNL     1       8.389  14.721  20.473  0.00  0.00    +0.000 HD
ENDROOT
BRANCH  12  17
ATOM     17  C   UNL     1       5.741  13.015  23.841  0.00  0.00    +0.000 A 
ATOM     18  C   UNL     1       6.370  11.788  23.975  0.00  0.00    +0.000 A 
ATOM     19  C   UNL     1       6.261  11.417  25.334  0.00  0.00    +0.000 A 
ATOM     20  C   UNL     1       5.541  12.418  25.940  0.00  0.00    +0.000 A 
ATOM     21  O   UNL     1       5.240  13.401  25.052  0.00  0.00    +0.000 OA
ENDBRANCH  12  17
BRANCH   1  23
ATOM     22  C   UNL     1       1.543  17.967  16.995  0.00  0.00    +0.000 C 
ATOM     23  C   UNL     1       1.302  17.237  18.303  0.00  0.00    +0.000 C 
ENDBRANCH   1  23
BRANCH   8  24
ATOM     24  C   UNL     1      10.386  15.643  19.185  0.00  0.00    +0.000 C 
BRANCH  24  25
ATOM     25  C   UNL     1      10.580  14.148  19.092  0.00  0.00    +0.000 A 
ATOM     26  C   UNL     1      10.264  13.462  17.911  0.00  0.00    +0.000 A 
ATOM     27  C   UNL     1      10.403  12.074  17.837  0.00  0.00    +0.000 A 
ATOM     28  C   UNL     1      10.870  11.358  18.937  0.00  0.00    +0.000 A 
ATOM     29  C   UNL     1      11.231  12.032  20.102  0.00  0.00    +0.000 A 
ATOM     30  C   UNL     1      11.096  13.421  20.176  0.00  0.00    +0.000 A 
ENDBRANCH  24  25
ENDBRANCH   8  24
TORSDOF 4
ENDMDL
MODEL 7
REMARK VINA RESULT:      -7.4      4.547      7.552
REMARK  Name = 
REMARK  5 active torsions:
REMARK  status: ('A' for Active; 'I' for Inactive)
REMARK    1  A    between atoms: C_1  and  C_2
REMARK    2  A    between atoms: C_2  and  N_3
REMARK    3  A    between atoms: C_10  and  C_12
REMARK    4  A    between atoms: C_12  and  C_13
REMARK    5  A    between atoms: C_21  and  C_22
REMARK                            x       y       z     vdW  Elec       q    Type
REMARK                         _______ _______ _______ _____ _____    ______ ____
ROOT
ATOM      1  N   UNL     1       4.074   2.258  20.630  0.00  0.00    +0.000 N 
ATOM      2  C   UNL     1       4.774   2.236  19.454  0.00  0.00    +0.000 A 
ATOM      3  C   UNL     1       4.400   3.383  18.827  0.00  0.00    +0.000 A 
ATOM      4  C   UNL     1       3.497   4.044  19.668  0.00  0.00    +0.000 A 
ATOM      5  N   UNL     1       2.928   5.305  19.372  0.00  0.00    +0.000 NA
ATOM      6  C   UNL     1       3.322   5.847  18.248  0.00  0.00    +0.000 A 
ATOM      7  N   UNL     1       2.932   7.089  17.765  0.00  0.00    +0.000 N 
ATOM      8  C   UNL     1       2.306   8.082  18.504  0.00  0.00    +0.000 C 
ATOM      9  O   UNL     1       2.114   8.035  19.717  0.00  0.00    +0.000 OA
ATOM     10  N   UNL     1       4.220   5.232  17.346  0.00  0.00    +0.000 N 
ATOM     11  N   UNL     1       4.704   5.756  16.191  0.00  0.00    +0.000 NA
ATOM     12  C   UNL     1       5.523   4.757  15.789  0.00  0.00    +0.000 A 
ATOM     13  N   UNL     1       5.562   3.649  16.613  0.00  0.00    +0.000 NA
ATOM     14  C   UNL     1       4.767   4.009  17.581  0.00  0.00    +0.000 A 
ATOM     15  N   UNL     1       3.276   3.353  20.783  0.00  0.00    +0.000 NA
ATOM     16  H   UNL     1       3.264   7.337  16.835  0.00  0.00    +0.000 HD
ENDROOT
BRANCH  12  17
ATOM     17  C   UNL     1       6.361   4.794  14.554  0.00  0.00    +0.000 A 
ATOM     18  C   UNL     1       6.124   4.036  13.419  0.00  0.00    +0.000 A 
ATOM     19  C   UNL     1       7.129   4.369  12.484  0.00  0.00    +0.000 A 
ATOM     20  C   UNL     1       7.941   5.280  13.114  0.00  0.00    +0.000 A 
ATOM     21  O   UNL     1       7.475   5.562  14.359  0.00  0.00    +0.000 OA
ENDBRANCH  12  17
BRANCH   1  23
ATOM     22  C   UNL     1       5.528   0.672  21.840  0.00  0.00    +0.000 C 
ATOM     23  C   UNL     1       4.132   1.239  21.666  0.00  0.00    +0.000 C 
ENDBRANCH   1  23
BRANCH   8  24
ATOM     24  C   UNL     1       1.914   9.316  17.705  0.00  0.00    +0.000 C 
BRANCH  24  25
ATOM     25  C   UNL     1       0.705  10.030  18.261  0.00  0.00    +0.000 A 
ATOM     26  C   UNL     1      -0.582   9.711  17.807  0.00  0.00    +0.000 A 
ATOM     27  C   UNL     1      -1.697  10.399  18.290  0.00  0.00    +0.000 A 
ATOM     28  C   UNL     1      -1.541  11.405  19.241  0.00  0.00    +0.000 A 
ATOM     29  C   UNL     1      -0.272  11.701  19.736  0.00  0.00    +0.000 A 
ATOM     30  C   UNL     1       0.844  11.010  19.256  0.00  0.00    +0.000 A 
ENDBRANCH  24  25
ENDBRANCH   8  24
TORSDOF 4
ENDMDL
MODEL 8
REMARK VINA RESULT:      -7.3      8.040     10.271
REMARK  Name = 
REMARK  5 active torsions:
REMARK  status: ('A' for Active; 'I' for Inactive)
REMARK    1  A    between atoms: C_1  and  C_2
REMARK    2  A    between atoms: C_2  and  N_3
REMARK    3  A    between atoms: C_10  and  C_12
REMARK    4  A    between atoms: C_12  and  C_13
REMARK    5  A    between atoms: C_21  and  C_22
REMARK                            x       y       z     vdW  Elec       q    Type
REMARK                         _______ _______ _______ _____ _____    ______ ____
ROOT
ATOM      1  N   UNL     1       2.345  17.296  19.520  0.00  0.00    +0.000 N 
ATOM      2  C   UNL     1       2.460  16.503  20.630  0.00  0.00    +0.000 A 
ATOM      3  C   UNL     1       3.695  15.946  20.510  0.00  0.00    +0.000 A 
ATOM      4  C   UNL     1       4.266  16.444  19.333  0.00  0.00    +0.000 A 
ATOM      5  N   UNL     1       5.574  16.126  18.900  0.00  0.00    +0.000 NA
ATOM      6  C   UNL     1       6.251  15.339  19.696  0.00  0.00    +0.000 A 
ATOM      7  N   UNL     1       7.560  14.920  19.502  0.00  0.00    +0.000 N 
ATOM      8  C   UNL     1       8.465  15.481  18.612  0.00  0.00    +0.000 C 
ATOM      9  O   UNL     1       8.258  16.499  17.954  0.00  0.00    +0.000 OA
ATOM     10  N   UNL     1       5.734  14.791  20.892  0.00  0.00    +0.000 N 
ATOM     11  N   UNL     1       6.395  14.008  21.784  0.00  0.00    +0.000 NA
ATOM     12  C   UNL     1       5.433  13.829  22.717  0.00  0.00    +0.000 A 
ATOM     13  N   UNL     1       4.222  14.437  22.450  0.00  0.00    +0.000 NA
ATOM     14  C   UNL     1       4.472  15.050  21.328  0.00  0.00    +0.000 A 
ATOM     15  N   UNL     1       3.436  17.272  18.702  0.00  0.00    +0.000 NA
ATOM     16  H   UNL     1       7.922  14.242  20.171  0.00  0.00    +0.000 HD
ENDROOT
BRANCH  12  17
ATOM     17  C   UNL     1       5.609  13.045  23.977  0.00  0.00    +0.000 A 
ATOM     18  C   UNL     1       6.236  11.813  24.055  0.00  0.00    +0.000 A 
ATOM     19  C   UNL     1       6.203  11.420  25.412  0.00  0.00    +0.000 A 
ATOM     20  C   UNL     1       5.526  12.415  26.074  0.00  0.00    +0.000 A 
ATOM     21  O   UNL     1       5.181  13.414  25.221  0.00  0.00    +0.000 OA
ENDBRANCH  12  17
BRANCH   1  23
ATOM     22  C   UNL     1       0.877  18.089  17.700  0.00  0.00    +0.000 C 
ATOM     23  C   UNL     1       1.192  18.117  19.184  0.00  0.00    +0.000 C 
ENDBRANCH   1  23
BRANCH   8  24
ATOM     24  C   UNL     1       9.809  14.773  18.542  0.00  0.00    +0.000 C 
BRANCH  24  25
ATOM     25  C   UNL     1       9.723  13.295  18.838  0.00  0.00    +0.000 A 
ATOM     26  C   UNL     1      10.160  12.788  20.070  0.00  0.00    +0.000 A 
ATOM     27  C   UNL     1      10.119  11.417  20.329  0.00  0.00    +0.000 A 
ATOM     28  C   UNL     1       9.631  10.536  19.366  0.00  0.00    +0.000 A 
ATOM     29  C   UNL     1       9.152  11.030  18.154  0.00  0.00    +0.000 A 
ATOM     30  C   UNL     1       9.188  12.403  17.895  0.00  0.00    +0.000 A 
ENDBRANCH  24  25
ENDBRANCH   8  24
TORSDOF 4
ENDMDL
MODEL 9
REMARK VINA RESULT:      -7.2      7.510     11.858
REMARK  Name = 
REMARK  5 active torsions:
REMARK  status: ('A' for Active; 'I' for Inactive)
REMARK    1  A    between atoms: C_1  and  C_2
REMARK    2  A    between atoms: C_2  and  N_3
REMARK    3  A    between atoms: C_10  and  C_12
REMARK    4  A    between atoms: C_12  and  C_13
REMARK    5  A    between atoms: C_21  and  C_22
REMARK                            x       y       z     vdW  Elec       q    Type
REMARK                         _______ _______ _______ _____ _____    ______ ____
ROOT
ATOM      1  N   UNL     1      -2.646  12.560  23.510  0.00  0.00    +0.000 N 
ATOM      2  C   UNL     1      -1.914  13.450  22.770  0.00  0.00    +0.000 A 
ATOM      3  C   UNL     1      -0.959  12.682  22.183  0.00  0.00    +0.000 A 
ATOM      4  C   UNL     1      -1.172  11.362  22.594  0.00  0.00    +0.000 A 
ATOM      5  N   UNL     1      -0.400  10.265  22.144  0.00  0.00    +0.000 NA
ATOM      6  C   UNL     1       0.536  10.558  21.278  0.00  0.00    +0.000 A 
ATOM      7  N   UNL     1       1.392   9.649  20.671  0.00  0.00    +0.000 N 
ATOM      8  C   UNL     1       1.221   8.273  20.643  0.00  0.00    +0.000 C 
ATOM      9  O   UNL     1       0.226   7.683  21.059  0.00  0.00    +0.000 OA
ATOM     10  N   UNL     1       0.815  11.869  20.829  0.00  0.00    +0.000 N 
ATOM     11  N   UNL     1       1.736  12.235  19.901  0.00  0.00    +0.000 NA
ATOM     12  C   UNL     1       1.527  13.570  19.857  0.00  0.00    +0.000 A 
ATOM     13  N   UNL     1       0.549  14.049  20.708  0.00  0.00    +0.000 NA
ATOM     14  C   UNL     1       0.114  12.952  21.259  0.00  0.00    +0.000 A 
ATOM     15  N   UNL     1      -2.207  11.273  23.427  0.00  0.00    +0.000 NA
ATOM     16  H   UNL     1       2.121  10.042  20.078  0.00  0.00    +0.000 HD
ENDROOT
BRANCH  12  17
ATOM     17  C   UNL     1       2.265  14.515  18.966  0.00  0.00    +0.000 A 
ATOM     18  C   UNL     1       3.471  14.233  18.347  0.00  0.00    +0.000 A 
ATOM     19  C   UNL     1       3.823  15.374  17.592  0.00  0.00    +0.000 A 
ATOM     20  C   UNL     1       2.832  16.297  17.823  0.00  0.00    +0.000 A 
ATOM     21  O   UNL     1       1.873  15.782  18.635  0.00  0.00    +0.000 OA
ENDBRANCH  12  17
BRANCH   1  23
ATOM     22  C   UNL     1      -4.553  14.101  23.807  0.00  0.00    +0.000 C 
ATOM     23  C   UNL     1      -3.800  12.892  24.331  0.00  0.00    +0.000 C 
ENDBRANCH   1  23
BRANCH   8  24
ATOM     24  C   UNL     1       2.355   7.506  19.978  0.00  0.00    +0.000 C 
BRANCH  24  25
ATOM     25  C   UNL     1       2.000   6.074  19.656  0.00  0.00    +0.000 A 
ATOM     26  C   UNL     1       1.699   5.166  20.681  0.00  0.00    +0.000 A 
ATOM     27  C   UNL     1       1.412   3.832  20.387  0.00  0.00    +0.000 A 
ATOM     28  C   UNL     1       1.409   3.391  19.065  0.00  0.00    +0.000 A 
ATOM     29  C   UNL     1       1.662   4.292  18.033  0.00  0.00    +0.000 A 
ATOM     30  C   UNL     1       1.946   5.629  18.326  0.00  0.00    +0.000 A 
ENDBRANCH  24  25
ENDBRANCH   8  24
TORSDOF 4
ENDMDL
