MODEL 1
REMARK VINA RESULT:      -8.5      0.000      0.000
REMARK  Name = 
REMARK  5 active torsions:
REMARK  status: ('A' for Active; 'I' for Inactive)
REMARK    1  A    between atoms: C_1  and  C_2
REMARK    2  A    between atoms: C_5  and  C_6
REMARK    3  A    between atoms: C_6  and  N_7
REMARK    4  A    between atoms: C_10  and  C_11
REMARK    5  A    between atoms: C_17  and  C_18
REMARK                            x       y       z     vdW  Elec       q    Type
REMARK                         _______ _______ _______ _____ _____    ______ ____
ROOT
ATOM      1  N   UNL     1       3.423   2.827  19.148  0.00  0.00    +0.000 N 
ATOM      2  C   UNL     1       2.155   2.768  19.662  0.00  0.00    +0.000 A 
ATOM      3  N   UNL     1       1.626   3.954  19.784  0.00  0.00    +0.000 NA
ATOM      4  C   UNL     1       2.581   4.830  19.323  0.00  0.00    +0.000 A 
ATOM      5  C   UNL     1       3.763   4.168  18.971  0.00  0.00    +0.000 A 
ENDROOT
BRANCH   5   6
ATOM      6  C   UNL     1       5.099   4.645  18.517  0.00  0.00    +0.000 A 
ATOM      7  C   UNL     1       5.994   5.118  19.497  0.00  0.00    +0.000 A 
ATOM      8  C   UNL     1       7.235   5.656  19.167  0.00  0.00    +0.000 A 
ATOM      9  C   UNL     1       7.658   5.644  17.848  0.00  0.00    +0.000 A 
ATOM     10  C   UNL     1       6.846   5.088  16.852  0.00  0.00    +0.000 A 
ATOM     11  C   UNL     1       7.321   4.976  15.542  0.00  0.00    +0.000 A 
ATOM     12  N   UNL     1       6.638   4.429  14.516  0.00  0.00    +0.000 NA
ATOM     13  C   UNL     1       5.390   4.018  14.796  0.00  0.00    +0.000 A 
ATOM     14  C   UNL     1       4.800   4.138  16.048  0.00  0.00    +0.000 A 
ATOM     15  C   UNL     1       5.542   4.619  17.151  0.00  0.00    +0.000 A 
ENDBRANCH   5   6
BRANCH   4  16
ATOM     16  C   UNL     1       2.316   6.264  19.327  0.00  0.00    +0.000 A 
ATOM     17  C   UNL     1       2.459   6.982  18.128  0.00  0.00    +0.000 A 
ATOM     18  C   UNL     1       2.093   8.328  18.053  0.00  0.00    +0.000 A 
ATOM     19  C   UNL     1       1.592   8.970  19.182  0.00  0.00    +0.000 A 
ATOM     20  C   UNL     1       1.486   8.279  20.390  0.00  0.00    +0.000 A 
ATOM     21  C   UNL     1       1.862   6.935  20.467  0.00  0.00    +0.000 A 
ENDBRANCH   4  16
BRANCH   1  22
ATOM     22  C   UNL     1       4.203   1.623  18.895  0.00  0.00    +0.000 C 
BRANCH  22  27
ATOM     23  C   UNL     1       6.746  -1.394  21.718  0.00  0.00    +0.000 C 
ATOM     24  C   UNL     1       6.021  -0.161  21.365  0.00  0.00    +0.000 A 
ATOM     25  N   UNL     1       5.882   0.961  22.037  0.00  0.00    +0.000 NA
ATOM     26  N   UNL     1       5.147   1.810  21.235  0.00  0.00    +0.000 NA
ATOM     27  C   UNL     1       4.896   1.151  20.122  0.00  0.00    +0.000 A 
ATOM     28  O   UNL     1       5.402  -0.125  20.144  0.00  0.00    +0.000 OA
ENDBRANCH  22  27
ENDBRANCH   1  22
TORSDOF 4
ENDMDL
MODEL 2
REMARK VINA RESULT:      -7.9      2.931      5.861
REMARK  Name = 
REMARK  5 active torsions:
REMARK  status: ('A' for Active; 'I' for Inactive)
REMARK    1  A    between atoms: C_1  and  C_2
REMARK    2  A    between atoms: C_5  and  C_6
REMARK    3  A    between atoms: C_6  and  N_7
REMARK    4  A    between atoms: C_10  and  C_11
REMARK    5  A    between atoms: C_17  and  C_18
REMARK                            x       y       z     vdW  Elec       q    Type
REMARK                         _______ _______ _______ _____ _____    ______ ____
ROOT
ATOM      1  N   UNL     1       4.807   5.690  17.508  0.00  0.00    +0.000 N 
ATOM      2  C   UNL     1       5.330   6.932  17.258  0.00  0.00    +0.000 A 
ATOM      3  N   UNL     1       4.507   7.882  17.604  0.00  0.00    +0.000 NA
ATOM      4  C   UNL     1       3.399   7.242  18.110  0.00  0.00    +0.000 A 
ATOM      5  C   UNL     1       3.515   5.851  18.009  0.00  0.00    +0.000 A 
ENDROOT
BRANCH   5   6
ATOM      6  C   UNL     1       2.585   4.728  18.315  0.00  0.00    +0.000 A 
ATOM      7  C   UNL     1       1.955   4.085  17.231  0.00  0.00    +0.000 A 
ATOM      8  C   UNL     1       1.012   3.078  17.416  0.00  0.00    +0.000 A 
ATOM      9  C   UNL     1       0.745   2.616  18.694  0.00  0.00    +0.000 A 
ATOM     10  C   UNL     1       1.424   3.152  19.795  0.00  0.00    +0.000 A 
ATOM     11  C   UNL     1       1.236   2.608  21.068  0.00  0.00    +0.000 A 
ATOM     12  N   UNL     1       1.863   3.024  22.188  0.00  0.00    +0.000 NA
ATOM     13  C   UNL     1       2.683   4.078  22.042  0.00  0.00    +0.000 A 
ATOM     14  C   UNL     1       2.896   4.731  20.835  0.00  0.00    +0.000 A 
ATOM     15  C   UNL     1       2.320   4.240  19.640  0.00  0.00    +0.000 A 
ENDBRANCH   5   6
BRANCH   4  16
ATOM     16  C   UNL     1       2.263   8.022  18.588  0.00  0.00    +0.000 A 
ATOM     17  C   UNL     1       1.917   7.949  19.948  0.00  0.00    +0.000 A 
ATOM     18  C   UNL     1       0.921   8.774  20.476  0.00  0.00    +0.000 A 
ATOM     19  C   UNL     1       0.255   9.669  19.645  0.00  0.00    +0.000 A 
ATOM     20  C   UNL     1       0.560   9.720  18.284  0.00  0.00    +0.000 A 
ATOM     21  C   UNL     1       1.549   8.888  17.753  0.00  0.00    +0.000 A 
ENDBRANCH   4  16
BRANCH   1  22
ATOM     22  C   UNL     1       5.558   4.474  17.231  0.00  0.00    +0.000 C 
BRANCH  22  27
ATOM     23  C   UNL     1       6.332   3.634  12.516  0.00  0.00    +0.000 C 
ATOM     24  C   UNL     1       6.601   4.195  13.851  0.00  0.00    +0.000 A 
ATOM     25  N   UNL     1       7.520   5.052  14.240  0.00  0.00    +0.000 NA
ATOM     26  N   UNL     1       7.303   5.277  15.584  0.00  0.00    +0.000 NA
ATOM     27  C   UNL     1       6.258   4.548  15.923  0.00  0.00    +0.000 A 
ATOM     28  O   UNL     1       5.773   3.810  14.871  0.00  0.00    +0.000 OA
ENDBRANCH  22  27
ENDBRANCH   1  22
TORSDOF 4
ENDMDL
MODEL 3
REMARK VINA RESULT:      -7.4      1.065      2.253
REMARK  Name = 
REMARK  5 active torsions:
REMARK  status: ('A' for Active; 'I' for Inactive)
REMARK    1  A    between atoms: C_1  and  C_2
REMARK    2  A    between atoms: C_5  and  C_6
REMARK    3  A    between atoms: C_6  and  N_7
REMARK    4  A    between atoms: C_10  and  C_11
REMARK    5  A    between atoms: C_17  and  C_18
REMARK                            x       y       z     vdW  Elec       q    Type
REMARK                         _______ _______ _______ _____ _____    ______ ____
ROOT
ATOM      1  N   UNL     1       3.456   2.590  19.632  0.00  0.00    +0.000 N 
ATOM      2  C   UNL     1       2.537   2.654  20.646  0.00  0.00    +0.000 A 
ATOM      3  N   UNL     1       1.989   3.835  20.730  0.00  0.00    +0.000 NA
ATOM      4  C   UNL     1       2.563   4.577  19.724  0.00  0.00    +0.000 A 
ATOM      5  C   UNL     1       3.548   3.852  19.043  0.00  0.00    +0.000 A 
ENDROOT
BRANCH   5   6
ATOM      6  C   UNL     1       4.509   4.209  17.963  0.00  0.00    +0.000 A 
ATOM      7  C   UNL     1       4.147   3.901  16.636  0.00  0.00    +0.000 A 
ATOM      8  C   UNL     1       5.008   4.124  15.565  0.00  0.00    +0.000 A 
ATOM      9  C   UNL     1       6.222   4.754  15.781  0.00  0.00    +0.000 A 
ATOM     10  C   UNL     1       6.581   5.173  17.068  0.00  0.00    +0.000 A 
ATOM     11  C   UNL     1       7.753   5.907  17.266  0.00  0.00    +0.000 A 
ATOM     12  N   UNL     1       8.175   6.387  18.455  0.00  0.00    +0.000 NA
ATOM     13  C   UNL     1       7.414   6.072  19.516  0.00  0.00    +0.000 A 
ATOM     14  C   UNL     1       6.263   5.298  19.440  0.00  0.00    +0.000 A 
ATOM     15  C   UNL     1       5.761   4.875  18.187  0.00  0.00    +0.000 A 
ENDBRANCH   5   6
BRANCH   4  16
ATOM     16  C   UNL     1       2.177   5.971  19.538  0.00  0.00    +0.000 A 
ATOM     17  C   UNL     1       1.784   6.720  20.661  0.00  0.00    +0.000 A 
ATOM     18  C   UNL     1       1.531   8.088  20.553  0.00  0.00    +0.000 A 
ATOM     19  C   UNL     1       1.657   8.718  19.319  0.00  0.00    +0.000 A 
ATOM     20  C   UNL     1       2.005   7.977  18.188  0.00  0.00    +0.000 A 
ATOM     21  C   UNL     1       2.249   6.606  18.294  0.00  0.00    +0.000 A 
ENDBRANCH   4  16
BRANCH   1  22
ATOM     22  C   UNL     1       4.176   1.362  19.328  0.00  0.00    +0.000 C 
BRANCH  22  27
ATOM     23  C   UNL     1       7.089  -1.565  21.875  0.00  0.00    +0.000 C 
ATOM     24  C   UNL     1       6.302  -0.352  21.593  0.00  0.00    +0.000 A 
ATOM     25  N   UNL     1       6.219   0.777  22.263  0.00  0.00    +0.000 NA
ATOM     26  N   UNL     1       5.380   1.600  21.541  0.00  0.00    +0.000 NA
ATOM     27  C   UNL     1       5.015   0.921  20.472  0.00  0.00    +0.000 A 
ATOM     28  O   UNL     1       5.547  -0.345  20.452  0.00  0.00    +0.000 OA
ENDBRANCH  22  27
ENDBRANCH   1  22
TORSDOF 4
ENDMDL
MODEL 4
REMARK VINA RESULT:      -7.3      2.741      5.572
REMARK  Name = 
REMARK  5 active torsions:
REMARK  status: ('A' for Active; 'I' for Inactive)
REMARK    1  A    between atoms: C_1  and  C_2
REMARK    2  A    between atoms: C_5  and  C_6
REMARK    3  A    between atoms: C_6  and  N_7
REMARK    4  A    between atoms: C_10  and  C_11
REMARK    5  A    between atoms: C_17  and  C_18
REMARK                            x       y       z     vdW  Elec       q    Type
REMARK                         _______ _______ _______ _____ _____    ______ ____
ROOT
ATOM      1  N   UNL     1       5.508   5.536  16.690  0.00  0.00    +0.000 N 
ATOM      2  C   UNL     1       5.494   6.727  16.013  0.00  0.00    +0.000 A 
ATOM      3  N   UNL     1       4.595   7.544  16.489  0.00  0.00    +0.000 NA
ATOM      4  C   UNL     1       3.998   6.867  17.527  0.00  0.00    +0.000 A 
ATOM      5  C   UNL     1       4.497   5.565  17.651  0.00  0.00    +0.000 A 
ENDROOT
BRANCH   5   6
ATOM      6  C   UNL     1       4.136   4.417  18.528  0.00  0.00    +0.000 A 
ATOM      7  C   UNL     1       5.090   3.988  19.472  0.00  0.00    +0.000 A 
ATOM      8  C   UNL     1       4.879   2.876  20.283  0.00  0.00    +0.000 A 
ATOM      9  C   UNL     1       3.660   2.220  20.242  0.00  0.00    +0.000 A 
ATOM     10  C   UNL     1       2.642   2.673  19.394  0.00  0.00    +0.000 A 
ATOM     11  C   UNL     1       1.378   2.080  19.436  0.00  0.00    +0.000 A 
ATOM     12  N   UNL     1       0.320   2.459  18.689  0.00  0.00    +0.000 NA
ATOM     13  C   UNL     1       0.548   3.451  17.813  0.00  0.00    +0.000 A 
ATOM     14  C   UNL     1       1.780   4.069  17.649  0.00  0.00    +0.000 A 
ATOM     15  C   UNL     1       2.867   3.746  18.494  0.00  0.00    +0.000 A 
ENDBRANCH   5   6
BRANCH   4  16
ATOM     16  C   UNL     1       2.924   7.499  18.285  0.00  0.00    +0.000 A 
ATOM     17  C   UNL     1       2.662   7.049  19.590  0.00  0.00    +0.000 A 
ATOM     18  C   UNL     1       1.732   7.707  20.398  0.00  0.00    +0.000 A 
ATOM     19  C   UNL     1       1.047   8.812  19.903  0.00  0.00    +0.000 A 
ATOM     20  C   UNL     1       1.267   9.242  18.593  0.00  0.00    +0.000 A 
ATOM     21  C   UNL     1       2.190   8.577  17.781  0.00  0.00    +0.000 A 
ENDBRANCH   4  16
BRANCH   1  22
ATOM     22  C   UNL     1       6.450   4.477  16.356  0.00  0.00    +0.000 C 
BRANCH  22  27
ATOM     23  C   UNL     1       5.657   3.029  11.794  0.00  0.00    +0.000 C 
ATOM     24  C   UNL     1       6.325   3.763  12.883  0.00  0.00    +0.000 A 
ATOM     25  N   UNL     1       7.276   4.670  12.833  0.00  0.00    +0.000 NA
ATOM     26  N   UNL     1       7.506   5.069  14.134  0.00  0.00    +0.000 NA
ATOM     27  C   UNL     1       6.672   4.384  14.890  0.00  0.00    +0.000 A 
ATOM     28  O   UNL     1       5.903   3.510  14.161  0.00  0.00    +0.000 OA
ENDBRANCH  22  27
ENDBRANCH   1  22
TORSDOF 4
ENDMDL
MODEL 5
REMARK VINA RESULT:      -7.2      2.765      5.636
REMARK  Name = 
REMARK  5 active torsions:
REMARK  status: ('A' for Active; 'I' for Inactive)
REMARK    1  A    between atoms: C_1  and  C_2
REMARK    2  A    between atoms: C_5  and  C_6
REMARK    3  A    between atoms: C_6  and  N_7
REMARK    4  A    between atoms: C_10  and  C_11
REMARK    5  A    between atoms: C_17  and  C_18
REMARK                            x       y       z     vdW  Elec       q    Type
REMARK                         _______ _______ _______ _____ _____    ______ ____
ROOT
ATOM      1  N   UNL     1       5.340   5.238  16.277  0.00  0.00    +0.000 N 
ATOM      2  C   UNL     1       5.303   6.397  15.548  0.00  0.00    +0.000 A 
ATOM      3  N   UNL     1       4.537   7.294  16.106  0.00  0.00    +0.000 NA
ATOM      4  C   UNL     1       4.058   6.705  17.253  0.00  0.00    +0.000 A 
ATOM      5  C   UNL     1       4.486   5.378  17.371  0.00  0.00    +0.000 A 
ENDROOT
BRANCH   5   6
ATOM      6  C   UNL     1       4.185   4.296  18.348  0.00  0.00    +0.000 A 
ATOM      7  C   UNL     1       5.214   3.903  19.228  0.00  0.00    +0.000 A 
ATOM      8  C   UNL     1       5.058   2.850  20.125  0.00  0.00    +0.000 A 
ATOM      9  C   UNL     1       3.828   2.222  20.236  0.00  0.00    +0.000 A 
ATOM     10  C   UNL     1       2.746   2.646  19.457  0.00  0.00    +0.000 A 
ATOM     11  C   UNL     1       1.480   2.087  19.651  0.00  0.00    +0.000 A 
ATOM     12  N   UNL     1       0.365   2.444  18.980  0.00  0.00    +0.000 NA
ATOM     13  C   UNL     1       0.530   3.373  18.025  0.00  0.00    +0.000 A 
ATOM     14  C   UNL     1       1.753   3.951  17.710  0.00  0.00    +0.000 A 
ATOM     15  C   UNL     1       2.906   3.655  18.473  0.00  0.00    +0.000 A 
ENDBRANCH   5   6
BRANCH   4  16
ATOM     16  C   UNL     1       3.148   7.442  18.123  0.00  0.00    +0.000 A 
ATOM     17  C   UNL     1       2.497   8.579  17.614  0.00  0.00    +0.000 A 
ATOM     18  C   UNL     1       1.523   9.239  18.365  0.00  0.00    +0.000 A 
ATOM     19  C   UNL     1       1.200   8.775  19.637  0.00  0.00    +0.000 A 
ATOM     20  C   UNL     1       1.870   7.673  20.170  0.00  0.00    +0.000 A 
ATOM     21  C   UNL     1       2.852   7.018  19.423  0.00  0.00    +0.000 A 
ENDBRANCH   4  16
BRANCH   1  22
ATOM     22  C   UNL     1       6.154   4.102  15.866  0.00  0.00    +0.000 C 
BRANCH  22  27
ATOM     23  C   UNL     1       4.361   3.240  11.441  0.00  0.00    +0.000 C 
ATOM     24  C   UNL     1       5.388   3.578  12.442  0.00  0.00    +0.000 A 
ATOM     25  N   UNL     1       6.635   3.964  12.277  0.00  0.00    +0.000 NA
ATOM     26  N   UNL     1       7.143   4.196  13.539  0.00  0.00    +0.000 NA
ATOM     27  C   UNL     1       6.168   3.944  14.389  0.00  0.00    +0.000 A 
ATOM     28  O   UNL     1       5.023   3.520  13.760  0.00  0.00    +0.000 OA
ENDBRANCH  22  27
ENDBRANCH   1  22
TORSDOF 4
ENDMDL
MODEL 6
REMARK VINA RESULT:      -7.2      2.392      5.747
REMARK  Name = 
REMARK  5 active torsions:
REMARK  status: ('A' for Active; 'I' for Inactive)
REMARK    1  A    between atoms: C_1  and  C_2
REMARK    2  A    between atoms: C_5  and  C_6
REMARK    3  A    between atoms: C_6  and  N_7
REMARK    4  A    between atoms: C_10  and  C_11
REMARK    5  A    between atoms: C_17  and  C_18
REMARK                            x       y       z     vdW  Elec       q    Type
REMARK                         _______ _______ _______ _____ _____    ______ ____
ROOT
ATOM      1  N   UNL     1       4.660   5.467  16.745  0.00  0.00    +0.000 N 
ATOM      2  C   UNL     1       5.056   6.695  16.284  0.00  0.00    +0.000 A 
ATOM      3  N   UNL     1       4.343   7.658  16.798  0.00  0.00    +0.000 NA
ATOM      4  C   UNL     1       3.446   7.042  17.639  0.00  0.00    +0.000 A 
ATOM      5  C   UNL     1       3.564   5.648  17.589  0.00  0.00    +0.000 A 
ENDROOT
BRANCH   5   6
ATOM      6  C   UNL     1       2.791   4.539  18.215  0.00  0.00    +0.000 A 
ATOM      7  C   UNL     1       1.478   4.314  17.755  0.00  0.00    +0.000 A 
ATOM      8  C   UNL     1       0.649   3.354  18.328  0.00  0.00    +0.000 A 
ATOM      9  C   UNL     1       1.146   2.520  19.315  0.00  0.00    +0.000 A 
ATOM     10  C   UNL     1       2.478   2.636  19.732  0.00  0.00    +0.000 A 
ATOM     11  C   UNL     1       3.009   1.722  20.646  0.00  0.00    +0.000 A 
ATOM     12  N   UNL     1       4.283   1.722  21.089  0.00  0.00    +0.000 NA
ATOM     13  C   UNL     1       5.060   2.720  20.637  0.00  0.00    +0.000 A 
ATOM     14  C   UNL     1       4.617   3.714  19.773  0.00  0.00    +0.000 A 
ATOM     15  C   UNL     1       3.313   3.666  19.229  0.00  0.00    +0.000 A 
ENDBRANCH   5   6
BRANCH   4  16
ATOM     16  C   UNL     1       2.476   7.840  18.380  0.00  0.00    +0.000 A 
ATOM     17  C   UNL     1       2.207   7.508  19.718  0.00  0.00    +0.000 A 
ATOM     18  C   UNL     1       1.386   8.318  20.504  0.00  0.00    +0.000 A 
ATOM     19  C   UNL     1       0.816   9.462  19.953  0.00  0.00    +0.000 A 
ATOM     20  C   UNL     1       1.040   9.779  18.612  0.00  0.00    +0.000 A 
ATOM     21  C   UNL     1       1.854   8.962  17.823  0.00  0.00    +0.000 A 
ENDBRANCH   4  16
BRANCH   1  22
ATOM     22  C   UNL     1       5.331   4.242  16.333  0.00  0.00    +0.000 C 
BRANCH  22  27
ATOM     23  C   UNL     1       7.060   4.079  11.803  0.00  0.00    +0.000 C 
ATOM     24  C   UNL     1       7.047   4.431  13.234  0.00  0.00    +0.000 A 
ATOM     25  N   UNL     1       7.864   5.196  13.924  0.00  0.00    +0.000 NA
ATOM     26  N   UNL     1       7.374   5.229  15.214  0.00  0.00    +0.000 NA
ATOM     27  C   UNL     1       6.285   4.487  15.221  0.00  0.00    +0.000 A 
ATOM     28  O   UNL     1       6.028   3.924  13.995  0.00  0.00    +0.000 OA
ENDBRANCH  22  27
ENDBRANCH   1  22
TORSDOF 4
ENDMDL
MODEL 7
REMARK VINA RESULT:      -7.0      6.481     10.214
REMARK  Name = 
REMARK  5 active torsions:
REMARK  status: ('A' for Active; 'I' for Inactive)
REMARK    1  A    between atoms: C_1  and  C_2
REMARK    2  A    between atoms: C_5  and  C_6
REMARK    3  A    between atoms: C_6  and  N_7
REMARK    4  A    between atoms: C_10  and  C_11
REMARK    5  A    between atoms: C_17  and  C_18
REMARK                            x       y       z     vdW  Elec       q    Type
REMARK                         _______ _______ _______ _____ _____    ______ ____
ROOT
ATOM      1  N   UNL     1       1.104  13.094  19.592  0.00  0.00    +0.000 N 
ATOM      2  C   UNL     1       0.586  14.061  18.772  0.00  0.00    +0.000 A 
ATOM      3  N   UNL     1      -0.527  13.675  18.212  0.00  0.00    +0.000 NA
ATOM      4  C   UNL     1      -0.757  12.405  18.689  0.00  0.00    +0.000 A 
ATOM      5  C   UNL     1       0.285  11.967  19.515  0.00  0.00    +0.000 A 
ENDROOT
BRANCH   5   6
ATOM      6  C   UNL     1       0.568  10.672  20.194  0.00  0.00    +0.000 A 
ATOM      7  C   UNL     1       0.072  10.496  21.501  0.00  0.00    +0.000 A 
ATOM      8  C   UNL     1       0.349   9.353  22.248  0.00  0.00    +0.000 A 
ATOM      9  C   UNL     1       1.050   8.309  21.669  0.00  0.00    +0.000 A 
ATOM     10  C   UNL     1       1.473   8.396  20.337  0.00  0.00    +0.000 A 
ATOM     11  C   UNL     1       2.080   7.298  19.721  0.00  0.00    +0.000 A 
ATOM     12  N   UNL     1       2.495   7.263  18.438  0.00  0.00    +0.000 NA
ATOM     13  C   UNL     1       2.345   8.402  17.743  0.00  0.00    +0.000 A 
ATOM     14  C   UNL     1       1.809   9.568  18.275  0.00  0.00    +0.000 A 
ATOM     15  C   UNL     1       1.283   9.584  19.587  0.00  0.00    +0.000 A 
ENDBRANCH   5   6
BRANCH   4  16
ATOM     16  C   UNL     1      -1.933  11.665  18.249  0.00  0.00    +0.000 A 
ATOM     17  C   UNL     1      -1.756  10.545  17.418  0.00  0.00    +0.000 A 
ATOM     18  C   UNL     1      -2.837   9.731  17.077  0.00  0.00    +0.000 A 
ATOM     19  C   UNL     1      -4.108  10.036  17.555  0.00  0.00    +0.000 A 
ATOM     20  C   UNL     1      -4.305  11.170  18.346  0.00  0.00    +0.000 A 
ATOM     21  C   UNL     1      -3.224  11.990  18.678  0.00  0.00    +0.000 A 
ENDBRANCH   4  16
BRANCH   1  22
ATOM     22  C   UNL     1       2.329  13.309  20.350  0.00  0.00    +0.000 C 
BRANCH  22  27
ATOM     23  C   UNL     1       3.161  17.649  22.353  0.00  0.00    +0.000 C 
ATOM     24  C   UNL     1       2.531  16.325  22.208  0.00  0.00    +0.000 A 
ATOM     25  N   UNL     1       1.531  15.786  22.872  0.00  0.00    +0.000 NA
ATOM     26  N   UNL     1       1.307  14.548  22.306  0.00  0.00    +0.000 NA
ATOM     27  C   UNL     1       2.181  14.418  21.327  0.00  0.00    +0.000 A 
ATOM     28  O   UNL     1       3.012  15.506  21.222  0.00  0.00    +0.000 OA
ENDBRANCH  22  27
ENDBRANCH   1  22
TORSDOF 4
ENDMDL
MODEL 8
REMARK VINA RESULT:      -6.9      6.468     10.779
REMARK  Name = 
REMARK  5 active torsions:
REMARK  status: ('A' for Active; 'I' for Inactive)
REMARK    1  A    between atoms: C_1  and  C_2
REMARK    2  A    between atoms: C_5  and  C_6
REMARK    3  A    between atoms: C_6  and  N_7
REMARK    4  A    between atoms: C_10  and  C_11
REMARK    5  A    between atoms: C_17  and  C_18
REMARK                            x       y       z     vdW  Elec       q    Type
REMARK                         _______ _______ _______ _____ _____    ______ ____
ROOT
ATOM      1  N   UNL     1      -0.704  11.280  22.446  0.00  0.00    +0.000 N 
ATOM      2  C   UNL     1      -0.734  10.057  23.064  0.00  0.00    +0.000 A 
ATOM      3  N   UNL     1      -0.107   9.149  22.369  0.00  0.00    +0.000 NA
ATOM      4  C   UNL     1       0.363   9.800  21.253  0.00  0.00    +0.000 A 
ATOM      5  C   UNL     1      -0.047  11.138  21.223  0.00  0.00    +0.000 A 
ENDROOT
BRANCH   5   6
ATOM      6  C   UNL     1       0.106  12.227  20.219  0.00  0.00    +0.000 A 
ATOM      7  C   UNL     1      -0.905  12.368  19.247  0.00  0.00    +0.000 A 
ATOM      8  C   UNL     1      -0.816  13.304  18.220  0.00  0.00    +0.000 A 
ATOM      9  C   UNL     1       0.243  14.195  18.194  0.00  0.00    +0.000 A 
ATOM     10  C   UNL     1       1.218  14.162  19.199  0.00  0.00    +0.000 A 
ATOM     11  C   UNL     1       2.223  15.132  19.233  0.00  0.00    +0.000 A 
ATOM     12  N   UNL     1       3.189  15.212  20.172  0.00  0.00    +0.000 NA
ATOM     13  C   UNL     1       3.187  14.240  21.098  0.00  0.00    +0.000 A 
ATOM     14  C   UNL     1       2.271  13.197  21.122  0.00  0.00    +0.000 A 
ATOM     15  C   UNL     1       1.198  13.160  20.202  0.00  0.00    +0.000 A 
ENDBRANCH   5   6
BRANCH   4  16
ATOM     16  C   UNL     1       1.113   9.063  20.242  0.00  0.00    +0.000 A 
ATOM     17  C   UNL     1       1.685   7.828  20.592  0.00  0.00    +0.000 A 
ATOM     18  C   UNL     1       2.300   7.027  19.628  0.00  0.00    +0.000 A 
ATOM     19  C   UNL     1       2.360   7.462  18.307  0.00  0.00    +0.000 A 
ATOM     20  C   UNL     1       1.834   8.706  17.955  0.00  0.00    +0.000 A 
ATOM     21  C   UNL     1       1.228   9.512  18.923  0.00  0.00    +0.000 A 
ENDBRANCH   4  16
BRANCH   1  22
ATOM     22  C   UNL     1      -1.313  12.457  23.049  0.00  0.00    +0.000 C 
BRANCH  22  27
ATOM     23  C   UNL     1      -5.412  12.926  20.496  0.00  0.00    +0.000 C 
ATOM     24  C   UNL     1      -4.583  12.694  21.691  0.00  0.00    +0.000 A 
ATOM     25  N   UNL     1      -4.932  12.331  22.906  0.00  0.00    +0.000 NA
ATOM     26  N   UNL     1      -3.763  12.211  23.631  0.00  0.00    +0.000 NA
ATOM     27  C   UNL     1      -2.778  12.501  22.805  0.00  0.00    +0.000 A 
ATOM     28  O   UNL     1      -3.229  12.844  21.554  0.00  0.00    +0.000 OA
ENDBRANCH  22  27
ENDBRANCH   1  22
TORSDOF 4
ENDMDL
MODEL 9
REMARK VINA RESULT:      -6.9      2.853      5.772
REMARK  Name = 
REMARK  5 active torsions:
REMARK  status: ('A' for Active; 'I' for Inactive)
REMARK    1  A    between atoms: C_1  and  C_2
REMARK    2  A    between atoms: C_5  and  C_6
REMARK    3  A    between atoms: C_6  and  N_7
REMARK    4  A    between atoms: C_10  and  C_11
REMARK    5  A    between atoms: C_17  and  C_18
REMARK                            x       y       z     vdW  Elec       q    Type
REMARK                         _______ _______ _______ _____ _____    ______ ____
ROOT
ATOM      1  N   UNL     1       5.250   5.376  16.500  0.00  0.00    +0.000 N 
ATOM      2  C   UNL     1       5.185   6.551  15.799  0.00  0.00    +0.000 A 
ATOM      3  N   UNL     1       4.349   7.392  16.341  0.00  0.00    +0.000 NA
ATOM      4  C   UNL     1       3.849   6.749  17.450  0.00  0.00    +0.000 A 
ATOM      5  C   UNL     1       4.340   5.443  17.556  0.00  0.00    +0.000 A 
ENDROOT
BRANCH   5   6
ATOM      6  C   UNL     1       4.053   4.321  18.491  0.00  0.00    +0.000 A 
ATOM      7  C   UNL     1       5.078   3.925  19.374  0.00  0.00    +0.000 A 
ATOM      8  C   UNL     1       4.935   2.838  20.233  0.00  0.00    +0.000 A 
ATOM      9  C   UNL     1       3.721   2.176  20.303  0.00  0.00    +0.000 A 
ATOM     10  C   UNL     1       2.640   2.599  19.521  0.00  0.00    +0.000 A 
ATOM     11  C   UNL     1       1.386   2.002  19.675  0.00  0.00    +0.000 A 
ATOM     12  N   UNL     1       0.272   2.353  18.999  0.00  0.00    +0.000 NA
ATOM     13  C   UNL     1       0.428   3.318  18.079  0.00  0.00    +0.000 A 
ATOM     14  C   UNL     1       1.640   3.936  17.803  0.00  0.00    +0.000 A 
ATOM     15  C   UNL     1       2.789   3.644  18.574  0.00  0.00    +0.000 A 
ENDBRANCH   5   6
BRANCH   4  16
ATOM     16  C   UNL     1       2.863   7.415  18.294  0.00  0.00    +0.000 A 
ATOM     17  C   UNL     1       2.650   6.929  19.596  0.00  0.00    +0.000 A 
ATOM     18  C   UNL     1       1.813   7.609  20.483  0.00  0.00    +0.000 A 
ATOM     19  C   UNL     1       1.174   8.775  20.072  0.00  0.00    +0.000 A 
ATOM     20  C   UNL     1       1.344   9.243  18.768  0.00  0.00    +0.000 A 
ATOM     21  C   UNL     1       2.173   8.557  17.877  0.00  0.00    +0.000 A 
ENDBRANCH   4  16
BRANCH   1  22
ATOM     22  C   UNL     1       6.140   4.295  16.100  0.00  0.00    +0.000 C 
BRANCH  22  27
ATOM     23  C   UNL     1       8.726   5.985  12.359  0.00  0.00    +0.000 C 
ATOM     24  C   UNL     1       7.710   5.163  13.039  0.00  0.00    +0.000 A 
ATOM     25  N   UNL     1       6.950   4.198  12.569  0.00  0.00    +0.000 NA
ATOM     26  N   UNL     1       6.208   3.730  13.635  0.00  0.00    +0.000 NA
ATOM     27  C   UNL     1       6.573   4.436  14.686  0.00  0.00    +0.000 A 
ATOM     28  O   UNL     1       7.512   5.389  14.375  0.00  0.00    +0.000 OA
ENDBRANCH  22  27
ENDBRANCH   1  22
TORSDOF 4
ENDMDL
