MODEL 1
REMARK VINA RESULT:      -8.8      0.000      0.000
REMARK  Name = 
REMARK  6 active torsions:
REMARK  status: ('A' for Active; 'I' for Inactive)
REMARK    1  A    between atoms: C_2  and  C_3
REMARK    2  A    between atoms: C_2  and  C_18
REMARK    3  A    between atoms: C_6  and  O_7
REMARK    4  A    between atoms: O_7  and  C_8
REMARK    5  A    between atoms: C_8  and  C_9
REMARK    6  A    between atoms: C_9  and  N_10
REMARK                            x       y       z     vdW  Elec       q    Type
REMARK                         _______ _______ _______ _____ _____    ______ ____
ROOT
ATOM      1  C   UNL     1       5.875   5.251  17.339  0.00  0.00    +0.000 A 
ATOM      2  C   UNL     1       5.874   6.534  16.792  0.00  0.00    +0.000 A 
ATOM      3  C   UNL     1       6.794   7.487  17.228  0.00  0.00    +0.000 A 
ATOM      4  C   UNL     1       7.738   7.176  18.217  0.00  0.00    +0.000 A 
ATOM      5  C   UNL     1       7.764   5.884  18.743  0.00  0.00    +0.000 A 
ATOM      6  C   UNL     1       6.849   4.918  18.295  0.00  0.00    +0.000 A 
ENDROOT
BRANCH   1   8
ATOM      7  O   UNL     1       4.655   4.106  15.682  0.00  0.00    +0.000 OA
ATOM      8  C   UNL     1       4.804   4.307  16.886  0.00  0.00    +0.000 C 
BRANCH   8   9
ATOM      9  C   UNL     1       3.913   3.660  17.889  0.00  0.00    +0.000 A 
ATOM     10  C   UNL     1       3.808   2.258  17.837  0.00  0.00    +0.000 A 
ATOM     11  C   UNL     1       2.861   1.599  18.607  0.00  0.00    +0.000 A 
ATOM     12  C   UNL     1       2.014   2.334  19.430  0.00  0.00    +0.000 A 
ATOM     13  C   UNL     1       2.144   3.727  19.545  0.00  0.00    +0.000 A 
ATOM     14  C   UNL     1       1.274   4.436  20.388  0.00  0.00    +0.000 A 
ATOM     15  C   UNL     1       1.412   5.810  20.574  0.00  0.00    +0.000 A 
ATOM     16  C   UNL     1       2.439   6.490  19.938  0.00  0.00    +0.000 A 
ATOM     17  C   UNL     1       3.287   5.806  19.061  0.00  0.00    +0.000 A 
ATOM     18  C   UNL     1       3.145   4.416  18.815  0.00  0.00    +0.000 A 
ENDBRANCH   8   9
ENDBRANCH   1   8
BRANCH   4  19
ATOM     19  O   UNL     1       8.667   8.055  18.730  0.00  0.00    +0.000 OA
BRANCH  19  20
ATOM     20  C   UNL     1       8.504   9.402  18.264  0.00  0.00    +0.000 C 
BRANCH  20  21
ATOM     21  C   UNL     1       9.358  10.424  19.029  0.00  0.00    +0.000 C 
BRANCH  21  22
ATOM     22  N   UNL     1       9.566  11.658  18.234  0.00  0.00    +0.000 NA
ATOM     23  C   UNL     1       9.077  12.864  18.925  0.00  0.00    +0.000 C 
ATOM     24  C   UNL     1       9.210  14.107  18.047  0.00  0.00    +0.000 C 
ATOM     25  C   UNL     1      10.645  14.307  17.584  0.00  0.00    +0.000 C 
ATOM     26  C   UNL     1      11.178  13.029  16.946  0.00  0.00    +0.000 C 
ATOM     27  C   UNL     1      10.979  11.814  17.860  0.00  0.00    +0.000 C 
ENDBRANCH  21  22
ENDBRANCH  20  21
ENDBRANCH  19  20
ENDBRANCH   4  19
TORSDOF 6
ENDMDL
MODEL 2
REMARK VINA RESULT:      -8.5      0.758      1.413
REMARK  Name = 
REMARK  6 active torsions:
REMARK  status: ('A' for Active; 'I' for Inactive)
REMARK    1  A    between atoms: C_2  and  C_3
REMARK    2  A    between atoms: C_2  and  C_18
REMARK    3  A    between atoms: C_6  and  O_7
REMARK    4  A    between atoms: O_7  and  C_8
REMARK    5  A    between atoms: C_8  and  C_9
REMARK    6  A    between atoms: C_9  and  N_10
REMARK                            x       y       z     vdW  Elec       q    Type
REMARK                         _______ _______ _______ _____ _____    ______ ____
ROOT
ATOM      1  C   UNL     1       5.952   5.712  17.399  0.00  0.00    +0.000 A 
ATOM      2  C   UNL     1       6.775   5.240  18.423  0.00  0.00    +0.000 A 
ATOM      3  C   UNL     1       7.796   6.041  18.932  0.00  0.00    +0.000 A 
ATOM      4  C   UNL     1       8.013   7.334  18.434  0.00  0.00    +0.000 A 
ATOM      5  C   UNL     1       7.172   7.822  17.434  0.00  0.00    +0.000 A 
ATOM      6  C   UNL     1       6.133   7.023  16.929  0.00  0.00    +0.000 A 
ENDROOT
BRANCH   1   8
ATOM      7  O   UNL     1       4.779   4.704  15.624  0.00  0.00    +0.000 OA
ATOM      8  C   UNL     1       4.934   4.766  16.841  0.00  0.00    +0.000 C 
BRANCH   8   9
ATOM      9  C   UNL     1       4.100   3.947  17.765  0.00  0.00    +0.000 A 
ATOM     10  C   UNL     1       4.152   2.551  17.602  0.00  0.00    +0.000 A 
ATOM     11  C   UNL     1       3.268   1.733  18.289  0.00  0.00    +0.000 A 
ATOM     12  C   UNL     1       2.328   2.303  19.142  0.00  0.00    +0.000 A 
ATOM     13  C   UNL     1       2.301   3.688  19.369  0.00  0.00    +0.000 A 
ATOM     14  C   UNL     1       1.340   4.228  20.238  0.00  0.00    +0.000 A 
ATOM     15  C   UNL     1       1.321   5.589  20.534  0.00  0.00    +0.000 A 
ATOM     16  C   UNL     1       2.279   6.426  19.983  0.00  0.00    +0.000 A 
ATOM     17  C   UNL     1       3.216   5.911  19.081  0.00  0.00    +0.000 A 
ATOM     18  C   UNL     1       3.234   4.538  18.724  0.00  0.00    +0.000 A 
ENDBRANCH   8   9
ENDBRANCH   1   8
BRANCH   4  19
ATOM     19  O   UNL     1       9.010   8.188  18.854  0.00  0.00    +0.000 OA
BRANCH  19  20
ATOM     20  C   UNL     1       8.707   9.574  18.646  0.00  0.00    +0.000 C 
BRANCH  20  21
ATOM     21  C   UNL     1       9.232  10.491  19.760  0.00  0.00    +0.000 C 
BRANCH  21  22
ATOM     22  N   UNL     1      10.031  11.610  19.207  0.00  0.00    +0.000 NA
ATOM     23  C   UNL     1      11.472  11.464  19.478  0.00  0.00    +0.000 C 
ATOM     24  C   UNL     1      12.262  12.676  18.988  0.00  0.00    +0.000 C 
ATOM     25  C   UNL     1      12.025  12.929  17.507  0.00  0.00    +0.000 C 
ATOM     26  C   UNL     1      10.530  12.995  17.214  0.00  0.00    +0.000 C 
ATOM     27  C   UNL     1       9.791  11.771  17.765  0.00  0.00    +0.000 C 
ENDBRANCH  21  22
ENDBRANCH  20  21
ENDBRANCH  19  20
ENDBRANCH   4  19
TORSDOF 6
ENDMDL
MODEL 3
REMARK VINA RESULT:      -8.4      4.784      7.737
REMARK  Name = 
REMARK  6 active torsions:
REMARK  status: ('A' for Active; 'I' for Inactive)
REMARK    1  A    between atoms: C_2  and  C_3
REMARK    2  A    between atoms: C_2  and  C_18
REMARK    3  A    between atoms: C_6  and  O_7
REMARK    4  A    between atoms: O_7  and  C_8
REMARK    5  A    between atoms: C_8  and  C_9
REMARK    6  A    between atoms: C_9  and  N_10
REMARK                            x       y       z     vdW  Elec       q    Type
REMARK                         _______ _______ _______ _____ _____    ______ ____
ROOT
ATOM      1  C   UNL     1       1.775   8.731  18.798  0.00  0.00    +0.000 A 
ATOM      2  C   UNL     1       1.573   8.285  20.105  0.00  0.00    +0.000 A 
ATOM      3  C   UNL     1       1.923   6.985  20.468  0.00  0.00    +0.000 A 
ATOM      4  C   UNL     1       2.488   6.104  19.534  0.00  0.00    +0.000 A 
ATOM      5  C   UNL     1       2.723   6.556  18.235  0.00  0.00    +0.000 A 
ATOM      6  C   UNL     1       2.386   7.870  17.871  0.00  0.00    +0.000 A 
ENDROOT
BRANCH   1   8
ATOM      7  O   UNL     1       2.117  10.962  18.128  0.00  0.00    +0.000 OA
ATOM      8  C   UNL     1       1.297  10.109  18.458  0.00  0.00    +0.000 C 
BRANCH   8   9
ATOM      9  C   UNL     1      -0.152  10.435  18.562  0.00  0.00    +0.000 A 
ATOM     10  C   UNL     1      -0.988   9.959  17.535  0.00  0.00    +0.000 A 
ATOM     11  C   UNL     1      -2.309  10.377  17.457  0.00  0.00    +0.000 A 
ATOM     12  C   UNL     1      -2.801  11.272  18.401  0.00  0.00    +0.000 A 
ATOM     13  C   UNL     1      -2.004  11.710  19.470  0.00  0.00    +0.000 A 
ATOM     14  C   UNL     1      -2.535  12.612  20.406  0.00  0.00    +0.000 A 
ATOM     15  C   UNL     1      -1.795  13.021  21.513  0.00  0.00    +0.000 A 
ATOM     16  C   UNL     1      -0.519  12.514  21.711  0.00  0.00    +0.000 A 
ATOM     17  C   UNL     1       0.040  11.650  20.766  0.00  0.00    +0.000 A 
ATOM     18  C   UNL     1      -0.670  11.249  19.605  0.00  0.00    +0.000 A 
ENDBRANCH   8   9
ENDBRANCH   1   8
BRANCH   4  19
ATOM     19  O   UNL     1       2.841   4.797  19.790  0.00  0.00    +0.000 OA
BRANCH  19  20
ATOM     20  C   UNL     1       3.546   4.168  18.711  0.00  0.00    +0.000 C 
BRANCH  20  21
ATOM     21  C   UNL     1       4.910   3.594  19.121  0.00  0.00    +0.000 C 
BRANCH  21  22
ATOM     22  N   UNL     1       6.023   4.338  18.485  0.00  0.00    +0.000 NA
ATOM     23  C   UNL     1       5.683   4.818  17.134  0.00  0.00    +0.000 C 
ATOM     24  C   UNL     1       6.877   5.492  16.461  0.00  0.00    +0.000 C 
ATOM     25  C   UNL     1       7.418   6.634  17.308  0.00  0.00    +0.000 C 
ATOM     26  C   UNL     1       7.689   6.155  18.730  0.00  0.00    +0.000 C 
ATOM     27  C   UNL     1       6.467   5.454  19.334  0.00  0.00    +0.000 C 
ENDBRANCH  21  22
ENDBRANCH  20  21
ENDBRANCH  19  20
ENDBRANCH   4  19
TORSDOF 6
ENDMDL
MODEL 4
REMARK VINA RESULT:      -8.2      0.888      1.671
REMARK  Name = 
REMARK  6 active torsions:
REMARK  status: ('A' for Active; 'I' for Inactive)
REMARK    1  A    between atoms: C_2  and  C_3
REMARK    2  A    between atoms: C_2  and  C_18
REMARK    3  A    between atoms: C_6  and  O_7
REMARK    4  A    between atoms: O_7  and  C_8
REMARK    5  A    between atoms: C_8  and  C_9
REMARK    6  A    between atoms: C_9  and  N_10
REMARK                            x       y       z     vdW  Elec       q    Type
REMARK                         _______ _______ _______ _____ _____    ______ ____
ROOT
ATOM      1  C   UNL     1       5.840   5.479  17.397  0.00  0.00    +0.000 A 
ATOM      2  C   UNL     1       6.711   5.108  18.423  0.00  0.00    +0.000 A 
ATOM      3  C   UNL     1       7.704   5.987  18.857  0.00  0.00    +0.000 A 
ATOM      4  C   UNL     1       7.844   7.256  18.279  0.00  0.00    +0.000 A 
ATOM      5  C   UNL     1       6.954   7.644  17.277  0.00  0.00    +0.000 A 
ATOM      6  C   UNL     1       5.944   6.768  16.849  0.00  0.00    +0.000 A 
ENDROOT
BRANCH   1   8
ATOM      7  O   UNL     1       4.750   4.239  15.719  0.00  0.00    +0.000 OA
ATOM      8  C   UNL     1       4.856   4.454  16.924  0.00  0.00    +0.000 C 
BRANCH   8   9
ATOM      9  C   UNL     1       3.997   3.742  17.911  0.00  0.00    +0.000 A 
ATOM     10  C   UNL     1       3.983   2.337  17.847  0.00  0.00    +0.000 A 
ATOM     11  C   UNL     1       3.070   1.611  18.598  0.00  0.00    +0.000 A 
ATOM     12  C   UNL     1       2.168   2.283  19.416  0.00  0.00    +0.000 A 
ATOM     13  C   UNL     1       2.207   3.680  19.544  0.00  0.00    +0.000 A 
ATOM     14  C   UNL     1       1.282   4.325  20.381  0.00  0.00    +0.000 A 
ATOM     15  C   UNL     1       1.329   5.703  20.580  0.00  0.00    +0.000 A 
ATOM     16  C   UNL     1       2.318   6.453  19.962  0.00  0.00    +0.000 A 
ATOM     17  C   UNL     1       3.219   5.833  19.092  0.00  0.00    +0.000 A 
ATOM     18  C   UNL     1       3.170   4.439  18.833  0.00  0.00    +0.000 A 
ENDBRANCH   8   9
ENDBRANCH   1   8
BRANCH   4  19
ATOM     19  O   UNL     1       8.807   8.181  18.621  0.00  0.00    +0.000 OA
BRANCH  19  20
ATOM     20  C   UNL     1       8.396   9.541  18.426  0.00  0.00    +0.000 C 
BRANCH  20  21
ATOM     21  C   UNL     1       9.511  10.448  17.884  0.00  0.00    +0.000 C 
BRANCH  21  22
ATOM     22  N   UNL     1      10.120  11.259  18.965  0.00  0.00    +0.000 NA
ATOM     23  C   UNL     1      11.479  11.719  18.628  0.00  0.00    +0.000 C 
ATOM     24  C   UNL     1      12.124  12.466  19.794  0.00  0.00    +0.000 C 
ATOM     25  C   UNL     1      11.265  13.638  20.244  0.00  0.00    +0.000 C 
ATOM     26  C   UNL     1       9.836  13.175  20.510  0.00  0.00    +0.000 C 
ATOM     27  C   UNL     1       9.262  12.399  19.319  0.00  0.00    +0.000 C 
ENDBRANCH  21  22
ENDBRANCH  20  21
ENDBRANCH  19  20
ENDBRANCH   4  19
TORSDOF 6
ENDMDL
MODEL 5
REMARK VINA RESULT:      -8.1      5.652      8.321
REMARK  Name = 
REMARK  6 active torsions:
REMARK  status: ('A' for Active; 'I' for Inactive)
REMARK    1  A    between atoms: C_2  and  C_3
REMARK    2  A    between atoms: C_2  and  C_18
REMARK    3  A    between atoms: C_6  and  O_7
REMARK    4  A    between atoms: O_7  and  C_8
REMARK    5  A    between atoms: C_8  and  C_9
REMARK    6  A    between atoms: C_9  and  N_10
REMARK                            x       y       z     vdW  Elec       q    Type
REMARK                         _______ _______ _______ _____ _____    ______ ____
ROOT
ATOM      1  C   UNL     1       0.680   9.665  18.983  0.00  0.00    +0.000 A 
ATOM      2  C   UNL     1       1.440   9.076  17.971  0.00  0.00    +0.000 A 
ATOM      3  C   UNL     1       2.238   7.966  18.245  0.00  0.00    +0.000 A 
ATOM      4  C   UNL     1       2.288   7.416  19.534  0.00  0.00    +0.000 A 
ATOM      5  C   UNL     1       1.504   7.980  20.540  0.00  0.00    +0.000 A 
ATOM      6  C   UNL     1       0.688   9.089  20.264  0.00  0.00    +0.000 A 
ENDROOT
BRANCH   1   8
ATOM      7  O   UNL     1       0.494  11.990  18.661  0.00  0.00    +0.000 OA
ATOM      8  C   UNL     1      -0.085  10.906  18.638  0.00  0.00    +0.000 C 
BRANCH   8   9
ATOM      9  C   UNL     1      -1.535  10.815  18.312  0.00  0.00    +0.000 A 
ATOM     10  C   UNL     1      -1.889  10.041  17.192  0.00  0.00    +0.000 A 
ATOM     11  C   UNL     1      -3.191  10.060  16.712  0.00  0.00    +0.000 A 
ATOM     12  C   UNL     1      -4.144  10.851  17.346  0.00  0.00    +0.000 A 
ATOM     13  C   UNL     1      -3.827  11.580  18.503  0.00  0.00    +0.000 A 
ATOM     14  C   UNL     1      -4.815  12.365  19.118  0.00  0.00    +0.000 A 
ATOM     15  C   UNL     1      -4.555  13.054  20.300  0.00  0.00    +0.000 A 
ATOM     16  C   UNL     1      -3.308  12.947  20.897  0.00  0.00    +0.000 A 
ATOM     17  C   UNL     1      -2.301  12.205  20.275  0.00  0.00    +0.000 A 
ATOM     18  C   UNL     1      -2.520  11.528  19.047  0.00  0.00    +0.000 A 
ENDBRANCH   8   9
ENDBRANCH   1   8
BRANCH   4  19
ATOM     19  O   UNL     1       3.064   6.339  19.906  0.00  0.00    +0.000 OA
BRANCH  19  20
ATOM     20  C   UNL     1       3.048   5.262  18.959  0.00  0.00    +0.000 C 
BRANCH  20  21
ATOM     21  C   UNL     1       4.227   4.290  19.113  0.00  0.00    +0.000 C 
BRANCH  21  22
ATOM     22  N   UNL     1       5.437   4.793  18.423  0.00  0.00    +0.000 NA
ATOM     23  C   UNL     1       5.115   5.697  17.305  0.00  0.00    +0.000 C 
ATOM     24  C   UNL     1       6.372   6.123  16.547  0.00  0.00    +0.000 C 
ATOM     25  C   UNL     1       7.386   6.771  17.476  0.00  0.00    +0.000 C 
ATOM     26  C   UNL     1       7.653   5.871  18.678  0.00  0.00    +0.000 C 
ATOM     27  C   UNL     1       6.353   5.449  19.369  0.00  0.00    +0.000 C 
ENDBRANCH  21  22
ENDBRANCH  20  21
ENDBRANCH  19  20
ENDBRANCH   4  19
TORSDOF 6
ENDMDL
MODEL 6
REMARK VINA RESULT:      -8.1      5.642      8.630
REMARK  Name = 
REMARK  6 active torsions:
REMARK  status: ('A' for Active; 'I' for Inactive)
REMARK    1  A    between atoms: C_2  and  C_3
REMARK    2  A    between atoms: C_2  and  C_18
REMARK    3  A    between atoms: C_6  and  O_7
REMARK    4  A    between atoms: O_7  and  C_8
REMARK    5  A    between atoms: C_8  and  C_9
REMARK    6  A    between atoms: C_9  and  N_10
REMARK                            x       y       z     vdW  Elec       q    Type
REMARK                         _______ _______ _______ _____ _____    ______ ____
ROOT
ATOM      1  C   UNL     1       0.845   9.747  18.852  0.00  0.00    +0.000 A 
ATOM      2  C   UNL     1       0.731   9.270  20.158  0.00  0.00    +0.000 A 
ATOM      3  C   UNL     1       1.398   8.109  20.546  0.00  0.00    +0.000 A 
ATOM      4  C   UNL     1       2.199   7.402  19.638  0.00  0.00    +0.000 A 
ATOM      5  C   UNL     1       2.343   7.893  18.340  0.00  0.00    +0.000 A 
ATOM      6  C   UNL     1       1.685   9.071  17.951  0.00  0.00    +0.000 A 
ENDROOT
BRANCH   1   8
ATOM      7  O   UNL     1       0.575  12.052  18.456  0.00  0.00    +0.000 OA
ATOM      8  C   UNL     1       0.033  10.950  18.483  0.00  0.00    +0.000 C 
BRANCH   8   9
ATOM      9  C   UNL     1      -1.421  10.801  18.194  0.00  0.00    +0.000 A 
ATOM     10  C   UNL     1      -1.772  10.009  17.086  0.00  0.00    +0.000 A 
ATOM     11  C   UNL     1      -3.085   9.975  16.638  0.00  0.00    +0.000 A 
ATOM     12  C   UNL     1      -4.052  10.730  17.293  0.00  0.00    +0.000 A 
ATOM     13  C   UNL     1      -3.736  11.477  18.439  0.00  0.00    +0.000 A 
ATOM     14  C   UNL     1      -4.738  12.226  19.076  0.00  0.00    +0.000 A 
ATOM     15  C   UNL     1      -4.476  12.930  20.249  0.00  0.00    +0.000 A 
ATOM     16  C   UNL     1      -3.211  12.874  20.815  0.00  0.00    +0.000 A 
ATOM     17  C   UNL     1      -2.191  12.169  20.170  0.00  0.00    +0.000 A 
ATOM     18  C   UNL     1      -2.414  11.479  18.950  0.00  0.00    +0.000 A 
ENDBRANCH   8   9
ENDBRANCH   1   8
BRANCH   4  19
ATOM     19  O   UNL     1       2.874   6.234  19.919  0.00  0.00    +0.000 OA
BRANCH  19  20
ATOM     20  C   UNL     1       2.624   5.183  18.976  0.00  0.00    +0.000 C 
BRANCH  20  21
ATOM     21  C   UNL     1       3.787   4.189  18.842  0.00  0.00    +0.000 C 
BRANCH  21  22
ATOM     22  N   UNL     1       4.775   4.644  17.835  0.00  0.00    +0.000 NA
ATOM     23  C   UNL     1       6.123   4.816  18.403  0.00  0.00    +0.000 C 
ATOM     24  C   UNL     1       7.099   5.381  17.373  0.00  0.00    +0.000 C 
ATOM     25  C   UNL     1       7.157   4.509  16.128  0.00  0.00    +0.000 C 
ATOM     26  C   UNL     1       5.752   4.262  15.591  0.00  0.00    +0.000 C 
ATOM     27  C   UNL     1       4.813   3.734  16.681  0.00  0.00    +0.000 C 
ENDBRANCH  21  22
ENDBRANCH  20  21
ENDBRANCH  19  20
ENDBRANCH   4  19
TORSDOF 6
ENDMDL
MODEL 7
REMARK VINA RESULT:      -8.1      4.916      8.353
REMARK  Name = 
REMARK  6 active torsions:
REMARK  status: ('A' for Active; 'I' for Inactive)
REMARK    1  A    between atoms: C_2  and  C_3
REMARK    2  A    between atoms: C_2  and  C_18
REMARK    3  A    between atoms: C_6  and  O_7
REMARK    4  A    between atoms: O_7  and  C_8
REMARK    5  A    between atoms: C_8  and  C_9
REMARK    6  A    between atoms: C_9  and  N_10
REMARK                            x       y       z     vdW  Elec       q    Type
REMARK                         _______ _______ _______ _____ _____    ______ ____
ROOT
ATOM      1  C   UNL     1       2.821   6.468  18.918  0.00  0.00    +0.000 A 
ATOM      2  C   UNL     1       2.872   7.497  17.976  0.00  0.00    +0.000 A 
ATOM      3  C   UNL     1       2.228   8.709  18.220  0.00  0.00    +0.000 A 
ATOM      4  C   UNL     1       1.524   8.923  19.413  0.00  0.00    +0.000 A 
ATOM      5  C   UNL     1       1.498   7.910  20.373  0.00  0.00    +0.000 A 
ATOM      6  C   UNL     1       2.158   6.694  20.137  0.00  0.00    +0.000 A 
ENDROOT
BRANCH   1   8
ATOM      7  O   UNL     1       2.765   4.154  18.490  0.00  0.00    +0.000 OA
ATOM      8  C   UNL     1       3.461   5.165  18.553  0.00  0.00    +0.000 C 
BRANCH   8   9
ATOM      9  C   UNL     1       4.929   5.103  18.311  0.00  0.00    +0.000 A 
ATOM     10  C   UNL     1       5.767   5.395  19.402  0.00  0.00    +0.000 A 
ATOM     11  C   UNL     1       7.134   5.545  19.215  0.00  0.00    +0.000 A 
ATOM     12  C   UNL     1       7.670   5.405  17.938  0.00  0.00    +0.000 A 
ATOM     13  C   UNL     1       6.861   5.051  16.847  0.00  0.00    +0.000 A 
ATOM     14  C   UNL     1       7.437   4.916  15.574  0.00  0.00    +0.000 A 
ATOM     15  C   UNL     1       6.677   4.507  14.480  0.00  0.00    +0.000 A 
ATOM     16  C   UNL     1       5.335   4.204  14.650  0.00  0.00    +0.000 A 
ATOM     17  C   UNL     1       4.737   4.375  15.902  0.00  0.00    +0.000 A 
ATOM     18  C   UNL     1       5.472   4.833  17.026  0.00  0.00    +0.000 A 
ENDBRANCH   8   9
ENDBRANCH   1   8
BRANCH   4  19
ATOM     19  O   UNL     1       0.836  10.073  19.732  0.00  0.00    +0.000 OA
BRANCH  19  20
ATOM     20  C   UNL     1       0.243  10.722  18.598  0.00  0.00    +0.000 C 
BRANCH  20  21
ATOM     21  C   UNL     1      -0.779   9.849  17.855  0.00  0.00    +0.000 C 
BRANCH  21  22
ATOM     22  N   UNL     1      -1.917  10.655  17.354  0.00  0.00    +0.000 NA
ATOM     23  C   UNL     1      -2.583  10.034  16.196  0.00  0.00    +0.000 C 
ATOM     24  C   UNL     1      -3.686  10.930  15.635  0.00  0.00    +0.000 C 
ATOM     25  C   UNL     1      -4.707  11.285  16.705  0.00  0.00    +0.000 C 
ATOM     26  C   UNL     1      -4.008  11.849  17.937  0.00  0.00    +0.000 C 
ATOM     27  C   UNL     1      -2.888  10.923  18.425  0.00  0.00    +0.000 C 
ENDBRANCH  21  22
ENDBRANCH  20  21
ENDBRANCH  19  20
ENDBRANCH   4  19
TORSDOF 6
ENDMDL
MODEL 8
REMARK VINA RESULT:      -8.0      4.980      8.375
REMARK  Name = 
REMARK  6 active torsions:
REMARK  status: ('A' for Active; 'I' for Inactive)
REMARK    1  A    between atoms: C_2  and  C_3
REMARK    2  A    between atoms: C_2  and  C_18
REMARK    3  A    between atoms: C_6  and  O_7
REMARK    4  A    between atoms: O_7  and  C_8
REMARK    5  A    between atoms: C_8  and  C_9
REMARK    6  A    between atoms: C_9  and  N_10
REMARK                            x       y       z     vdW  Elec       q    Type
REMARK                         _______ _______ _______ _____ _____    ______ ____
ROOT
ATOM      1  C   UNL     1       2.746   6.514  18.802  0.00  0.00    +0.000 A 
ATOM      2  C   UNL     1       2.676   7.525  17.842  0.00  0.00    +0.000 A 
ATOM      3  C   UNL     1       2.044   8.733  18.136  0.00  0.00    +0.000 A 
ATOM      4  C   UNL     1       1.473   8.959  19.396  0.00  0.00    +0.000 A 
ATOM      5  C   UNL     1       1.570   7.964  20.370  0.00  0.00    +0.000 A 
ATOM      6  C   UNL     1       2.220   6.753  20.082  0.00  0.00    +0.000 A 
ENDROOT
BRANCH   1   8
ATOM      7  O   UNL     1       2.639   4.235  18.224  0.00  0.00    +0.000 OA
ATOM      8  C   UNL     1       3.363   5.214  18.389  0.00  0.00    +0.000 C 
BRANCH   8   9
ATOM      9  C   UNL     1       4.840   5.114  18.224  0.00  0.00    +0.000 A 
ATOM     10  C   UNL     1       5.626   5.353  19.366  0.00  0.00    +0.000 A 
ATOM     11  C   UNL     1       7.004   5.466  19.255  0.00  0.00    +0.000 A 
ATOM     12  C   UNL     1       7.604   5.342  18.006  0.00  0.00    +0.000 A 
ATOM     13  C   UNL     1       6.846   5.039  16.865  0.00  0.00    +0.000 A 
ATOM     14  C   UNL     1       7.485   4.919  15.620  0.00  0.00    +0.000 A 
ATOM     15  C   UNL     1       6.774   4.560  14.477  0.00  0.00    +0.000 A 
ATOM     16  C   UNL     1       5.417   4.293  14.568  0.00  0.00    +0.000 A 
ATOM     17  C   UNL     1       4.757   4.452  15.790  0.00  0.00    +0.000 A 
ATOM     18  C   UNL     1       5.443   4.859  16.963  0.00  0.00    +0.000 A 
ENDBRANCH   8   9
ENDBRANCH   1   8
BRANCH   4  19
ATOM     19  O   UNL     1       0.806  10.105  19.770  0.00  0.00    +0.000 OA
BRANCH  19  20
ATOM     20  C   UNL     1      -0.102  10.594  18.773  0.00  0.00    +0.000 C 
BRANCH  20  21
ATOM     21  C   UNL     1      -0.583  12.030  19.032  0.00  0.00    +0.000 C 
BRANCH  21  22
ATOM     22  N   UNL     1      -2.016  12.191  18.687  0.00  0.00    +0.000 NA
ATOM     23  C   UNL     1      -2.512  11.111  17.816  0.00  0.00    +0.000 C 
ATOM     24  C   UNL     1      -3.960  11.352  17.393  0.00  0.00    +0.000 C 
ATOM     25  C   UNL     1      -4.870  11.517  18.601  0.00  0.00    +0.000 C 
ATOM     26  C   UNL     1      -4.308  12.575  19.545  0.00  0.00    +0.000 C 
ATOM     27  C   UNL     1      -2.843  12.298  19.899  0.00  0.00    +0.000 C 
ENDBRANCH  21  22
ENDBRANCH  20  21
ENDBRANCH  19  20
ENDBRANCH   4  19
TORSDOF 6
ENDMDL
MODEL 9
REMARK VINA RESULT:      -8.0      5.012      8.348
REMARK  Name = 
REMARK  6 active torsions:
REMARK  status: ('A' for Active; 'I' for Inactive)
REMARK    1  A    between atoms: C_2  and  C_3
REMARK    2  A    between atoms: C_2  and  C_18
REMARK    3  A    between atoms: C_6  and  O_7
REMARK    4  A    between atoms: O_7  and  C_8
REMARK    5  A    between atoms: C_8  and  C_9
REMARK    6  A    between atoms: C_9  and  N_10
REMARK                            x       y       z     vdW  Elec       q    Type
REMARK                         _______ _______ _______ _____ _____    ______ ____
ROOT
ATOM      1  C   UNL     1       1.582   9.330  19.014  0.00  0.00    +0.000 A 
ATOM      2  C   UNL     1       2.190   8.464  18.104  0.00  0.00    +0.000 A 
ATOM      3  C   UNL     1       2.503   7.158  18.477  0.00  0.00    +0.000 A 
ATOM      4  C   UNL     1       2.212   6.687  19.765  0.00  0.00    +0.000 A 
ATOM      5  C   UNL     1       1.573   7.539  20.667  0.00  0.00    +0.000 A 
ATOM      6  C   UNL     1       1.242   8.850  20.290  0.00  0.00    +0.000 A 
ENDROOT
BRANCH   1   8
ATOM      7  O   UNL     1       2.239  11.327  17.952  0.00  0.00    +0.000 OA
ATOM      8  C   UNL     1       1.353  10.743  18.573  0.00  0.00    +0.000 C 
BRANCH   8   9
ATOM      9  C   UNL     1       0.080  11.431  18.924  0.00  0.00    +0.000 A 
ATOM     10  C   UNL     1       0.146  12.428  19.915  0.00  0.00    +0.000 A 
ATOM     11  C   UNL     1      -1.017  12.980  20.432  0.00  0.00    +0.000 A 
ATOM     12  C   UNL     1      -2.251  12.540  19.964  0.00  0.00    +0.000 A 
ATOM     13  C   UNL     1      -2.339  11.594  18.931  0.00  0.00    +0.000 A 
ATOM     14  C   UNL     1      -3.602  11.176  18.482  0.00  0.00    +0.000 A 
ATOM     15  C   UNL     1      -3.729  10.285  17.418  0.00  0.00    +0.000 A 
ATOM     16  C   UNL     1      -2.594   9.818  16.773  0.00  0.00    +0.000 A 
ATOM     17  C   UNL     1      -1.329  10.191  17.236  0.00  0.00    +0.000 A 
ATOM     18  C   UNL     1      -1.164  11.061  18.345  0.00  0.00    +0.000 A 
ENDBRANCH   8   9
ENDBRANCH   1   8
BRANCH   4  19
ATOM     19  O   UNL     1       2.507   5.425  20.233  0.00  0.00    +0.000 OA
BRANCH  19  20
ATOM     20  C   UNL     1       2.795   4.478  19.195  0.00  0.00    +0.000 C 
BRANCH  20  21
ATOM     21  C   UNL     1       4.261   4.020  19.170  0.00  0.00    +0.000 C 
BRANCH  21  22
ATOM     22  N   UNL     1       4.984   4.585  18.006  0.00  0.00    +0.000 NA
ATOM     23  C   UNL     1       6.436   4.686  18.237  0.00  0.00    +0.000 C 
ATOM     24  C   UNL     1       7.145   5.362  17.066  0.00  0.00    +0.000 C 
ATOM     25  C   UNL     1       6.867   4.637  15.758  0.00  0.00    +0.000 C 
ATOM     26  C   UNL     1       5.366   4.458  15.562  0.00  0.00    +0.000 C 
ATOM     27  C   UNL     1       4.708   3.812  16.786  0.00  0.00    +0.000 C 
ENDBRANCH  21  22
ENDBRANCH  20  21
ENDBRANCH  19  20
ENDBRANCH   4  19
TORSDOF 6
ENDMDL
