MODEL 1
REMARK VINA RESULT:      -8.6      0.000      0.000
REMARK  Name = 
REMARK  9 active torsions:
REMARK  status: ('A' for Active; 'I' for Inactive)
REMARK    1  A    between atoms: C_1  and  N_2
REMARK    2  A    between atoms: N_2  and  C_3
REMARK    3  A    between atoms: C_4  and  C_6
REMARK    4  A    between atoms: C_6  and  N_7
REMARK    5  A    between atoms: C_9  and  C_10
REMARK    6  A    between atoms: C_10  and  C_12
REMARK    7  A    between atoms: C_16  and  N_17
REMARK    8  A    between atoms: C_18  and  C_20
REMARK    9  A    between atoms: C_20  and  C_21
REMARK                            x       y       z     vdW  Elec       q    Type
REMARK                         _______ _______ _______ _____ _____    ______ ____
ROOT
ATOM      1  C   UNL     1       1.817   8.137  19.409  0.00  0.00    +0.000 A 
ATOM      2  C   UNL     1       2.397   8.194  18.150  0.00  0.00    +0.000 A 
ATOM      3  N   UNL     1       2.306   9.282  17.342  0.00  0.00    +0.000 NA
ATOM      4  C   UNL     1       1.613  10.350  17.818  0.00  0.00    +0.000 A 
ATOM      5  C   UNL     1       1.035  10.401  19.082  0.00  0.00    +0.000 A 
ATOM      6  C   UNL     1       1.172   9.282  19.894  0.00  0.00    +0.000 A 
ENDROOT
BRANCH   5   7
ATOM      7  N   UNL     1       0.292  11.518  19.516  0.00  0.00    +0.000 N 
ATOM      8  C   UNL     1      -1.073  11.636  19.272  0.00  0.00    +0.000 C 
ATOM      9  O   UNL     1      -1.739  10.768  18.721  0.00  0.00    +0.000 OA
ATOM     10  H   UNL     1       0.800  12.306  19.900  0.00  0.00    +0.000 HD
BRANCH   8  11
ATOM     11  C   UNL     1      -1.713  12.912  19.809  0.00  0.00    +0.000 C 
BRANCH  11  12
ATOM     12  C   UNL     1      -2.496  12.702  21.084  0.00  0.00    +0.000 A 
ATOM     13  C   UNL     1      -3.850  13.060  21.176  0.00  0.00    +0.000 A 
ATOM     14  C   UNL     1      -4.533  12.946  22.392  0.00  0.00    +0.000 A 
ATOM     15  C   UNL     1      -3.882  12.432  23.508  0.00  0.00    +0.000 A 
ATOM     16 CL   UNL     1      -4.707  12.325  25.015  0.00  0.00    +0.000 Cl
ATOM     17  C   UNL     1      -2.558  12.009  23.415  0.00  0.00    +0.000 A 
ATOM     18  C   UNL     1      -1.868  12.142  22.207  0.00  0.00    +0.000 A 
ENDBRANCH  11  12
ENDBRANCH   8  11
ENDBRANCH   5   7
BRANCH   1  19
ATOM     19  C   UNL     1       1.857   6.863  20.185  0.00  0.00    +0.000 C 
ATOM     20  O   UNL     1       1.213   6.787  21.219  0.00  0.00    +0.000 OA
BRANCH  19  23
ATOM     21  N   UNL     1       4.513   4.614  19.035  0.00  0.00    +0.000 N 
ATOM     22  C   UNL     1       4.066   5.849  19.471  0.00  0.00    +0.000 A 
ATOM     23  C   UNL     1       2.699   5.770  19.698  0.00  0.00    +0.000 A 
ATOM     24  C   UNL     1       2.314   4.428  19.357  0.00  0.00    +0.000 A 
ATOM     25  C   UNL     1       1.123   3.706  19.307  0.00  0.00    +0.000 A 
ATOM     26  N   UNL     1       1.137   2.403  18.992  0.00  0.00    +0.000 NA
ATOM     27  C   UNL     1       2.326   1.848  18.696  0.00  0.00    +0.000 A 
ATOM     28  N   UNL     1       3.531   2.441  18.660  0.00  0.00    +0.000 NA
ATOM     29  C   UNL     1       3.461   3.739  19.007  0.00  0.00    +0.000 A 
BRANCH  21  30
ATOM     30  C   UNL     1       5.864   4.298  18.605  0.00  0.00    +0.000 C 
BRANCH  30  34
ATOM     31  C   UNL     1       8.113   7.368  18.328  0.00  0.00    +0.000 C 
ATOM     32  N   UNL     1       7.147   6.336  17.989  0.00  0.00    +0.000 N 
ATOM     33  C   UNL     1       6.579   6.328  16.651  0.00  0.00    +0.000 C 
ATOM     34  C   UNL     1       6.867   5.381  18.966  0.00  0.00    +0.000 C 
ATOM     35  O   UNL     1       7.399   5.437  20.077  0.00  0.00    +0.000 OA
ENDBRANCH  30  34
ENDBRANCH  21  30
ENDBRANCH  19  23
ENDBRANCH   1  19
TORSDOF 7
ENDMDL
MODEL 2
REMARK VINA RESULT:      -8.5      4.040     10.464
REMARK  Name = 
REMARK  9 active torsions:
REMARK  status: ('A' for Active; 'I' for Inactive)
REMARK    1  A    between atoms: C_1  and  N_2
REMARK    2  A    between atoms: N_2  and  C_3
REMARK    3  A    between atoms: C_4  and  C_6
REMARK    4  A    between atoms: C_6  and  N_7
REMARK    5  A    between atoms: C_9  and  C_10
REMARK    6  A    between atoms: C_10  and  C_12
REMARK    7  A    between atoms: C_16  and  N_17
REMARK    8  A    between atoms: C_18  and  C_20
REMARK    9  A    between atoms: C_20  and  C_21
REMARK                            x       y       z     vdW  Elec       q    Type
REMARK                         _______ _______ _______ _____ _____    ______ ____
ROOT
ATOM      1  C   UNL     1       1.751   8.761  19.006  0.00  0.00    +0.000 A 
ATOM      2  C   UNL     1       1.309   8.541  20.303  0.00  0.00    +0.000 A 
ATOM      3  N   UNL     1       1.440   7.346  20.935  0.00  0.00    +0.000 NA
ATOM      4  C   UNL     1       2.039   6.342  20.244  0.00  0.00    +0.000 A 
ATOM      5  C   UNL     1       2.552   6.481  18.958  0.00  0.00    +0.000 A 
ATOM      6  C   UNL     1       2.428   7.724  18.351  0.00  0.00    +0.000 A 
ENDROOT
BRANCH   5   7
ATOM      7  N   UNL     1       3.132   5.397  18.267  0.00  0.00    +0.000 N 
ATOM      8  C   UNL     1       4.403   4.923  18.575  0.00  0.00    +0.000 C 
ATOM      9  O   UNL     1       5.085   5.362  19.492  0.00  0.00    +0.000 OA
ATOM     10  H   UNL     1       2.654   5.048  17.445  0.00  0.00    +0.000 HD
BRANCH   8  11
ATOM     11  C   UNL     1       4.873   3.747  17.723  0.00  0.00    +0.000 C 
BRANCH  11  12
ATOM     12  C   UNL     1       5.577   4.167  16.454  0.00  0.00    +0.000 A 
ATOM     13  C   UNL     1       5.002   3.945  15.193  0.00  0.00    +0.000 A 
ATOM     14  C   UNL     1       5.711   4.255  14.027  0.00  0.00    +0.000 A 
ATOM     15  C   UNL     1       6.975   4.827  14.113  0.00  0.00    +0.000 A 
ATOM     16 CL   UNL     1       7.865   5.173  12.681  0.00  0.00    +0.000 Cl
ATOM     17  C   UNL     1       7.530   5.115  15.358  0.00  0.00    +0.000 A 
ATOM     18  C   UNL     1       6.833   4.788  16.524  0.00  0.00    +0.000 A 
ENDBRANCH  11  12
ENDBRANCH   8  11
ENDBRANCH   5   7
BRANCH   1  19
ATOM     19  C   UNL     1       1.462  10.063  18.337  0.00  0.00    +0.000 C 
ATOM     20  O   UNL     1       2.248  10.480  17.501  0.00  0.00    +0.000 OA
BRANCH  19  23
ATOM     21  N   UNL     1      -1.059  12.299  19.779  0.00  0.00    +0.000 N 
ATOM     22  C   UNL     1       0.237  11.822  19.687  0.00  0.00    +0.000 A 
ATOM     23  C   UNL     1       0.269  10.810  18.739  0.00  0.00    +0.000 A 
ATOM     24  C   UNL     1      -1.079  10.663  18.264  0.00  0.00    +0.000 A 
ATOM     25  C   UNL     1      -1.745   9.827  17.370  0.00  0.00    +0.000 A 
ATOM     26  N   UNL     1      -3.047  10.017  17.110  0.00  0.00    +0.000 NA
ATOM     27  C   UNL     1      -3.673  11.010  17.767  0.00  0.00    +0.000 A 
ATOM     28  N   UNL     1      -3.162  11.849  18.683  0.00  0.00    +0.000 NA
ATOM     29  C   UNL     1      -1.850  11.628  18.887  0.00  0.00    +0.000 A 
BRANCH  21  30
ATOM     30  C   UNL     1      -1.534  13.301  20.718  0.00  0.00    +0.000 C 
BRANCH  30  34
ATOM     31  C   UNL     1      -3.693  12.449  23.747  0.00  0.00    +0.000 C 
ATOM     32  N   UNL     1      -3.269  13.009  22.474  0.00  0.00    +0.000 N 
ATOM     33  C   UNL     1      -4.183  13.886  21.761  0.00  0.00    +0.000 C 
ATOM     34  C   UNL     1      -1.977  12.706  22.043  0.00  0.00    +0.000 C 
ATOM     35  O   UNL     1      -1.246  11.968  22.707  0.00  0.00    +0.000 OA
ENDBRANCH  30  34
ENDBRANCH  21  30
ENDBRANCH  19  23
ENDBRANCH   1  19
TORSDOF 7
ENDMDL
MODEL 3
REMARK VINA RESULT:      -8.4      2.037      3.881
REMARK  Name = 
REMARK  9 active torsions:
REMARK  status: ('A' for Active; 'I' for Inactive)
REMARK    1  A    between atoms: C_1  and  N_2
REMARK    2  A    between atoms: N_2  and  C_3
REMARK    3  A    between atoms: C_4  and  C_6
REMARK    4  A    between atoms: C_6  and  N_7
REMARK    5  A    between atoms: C_9  and  C_10
REMARK    6  A    between atoms: C_10  and  C_12
REMARK    7  A    between atoms: C_16  and  N_17
REMARK    8  A    between atoms: C_18  and  C_20
REMARK    9  A    between atoms: C_20  and  C_21
REMARK                            x       y       z     vdW  Elec       q    Type
REMARK                         _______ _______ _______ _____ _____    ______ ____
ROOT
ATOM      1  C   UNL     1       1.796   8.459  19.064  0.00  0.00    +0.000 A 
ATOM      2  C   UNL     1       1.878   7.681  20.210  0.00  0.00    +0.000 A 
ATOM      3  N   UNL     1       1.235   7.996  21.364  0.00  0.00    +0.000 NA
ATOM      4  C   UNL     1       0.482   9.127  21.365  0.00  0.00    +0.000 A 
ATOM      5  C   UNL     1       0.306   9.945  20.254  0.00  0.00    +0.000 A 
ATOM      6  C   UNL     1       0.954   9.578  19.080  0.00  0.00    +0.000 A 
ENDROOT
BRANCH   5   7
ATOM      7  N   UNL     1      -0.456  11.130  20.315  0.00  0.00    +0.000 N 
ATOM      8  C   UNL     1       0.060  12.311  20.841  0.00  0.00    +0.000 C 
ATOM      9  O   UNL     1       1.214  12.430  21.232  0.00  0.00    +0.000 OA
ATOM     10  H   UNL     1      -1.441  11.074  20.087  0.00  0.00    +0.000 HD
BRANCH   8  11
ATOM     11  C   UNL     1      -0.906  13.492  20.832  0.00  0.00    +0.000 C 
BRANCH  11  12
ATOM     12  C   UNL     1      -2.097  13.304  21.743  0.00  0.00    +0.000 A 
ATOM     13  C   UNL     1      -1.942  13.202  23.134  0.00  0.00    +0.000 A 
ATOM     14  C   UNL     1      -3.046  12.934  23.952  0.00  0.00    +0.000 A 
ATOM     15  C   UNL     1      -4.312  12.811  23.392  0.00  0.00    +0.000 A 
ATOM     16 CL   UNL     1      -5.666  12.443  24.389  0.00  0.00    +0.000 Cl
ATOM     17  C   UNL     1      -4.491  12.977  22.020  0.00  0.00    +0.000 A 
ATOM     18  C   UNL     1      -3.387  13.224  21.199  0.00  0.00    +0.000 A 
ENDBRANCH  11  12
ENDBRANCH   8  11
ENDBRANCH   5   7
BRANCH   1  19
ATOM     19  C   UNL     1       2.628   8.114  17.875  0.00  0.00    +0.000 C 
ATOM     20  O   UNL     1       2.750   8.941  16.985  0.00  0.00    +0.000 OA
BRANCH  19  23
ATOM     21  N   UNL     1       3.464   4.546  17.876  0.00  0.00    +0.000 N 
ATOM     22  C   UNL     1       2.576   5.588  18.070  0.00  0.00    +0.000 A 
ATOM     23  C   UNL     1       3.231   6.782  17.801  0.00  0.00    +0.000 A 
ATOM     24  C   UNL     1       4.579   6.430  17.453  0.00  0.00    +0.000 A 
ATOM     25  C   UNL     1       5.746   7.118  17.125  0.00  0.00    +0.000 A 
ATOM     26  N   UNL     1       6.853   6.444  16.782  0.00  0.00    +0.000 NA
ATOM     27  C   UNL     1       6.795   5.100  16.805  0.00  0.00    +0.000 A 
ATOM     28  N   UNL     1       5.755   4.322  17.147  0.00  0.00    +0.000 NA
ATOM     29  C   UNL     1       4.667   5.049  17.459  0.00  0.00    +0.000 A 
BRANCH  21  30
ATOM     30  C   UNL     1       3.200   3.141  18.135  0.00  0.00    +0.000 C 
BRANCH  30  34
ATOM     31  C   UNL     1       2.004   2.391  21.680  0.00  0.00    +0.000 C 
ATOM     32  N   UNL     1       1.988   2.709  20.261  0.00  0.00    +0.000 N 
ATOM     33  C   UNL     1       0.709   2.965  19.620  0.00  0.00    +0.000 C 
ATOM     34  C   UNL     1       3.221   2.799  19.615  0.00  0.00    +0.000 C 
ATOM     35  O   UNL     1       4.271   2.586  20.224  0.00  0.00    +0.000 OA
ENDBRANCH  30  34
ENDBRANCH  21  30
ENDBRANCH  19  23
ENDBRANCH   1  19
TORSDOF 7
ENDMDL
MODEL 4
REMARK VINA RESULT:      -8.3      4.007     10.347
REMARK  Name = 
REMARK  9 active torsions:
REMARK  status: ('A' for Active; 'I' for Inactive)
REMARK    1  A    between atoms: C_1  and  N_2
REMARK    2  A    between atoms: N_2  and  C_3
REMARK    3  A    between atoms: C_4  and  C_6
REMARK    4  A    between atoms: C_6  and  N_7
REMARK    5  A    between atoms: C_9  and  C_10
REMARK    6  A    between atoms: C_10  and  C_12
REMARK    7  A    between atoms: C_16  and  N_17
REMARK    8  A    between atoms: C_18  and  C_20
REMARK    9  A    between atoms: C_20  and  C_21
REMARK                            x       y       z     vdW  Elec       q    Type
REMARK                         _______ _______ _______ _____ _____    ______ ____
ROOT
ATOM      1  C   UNL     1      -0.333  10.766  20.751  0.00  0.00    +0.000 A 
ATOM      2  C   UNL     1      -0.846  10.103  21.856  0.00  0.00    +0.000 A 
ATOM      3  N   UNL     1      -0.409   8.879  22.252  0.00  0.00    +0.000 NA
ATOM      4  C   UNL     1       0.579   8.306  21.515  0.00  0.00    +0.000 A 
ATOM      5  C   UNL     1       1.183   8.913  20.419  0.00  0.00    +0.000 A 
ATOM      6  C   UNL     1       0.733  10.177  20.059  0.00  0.00    +0.000 A 
ENDROOT
BRANCH   5   7
ATOM      7  N   UNL     1       2.179   8.261  19.663  0.00  0.00    +0.000 N 
ATOM      8  C   UNL     1       2.140   8.220  18.272  0.00  0.00    +0.000 C 
ATOM      9  O   UNL     1       1.286   8.786  17.603  0.00  0.00    +0.000 OA
ATOM     10  H   UNL     1       2.864   7.704  20.160  0.00  0.00    +0.000 HD
BRANCH   8  11
ATOM     11  C   UNL     1       3.297   7.469  17.621  0.00  0.00    +0.000 C 
BRANCH  11  12
ATOM     12  C   UNL     1       3.311   5.992  17.939  0.00  0.00    +0.000 A 
ATOM     13  C   UNL     1       4.489   5.344  18.344  0.00  0.00    +0.000 A 
ATOM     14  C   UNL     1       4.503   3.959  18.542  0.00  0.00    +0.000 A 
ATOM     15  C   UNL     1       3.335   3.222  18.383  0.00  0.00    +0.000 A 
ATOM     16 CL   UNL     1       3.358   1.513  18.589  0.00  0.00    +0.000 Cl
ATOM     17  C   UNL     1       2.144   3.861  18.048  0.00  0.00    +0.000 A 
ATOM     18  C   UNL     1       2.131   5.241  17.828  0.00  0.00    +0.000 A 
ENDBRANCH  11  12
ENDBRANCH   8  11
ENDBRANCH   5   7
BRANCH   1  19
ATOM     19  C   UNL     1      -0.948  12.051  20.308  0.00  0.00    +0.000 C 
ATOM     20  O   UNL     1      -0.372  13.096  20.566  0.00  0.00    +0.000 OA
BRANCH  19  23
ATOM     21  N   UNL     1      -4.421  12.329  19.171  0.00  0.00    +0.000 N 
ATOM     22  C   UNL     1      -3.426  12.542  20.108  0.00  0.00    +0.000 A 
ATOM     23  C   UNL     1      -2.240  12.012  19.621  0.00  0.00    +0.000 A 
ATOM     24  C   UNL     1      -2.554  11.435  18.342  0.00  0.00    +0.000 A 
ATOM     25  C   UNL     1      -1.865  10.722  17.364  0.00  0.00    +0.000 A 
ATOM     26  N   UNL     1      -2.477  10.379  16.222  0.00  0.00    +0.000 NA
ATOM     27  C   UNL     1      -3.772  10.718  16.084  0.00  0.00    +0.000 A 
ATOM     28  N   UNL     1      -4.558  11.358  16.966  0.00  0.00    +0.000 NA
ATOM     29  C   UNL     1      -3.887  11.697  18.082  0.00  0.00    +0.000 A 
BRANCH  21  30
ATOM     30  C   UNL     1      -5.828  12.654  19.333  0.00  0.00    +0.000 C 
BRANCH  30  34
ATOM     31  C   UNL     1      -7.124  12.837  22.917  0.00  0.00    +0.000 C 
ATOM     32  N   UNL     1      -6.603  13.239  21.621  0.00  0.00    +0.000 N 
ATOM     33  C   UNL     1      -6.296  14.643  21.400  0.00  0.00    +0.000 C 
ATOM     34  C   UNL     1      -6.381  12.231  20.682  0.00  0.00    +0.000 C 
ATOM     35  O   UNL     1      -6.648  11.056  20.942  0.00  0.00    +0.000 OA
ENDBRANCH  30  34
ENDBRANCH  21  30
ENDBRANCH  19  23
ENDBRANCH   1  19
TORSDOF 7
ENDMDL
MODEL 5
REMARK VINA RESULT:      -8.2      1.223      1.583
REMARK  Name = 
REMARK  9 active torsions:
REMARK  status: ('A' for Active; 'I' for Inactive)
REMARK    1  A    between atoms: C_1  and  N_2
REMARK    2  A    between atoms: N_2  and  C_3
REMARK    3  A    between atoms: C_4  and  C_6
REMARK    4  A    between atoms: C_6  and  N_7
REMARK    5  A    between atoms: C_9  and  C_10
REMARK    6  A    between atoms: C_10  and  C_12
REMARK    7  A    between atoms: C_16  and  N_17
REMARK    8  A    between atoms: C_18  and  C_20
REMARK    9  A    between atoms: C_20  and  C_21
REMARK                            x       y       z     vdW  Elec       q    Type
REMARK                         _______ _______ _______ _____ _____    ______ ____
ROOT
ATOM      1  C   UNL     1       1.761   8.189  19.525  0.00  0.00    +0.000 A 
ATOM      2  C   UNL     1       1.913   8.456  18.171  0.00  0.00    +0.000 A 
ATOM      3  N   UNL     1       1.701   9.684  17.632  0.00  0.00    +0.000 NA
ATOM      4  C   UNL     1       1.329  10.678  18.481  0.00  0.00    +0.000 A 
ATOM      5  C   UNL     1       1.193  10.515  19.856  0.00  0.00    +0.000 A 
ATOM      6  C   UNL     1       1.446   9.253  20.380  0.00  0.00    +0.000 A 
ENDROOT
BRANCH   5   7
ATOM      7  N   UNL     1       0.767  11.569  20.691  0.00  0.00    +0.000 N 
ATOM      8  C   UNL     1      -0.565  11.966  20.753  0.00  0.00    +0.000 C 
ATOM      9  O   UNL     1      -1.468  11.406  20.144  0.00  0.00    +0.000 OA
ATOM     10  H   UNL     1       1.476  12.125  21.153  0.00  0.00    +0.000 HD
BRANCH   8  11
ATOM     11  C   UNL     1      -0.845  13.124  21.706  0.00  0.00    +0.000 C 
BRANCH  11  12
ATOM     12  C   UNL     1      -2.229  13.087  22.311  0.00  0.00    +0.000 A 
ATOM     13  C   UNL     1      -2.504  12.326  23.458  0.00  0.00    +0.000 A 
ATOM     14  C   UNL     1      -3.811  12.229  23.947  0.00  0.00    +0.000 A 
ATOM     15  C   UNL     1      -4.840  12.925  23.324  0.00  0.00    +0.000 A 
ATOM     16 CL   UNL     1      -6.455  12.778  23.900  0.00  0.00    +0.000 Cl
ATOM     17  C   UNL     1      -4.571  13.739  22.225  0.00  0.00    +0.000 A 
ATOM     18  C   UNL     1      -3.270  13.820  21.722  0.00  0.00    +0.000 A 
ENDBRANCH  11  12
ENDBRANCH   8  11
ENDBRANCH   5   7
BRANCH   1  19
ATOM     19  C   UNL     1       1.893   6.789  20.022  0.00  0.00    +0.000 C 
ATOM     20  O   UNL     1       1.336   6.483  21.064  0.00  0.00    +0.000 OA
BRANCH  19  23
ATOM     21  N   UNL     1       4.480   4.952  18.187  0.00  0.00    +0.000 N 
ATOM     22  C   UNL     1       4.028   6.073  18.862  0.00  0.00    +0.000 A 
ATOM     23  C   UNL     1       2.719   5.848  19.264  0.00  0.00    +0.000 A 
ATOM     24  C   UNL     1       2.371   4.540  18.783  0.00  0.00    +0.000 A 
ATOM     25  C   UNL     1       1.234   3.734  18.793  0.00  0.00    +0.000 A 
ATOM     26  N   UNL     1       1.282   2.493  18.286  0.00  0.00    +0.000 NA
ATOM     27  C   UNL     1       2.445   2.087  17.747  0.00  0.00    +0.000 A 
ATOM     28  N   UNL     1       3.592   2.778  17.632  0.00  0.00    +0.000 NA
ATOM     29  C   UNL     1       3.493   4.005  18.176  0.00  0.00    +0.000 A 
BRANCH  21  30
ATOM     30  C   UNL     1       5.768   4.814  17.530  0.00  0.00    +0.000 C 
BRANCH  30  34
ATOM     31  C   UNL     1       7.954   7.941  17.578  0.00  0.00    +0.000 C 
ATOM     32  N   UNL     1       7.379   6.660  17.952  0.00  0.00    +0.000 N 
ATOM     33  C   UNL     1       7.839   6.021  19.173  0.00  0.00    +0.000 C 
ATOM     34  C   UNL     1       6.374   6.149  17.130  0.00  0.00    +0.000 C 
ATOM     35  O   UNL     1       6.018   6.752  16.116  0.00  0.00    +0.000 OA
ENDBRANCH  30  34
ENDBRANCH  21  30
ENDBRANCH  19  23
ENDBRANCH   1  19
TORSDOF 7
ENDMDL
MODEL 6
REMARK VINA RESULT:      -8.2      2.541      3.086
REMARK  Name = 
REMARK  9 active torsions:
REMARK  status: ('A' for Active; 'I' for Inactive)
REMARK    1  A    between atoms: C_1  and  N_2
REMARK    2  A    between atoms: N_2  and  C_3
REMARK    3  A    between atoms: C_4  and  C_6
REMARK    4  A    between atoms: C_6  and  N_7
REMARK    5  A    between atoms: C_9  and  C_10
REMARK    6  A    between atoms: C_10  and  C_12
REMARK    7  A    between atoms: C_16  and  N_17
REMARK    8  A    between atoms: C_18  and  C_20
REMARK    9  A    between atoms: C_20  and  C_21
REMARK                            x       y       z     vdW  Elec       q    Type
REMARK                         _______ _______ _______ _____ _____    ______ ____
ROOT
ATOM      1  C   UNL     1       1.677   8.366  19.201  0.00  0.00    +0.000 A 
ATOM      2  C   UNL     1       1.959   7.669  20.367  0.00  0.00    +0.000 A 
ATOM      3  N   UNL     1       1.360   7.944  21.554  0.00  0.00    +0.000 NA
ATOM      4  C   UNL     1       0.444   8.947  21.569  0.00  0.00    +0.000 A 
ATOM      5  C   UNL     1       0.066   9.671  20.443  0.00  0.00    +0.000 A 
ATOM      6  C   UNL     1       0.676   9.346  19.238  0.00  0.00    +0.000 A 
ENDROOT
BRANCH   5   7
ATOM      7  N   UNL     1      -0.863  10.730  20.516  0.00  0.00    +0.000 N 
ATOM      8  C   UNL     1      -0.472  12.061  20.399  0.00  0.00    +0.000 C 
ATOM      9  O   UNL     1       0.678  12.411  20.170  0.00  0.00    +0.000 OA
ATOM     10  H   UNL     1      -1.813  10.511  20.788  0.00  0.00    +0.000 HD
BRANCH   8  11
ATOM     11  C   UNL     1      -1.608  13.074  20.507  0.00  0.00    +0.000 C 
BRANCH  11  12
ATOM     12  C   UNL     1      -2.915  12.576  19.934  0.00  0.00    +0.000 A 
ATOM     13  C   UNL     1      -2.965  11.918  18.695  0.00  0.00    +0.000 A 
ATOM     14  C   UNL     1      -4.195  11.549  18.139  0.00  0.00    +0.000 A 
ATOM     15  C   UNL     1      -5.374  11.793  18.834  0.00  0.00    +0.000 A 
ATOM     16 CL   UNL     1      -6.891  11.375  18.135  0.00  0.00    +0.000 Cl
ATOM     17  C   UNL     1      -5.335  12.384  20.095  0.00  0.00    +0.000 A 
ATOM     18  C   UNL     1      -4.109  12.772  20.643  0.00  0.00    +0.000 A 
ENDBRANCH  11  12
ENDBRANCH   8  11
ENDBRANCH   5   7
BRANCH   1  19
ATOM     19  C   UNL     1       2.465   8.088  17.964  0.00  0.00    +0.000 C 
ATOM     20  O   UNL     1       2.432   8.900  17.053  0.00  0.00    +0.000 OA
BRANCH  19  23
ATOM     21  N   UNL     1       4.930   5.385  17.741  0.00  0.00    +0.000 N 
ATOM     22  C   UNL     1       4.594   6.726  17.789  0.00  0.00    +0.000 A 
ATOM     23  C   UNL     1       3.213   6.833  17.875  0.00  0.00    +0.000 A 
ATOM     24  C   UNL     1       2.705   5.489  17.853  0.00  0.00    +0.000 A 
ATOM     25  C   UNL     1       1.448   4.889  17.859  0.00  0.00    +0.000 A 
ATOM     26  N   UNL     1       1.338   3.553  17.895  0.00  0.00    +0.000 NA
ATOM     27  C   UNL     1       2.475   2.836  17.888  0.00  0.00    +0.000 A 
ATOM     28  N   UNL     1       3.739   3.287  17.834  0.00  0.00    +0.000 NA
ATOM     29  C   UNL     1       3.791   4.632  17.823  0.00  0.00    +0.000 A 
BRANCH  21  30
ATOM     30  C   UNL     1       6.267   4.846  17.561  0.00  0.00    +0.000 C 
BRANCH  30  34
ATOM     31  C   UNL     1       7.412   5.202  13.938  0.00  0.00    +0.000 C 
ATOM     32  N   UNL     1       6.744   4.696  15.126  0.00  0.00    +0.000 N 
ATOM     33  C   UNL     1       5.947   3.485  15.013  0.00  0.00    +0.000 C 
ATOM     34  C   UNL     1       6.959   5.384  16.320  0.00  0.00    +0.000 C 
ATOM     35  O   UNL     1       7.663   6.396  16.349  0.00  0.00    +0.000 OA
ENDBRANCH  30  34
ENDBRANCH  21  30
ENDBRANCH  19  23
ENDBRANCH   1  19
TORSDOF 7
ENDMDL
MODEL 7
REMARK VINA RESULT:      -8.2      2.099      3.871
REMARK  Name = 
REMARK  9 active torsions:
REMARK  status: ('A' for Active; 'I' for Inactive)
REMARK    1  A    between atoms: C_1  and  N_2
REMARK    2  A    between atoms: N_2  and  C_3
REMARK    3  A    between atoms: C_4  and  C_6
REMARK    4  A    between atoms: C_6  and  N_7
REMARK    5  A    between atoms: C_9  and  C_10
REMARK    6  A    between atoms: C_10  and  C_12
REMARK    7  A    between atoms: C_16  and  N_17
REMARK    8  A    between atoms: C_18  and  C_20
REMARK    9  A    between atoms: C_20  and  C_21
REMARK                            x       y       z     vdW  Elec       q    Type
REMARK                         _______ _______ _______ _____ _____    ______ ____
ROOT
ATOM      1  C   UNL     1       1.882   8.351  19.098  0.00  0.00    +0.000 A 
ATOM      2  C   UNL     1       1.889   7.487  20.183  0.00  0.00    +0.000 A 
ATOM      3  N   UNL     1       1.295   7.783  21.368  0.00  0.00    +0.000 NA
ATOM      4  C   UNL     1       0.669   8.986  21.463  0.00  0.00    +0.000 A 
ATOM      5  C   UNL     1       0.574   9.898  20.417  0.00  0.00    +0.000 A 
ATOM      6  C   UNL     1       1.167   9.551  19.209  0.00  0.00    +0.000 A 
ENDROOT
BRANCH   5   7
ATOM      7  N   UNL     1      -0.054  11.150  20.576  0.00  0.00    +0.000 N 
ATOM      8  C   UNL     1      -1.210  11.489  19.879  0.00  0.00    +0.000 C 
ATOM      9  O   UNL     1      -1.797  10.720  19.128  0.00  0.00    +0.000 OA
ATOM     10  H   UNL     1       0.429  11.858  21.116  0.00  0.00    +0.000 HD
BRANCH   8  11
ATOM     11  C   UNL     1      -1.749  12.886  20.172  0.00  0.00    +0.000 C 
BRANCH  11  12
ATOM     12  C   UNL     1      -2.857  12.901  21.199  0.00  0.00    +0.000 A 
ATOM     13  C   UNL     1      -2.589  12.711  22.564  0.00  0.00    +0.000 A 
ATOM     14  C   UNL     1      -3.638  12.634  23.487  0.00  0.00    +0.000 A 
ATOM     15  C   UNL     1      -4.952  12.791  23.061  0.00  0.00    +0.000 A 
ATOM     16 CL   UNL     1      -6.246  12.659  24.188  0.00  0.00    +0.000 Cl
ATOM     17  C   UNL     1      -5.228  13.048  21.720  0.00  0.00    +0.000 A 
ATOM     18  C   UNL     1      -4.184  13.104  20.793  0.00  0.00    +0.000 A 
ENDBRANCH  11  12
ENDBRANCH   8  11
ENDBRANCH   5   7
BRANCH   1  19
ATOM     19  C   UNL     1       2.661   8.006  17.873  0.00  0.00    +0.000 C 
ATOM     20  O   UNL     1       2.879   8.883  17.051  0.00  0.00    +0.000 OA
BRANCH  19  23
ATOM     21  N   UNL     1       3.077   4.372  17.645  0.00  0.00    +0.000 N 
ATOM     22  C   UNL     1       2.340   5.495  17.976  0.00  0.00    +0.000 A 
ATOM     23  C   UNL     1       3.095   6.622  17.683  0.00  0.00    +0.000 A 
ATOM     24  C   UNL     1       4.351   6.141  17.176  0.00  0.00    +0.000 A 
ATOM     25  C   UNL     1       5.548   6.712  16.749  0.00  0.00    +0.000 A 
ATOM     26  N   UNL     1       6.529   5.939  16.262  0.00  0.00    +0.000 NA
ATOM     27  C   UNL     1       6.320   4.610  16.239  0.00  0.00    +0.000 A 
ATOM     28  N   UNL     1       5.239   3.935  16.663  0.00  0.00    +0.000 NA
ATOM     29  C   UNL     1       4.279   4.761  17.120  0.00  0.00    +0.000 A 
BRANCH  21  30
ATOM     30  C   UNL     1       2.682   2.993  17.877  0.00  0.00    +0.000 C 
BRANCH  30  34
ATOM     31  C   UNL     1       1.742   2.488  21.541  0.00  0.00    +0.000 C 
ATOM     32  N   UNL     1       2.538   2.662  20.336  0.00  0.00    +0.000 N 
ATOM     33  C   UNL     1       3.986   2.604  20.445  0.00  0.00    +0.000 C 
ATOM     34  C   UNL     1       1.848   2.822  19.135  0.00  0.00    +0.000 C 
ATOM     35  O   UNL     1       0.615   2.844  19.112  0.00  0.00    +0.000 OA
ENDBRANCH  30  34
ENDBRANCH  21  30
ENDBRANCH  19  23
ENDBRANCH   1  19
TORSDOF 7
ENDMDL
MODEL 8
REMARK VINA RESULT:      -8.2      2.667      3.974
REMARK  Name = 
REMARK  9 active torsions:
REMARK  status: ('A' for Active; 'I' for Inactive)
REMARK    1  A    between atoms: C_1  and  N_2
REMARK    2  A    between atoms: N_2  and  C_3
REMARK    3  A    between atoms: C_4  and  C_6
REMARK    4  A    between atoms: C_6  and  N_7
REMARK    5  A    between atoms: C_9  and  C_10
REMARK    6  A    between atoms: C_10  and  C_12
REMARK    7  A    between atoms: C_16  and  N_17
REMARK    8  A    between atoms: C_18  and  C_20
REMARK    9  A    between atoms: C_20  and  C_21
REMARK                            x       y       z     vdW  Elec       q    Type
REMARK                         _______ _______ _______ _____ _____    ______ ____
ROOT
ATOM      1  C   UNL     1       2.538   6.668  18.763  0.00  0.00    +0.000 A 
ATOM      2  C   UNL     1       2.973   7.595  17.826  0.00  0.00    +0.000 A 
ATOM      3  N   UNL     1       2.599   8.900  17.849  0.00  0.00    +0.000 NA
ATOM      4  C   UNL     1       1.765   9.288  18.849  0.00  0.00    +0.000 A 
ATOM      5  C   UNL     1       1.311   8.442  19.855  0.00  0.00    +0.000 A 
ATOM      6  C   UNL     1       1.736   7.119  19.819  0.00  0.00    +0.000 A 
ENDROOT
BRANCH   5   7
ATOM      7  N   UNL     1       0.415   8.883  20.851  0.00  0.00    +0.000 N 
ATOM      8  C   UNL     1       0.854   9.310  22.100  0.00  0.00    +0.000 C 
ATOM      9  O   UNL     1       2.035   9.392  22.411  0.00  0.00    +0.000 OA
ATOM     10  H   UNL     1      -0.577   8.759  20.686  0.00  0.00    +0.000 HD
BRANCH   8  11
ATOM     11  C   UNL     1      -0.254   9.748  23.054  0.00  0.00    +0.000 C 
BRANCH  11  12
ATOM     12  C   UNL     1      -0.862  11.085  22.697  0.00  0.00    +0.000 A 
ATOM     13  C   UNL     1      -0.272  11.922  21.737  0.00  0.00    +0.000 A 
ATOM     14  C   UNL     1      -0.797  13.196  21.490  0.00  0.00    +0.000 A 
ATOM     15  C   UNL     1      -1.935  13.621  22.163  0.00  0.00    +0.000 A 
ATOM     16 CL   UNL     1      -2.561  15.201  21.890  0.00  0.00    +0.000 Cl
ATOM     17  C   UNL     1      -2.571  12.774  23.069  0.00  0.00    +0.000 A 
ATOM     18  C   UNL     1      -2.037  11.511  23.334  0.00  0.00    +0.000 A 
ENDBRANCH  11  12
ENDBRANCH   8  11
ENDBRANCH   5   7
BRANCH   1  19
ATOM     19  C   UNL     1       2.893   5.229  18.599  0.00  0.00    +0.000 C 
ATOM     20  O   UNL     1       2.134   4.383  19.046  0.00  0.00    +0.000 OA
BRANCH  19  23
ATOM     21  N   UNL     1       5.633   4.199  16.394  0.00  0.00    +0.000 N 
ATOM     22  C   UNL     1       4.288   4.377  16.664  0.00  0.00    +0.000 A 
ATOM     23  C   UNL     1       4.158   4.887  17.948  0.00  0.00    +0.000 A 
ATOM     24  C   UNL     1       5.492   4.994  18.473  0.00  0.00    +0.000 A 
ATOM     25  C   UNL     1       6.068   5.375  19.683  0.00  0.00    +0.000 A 
ATOM     26  N   UNL     1       7.403   5.415  19.811  0.00  0.00    +0.000 NA
ATOM     27  C   UNL     1       8.141   5.043  18.750  0.00  0.00    +0.000 A 
ATOM     28  N   UNL     1       7.711   4.611  17.552  0.00  0.00    +0.000 NA
ATOM     29  C   UNL     1       6.368   4.613  17.472  0.00  0.00    +0.000 A 
BRANCH  21  30
ATOM     30  C   UNL     1       6.191   3.605  15.191  0.00  0.00    +0.000 C 
BRANCH  30  34
ATOM     31  C   UNL     1       7.535   5.343  12.072  0.00  0.00    +0.000 C 
ATOM     32  N   UNL     1       6.860   4.380  12.927  0.00  0.00    +0.000 N 
ATOM     33  C   UNL     1       6.249   3.213  12.312  0.00  0.00    +0.000 C 
ATOM     34  C   UNL     1       6.890   4.618  14.301  0.00  0.00    +0.000 C 
ATOM     35  O   UNL     1       7.442   5.621  14.757  0.00  0.00    +0.000 OA
ENDBRANCH  30  34
ENDBRANCH  21  30
ENDBRANCH  19  23
ENDBRANCH   1  19
TORSDOF 7
ENDMDL
MODEL 9
REMARK VINA RESULT:      -8.2      1.106      1.359
REMARK  Name = 
REMARK  9 active torsions:
REMARK  status: ('A' for Active; 'I' for Inactive)
REMARK    1  A    between atoms: C_1  and  N_2
REMARK    2  A    between atoms: N_2  and  C_3
REMARK    3  A    between atoms: C_4  and  C_6
REMARK    4  A    between atoms: C_6  and  N_7
REMARK    5  A    between atoms: C_9  and  C_10
REMARK    6  A    between atoms: C_10  and  C_12
REMARK    7  A    between atoms: C_16  and  N_17
REMARK    8  A    between atoms: C_18  and  C_20
REMARK    9  A    between atoms: C_20  and  C_21
REMARK                            x       y       z     vdW  Elec       q    Type
REMARK                         _______ _______ _______ _____ _____    ______ ____
ROOT
ATOM      1  C   UNL     1       1.835   8.042  19.447  0.00  0.00    +0.000 A 
ATOM      2  C   UNL     1       2.355   8.203  18.170  0.00  0.00    +0.000 A 
ATOM      3  N   UNL     1       2.215   9.349  17.455  0.00  0.00    +0.000 NA
ATOM      4  C   UNL     1       1.535  10.368  18.044  0.00  0.00    +0.000 A 
ATOM      5  C   UNL     1       1.016  10.313  19.334  0.00  0.00    +0.000 A 
ATOM      6  C   UNL     1       1.202   9.137  20.049  0.00  0.00    +0.000 A 
ENDROOT
BRANCH   5   7
ATOM      7  N   UNL     1       0.284  11.384  19.887  0.00  0.00    +0.000 N 
ATOM      8  C   UNL     1      -1.083  11.532  19.671  0.00  0.00    +0.000 C 
ATOM      9  O   UNL     1      -1.759  10.727  19.043  0.00  0.00    +0.000 OA
ATOM     10  H   UNL     1       0.800  12.127  20.343  0.00  0.00    +0.000 HD
BRANCH   8  11
ATOM     11  C   UNL     1      -1.710  12.750  20.342  0.00  0.00    +0.000 C 
BRANCH  11  12
ATOM     12  C   UNL     1      -3.198  12.615  20.564  0.00  0.00    +0.000 A 
ATOM     13  C   UNL     1      -4.078  12.380  19.496  0.00  0.00    +0.000 A 
ATOM     14  C   UNL     1      -5.461  12.353  19.709  0.00  0.00    +0.000 A 
ATOM     15  C   UNL     1      -5.969  12.513  20.992  0.00  0.00    +0.000 A 
ATOM     16 CL   UNL     1      -7.671  12.518  21.252  0.00  0.00    +0.000 Cl
ATOM     17  C   UNL     1      -5.106  12.678  22.073  0.00  0.00    +0.000 A 
ATOM     18  C   UNL     1      -3.725  12.728  21.860  0.00  0.00    +0.000 A 
ENDBRANCH  11  12
ENDBRANCH   8  11
ENDBRANCH   5   7
BRANCH   1  19
ATOM     19  C   UNL     1       1.924   6.713  20.119  0.00  0.00    +0.000 C 
ATOM     20  O   UNL     1       1.292   6.533  21.148  0.00  0.00    +0.000 OA
BRANCH  19  23
ATOM     21  N   UNL     1       4.653   4.609  18.873  0.00  0.00    +0.000 N 
ATOM     22  C   UNL     1       4.180   5.769  19.460  0.00  0.00    +0.000 A 
ATOM     23  C   UNL     1       2.797   5.690  19.542  0.00  0.00    +0.000 A 
ATOM     24  C   UNL     1       2.432   4.432  18.952  0.00  0.00    +0.000 A 
ATOM     25  C   UNL     1       1.244   3.759  18.673  0.00  0.00    +0.000 A 
ATOM     26  N   UNL     1       1.274   2.524  18.151  0.00  0.00    +0.000 NA
ATOM     27  C   UNL     1       2.480   1.993  17.883  0.00  0.00    +0.000 A 
ATOM     28  N   UNL     1       3.690   2.551  18.057  0.00  0.00    +0.000 NA
ATOM     29  C   UNL     1       3.600   3.778  18.603  0.00  0.00    +0.000 A 
BRANCH  21  30
ATOM     30  C   UNL     1       6.037   4.331  18.526  0.00  0.00    +0.000 C 
BRANCH  30  34
ATOM     31  C   UNL     1       8.218   7.461  18.438  0.00  0.00    +0.000 C 
ATOM     32  N   UNL     1       7.300   6.412  18.024  0.00  0.00    +0.000 N 
ATOM     33  C   UNL     1       6.811   6.416  16.655  0.00  0.00    +0.000 C 
ATOM     34  C   UNL     1       6.988   5.431  18.965  0.00  0.00    +0.000 C 
ATOM     35  O   UNL     1       7.453   5.478  20.106  0.00  0.00    +0.000 OA
ENDBRANCH  30  34
ENDBRANCH  21  30
ENDBRANCH  19  23
ENDBRANCH   1  19
TORSDOF 7
ENDMDL
