MODEL 1
REMARK VINA RESULT:      -8.1      0.000      0.000
REMARK  Name = 
REMARK  9 active torsions:
REMARK  status: ('A' for Active; 'I' for Inactive)
REMARK    1  A    between atoms: C_1  and  N_2
REMARK    2  A    between atoms: N_2  and  C_3
REMARK    3  A    between atoms: N_2  and  C_17
REMARK    4  A    between atoms: C_3  and  C_4
REMARK    5  A    between atoms: C_6  and  C_7
REMARK    6  A    between atoms: C_15  and  O_16
REMARK    7  A    between atoms: C_17  and  C_18
REMARK    8  A    between atoms: C_18  and  O_19
REMARK    9  A    between atoms: C_18  and  C_20
REMARK                            x       y       z     vdW  Elec       q    Type
REMARK                         _______ _______ _______ _____ _____    ______ ____
ROOT
ATOM      1  C   UNL     1       4.591   4.414  18.654  0.00  0.00    +0.000 A 
ATOM      2  C   UNL     1       4.079   5.716  18.841  0.00  0.00    +0.000 A 
ATOM      3  C   UNL     1       2.776   6.086  18.440  0.00  0.00    +0.000 A 
ATOM      4  C   UNL     1       2.028   5.119  17.745  0.00  0.00    +0.000 A 
ATOM      5  C   UNL     1       2.529   3.832  17.518  0.00  0.00    +0.000 A 
ATOM      6  C   UNL     1       3.782   3.480  18.006  0.00  0.00    +0.000 A 
ENDROOT
BRANCH   3   7
ATOM      7  C   UNL     1       2.195   7.409  18.800  0.00  0.00    +0.000 A 
ATOM      8  C   UNL     1       2.006   8.432  17.850  0.00  0.00    +0.000 A 
ATOM      9  C   UNL     1       1.410   9.653  18.193  0.00  0.00    +0.000 A 
ATOM     10  C   UNL     1       0.996   9.888  19.499  0.00  0.00    +0.000 A 
ATOM     11  C   UNL     1       1.170   8.902  20.461  0.00  0.00    +0.000 A 
ATOM     12  C   UNL     1       1.754   7.679  20.112  0.00  0.00    +0.000 A 
ENDBRANCH   3   7
BRANCH   6  13
ATOM     13  O   UNL     1       4.231   2.196  17.862  0.00  0.00    +0.000 OA
ATOM     14  H   UNL     1       5.135   2.149  18.212  0.00  0.00    +0.000 HD
ENDBRANCH   6  13
BRANCH   1  15
ATOM     15  C   UNL     1       5.921   4.028  19.255  0.00  0.00    +0.000 C 
BRANCH  15  17
ATOM     16  C   UNL     1       7.625   5.801  19.276  0.00  0.00    +0.000 C 
ATOM     17  N   UNL     1       7.143   4.577  18.668  0.00  0.00    +0.000 NA
BRANCH  17  18
ATOM     18  C   UNL     1       7.301   4.446  17.214  0.00  0.00    +0.000 C 
BRANCH  18  19
ATOM     19  C   UNL     1       6.803   5.551  16.237  0.00  0.00    +0.000 C 
BRANCH  19  20
ATOM     20  C   UNL     1       6.634   4.966  14.843  0.00  0.00    +0.000 A 
ATOM     21  C   UNL     1       5.555   4.114  14.556  0.00  0.00    +0.000 A 
ATOM     22  C   UNL     1       5.426   3.529  13.294  0.00  0.00    +0.000 A 
ATOM     23  C   UNL     1       6.374   3.784  12.302  0.00  0.00    +0.000 A 
ATOM     24  C   UNL     1       7.450   4.624  12.574  0.00  0.00    +0.000 A 
ATOM     25  C   UNL     1       7.581   5.209  13.833  0.00  0.00    +0.000 A 
ENDBRANCH  19  20
BRANCH  19  26
ATOM     26  O   UNL     1       7.697   6.663  16.154  0.00  0.00    +0.000 OA
ATOM     27  H   UNL     1       7.177   7.423  15.851  0.00  0.00    +0.000 HD
ENDBRANCH  19  26
ENDBRANCH  18  19
ENDBRANCH  17  18
ENDBRANCH  15  17
ENDBRANCH   1  15
TORSDOF 8
ENDMDL
MODEL 2
REMARK VINA RESULT:      -8.1      2.322      4.365
REMARK  Name = 
REMARK  9 active torsions:
REMARK  status: ('A' for Active; 'I' for Inactive)
REMARK    1  A    between atoms: C_1  and  N_2
REMARK    2  A    between atoms: N_2  and  C_3
REMARK    3  A    between atoms: N_2  and  C_17
REMARK    4  A    between atoms: C_3  and  C_4
REMARK    5  A    between atoms: C_6  and  C_7
REMARK    6  A    between atoms: C_15  and  O_16
REMARK    7  A    between atoms: C_17  and  C_18
REMARK    8  A    between atoms: C_18  and  O_19
REMARK    9  A    between atoms: C_18  and  C_20
REMARK                            x       y       z     vdW  Elec       q    Type
REMARK                         _______ _______ _______ _____ _____    ______ ____
ROOT
ATOM      1  C   UNL     1       2.295   7.092  19.714  0.00  0.00    +0.000 A 
ATOM      2  C   UNL     1       1.605   7.956  20.593  0.00  0.00    +0.000 A 
ATOM      3  C   UNL     1       1.053   9.186  20.171  0.00  0.00    +0.000 A 
ATOM      4  C   UNL     1       1.306   9.573  18.844  0.00  0.00    +0.000 A 
ATOM      5  C   UNL     1       2.017   8.748  17.964  0.00  0.00    +0.000 A 
ATOM      6  C   UNL     1       2.469   7.505  18.393  0.00  0.00    +0.000 A 
ENDROOT
BRANCH   3   7
ATOM      7  C   UNL     1       0.184   9.998  21.068  0.00  0.00    +0.000 A 
ATOM      8  C   UNL     1      -0.445  11.183  20.636  0.00  0.00    +0.000 A 
ATOM      9  C   UNL     1      -1.301  11.908  21.475  0.00  0.00    +0.000 A 
ATOM     10  C   UNL     1      -1.544  11.474  22.773  0.00  0.00    +0.000 A 
ATOM     11  C   UNL     1      -0.938  10.312  23.231  0.00  0.00    +0.000 A 
ATOM     12  C   UNL     1      -0.093   9.583  22.387  0.00  0.00    +0.000 A 
ENDBRANCH   3   7
BRANCH   6  13
ATOM     13  O   UNL     1       3.083   6.663  17.507  0.00  0.00    +0.000 OA
ATOM     14  H   UNL     1       2.423   6.032  17.179  0.00  0.00    +0.000 HD
ENDBRANCH   6  13
BRANCH   1  15
ATOM     15  C   UNL     1       2.712   5.716  20.176  0.00  0.00    +0.000 C 
BRANCH  15  17
ATOM     16  C   UNL     1       0.919   4.033  20.174  0.00  0.00    +0.000 C 
ATOM     17  N   UNL     1       2.112   4.547  19.532  0.00  0.00    +0.000 NA
BRANCH  17  18
ATOM     18  C   UNL     1       3.032   3.566  18.945  0.00  0.00    +0.000 C 
BRANCH  18  19
ATOM     19  C   UNL     1       4.561   3.604  19.239  0.00  0.00    +0.000 C 
BRANCH  19  20
ATOM     20  C   UNL     1       5.313   4.042  17.991  0.00  0.00    +0.000 A 
ATOM     21  C   UNL     1       4.788   3.779  16.715  0.00  0.00    +0.000 A 
ATOM     22  C   UNL     1       5.501   4.128  15.566  0.00  0.00    +0.000 A 
ATOM     23  C   UNL     1       6.749   4.741  15.673  0.00  0.00    +0.000 A 
ATOM     24  C   UNL     1       7.283   5.007  16.931  0.00  0.00    +0.000 A 
ATOM     25  C   UNL     1       6.574   4.659  18.080  0.00  0.00    +0.000 A 
ENDBRANCH  19  20
BRANCH  19  26
ATOM     26  O   UNL     1       5.078   2.339  19.656  0.00  0.00    +0.000 OA
ATOM     27  H   UNL     1       5.014   1.742  18.895  0.00  0.00    +0.000 HD
ENDBRANCH  19  26
ENDBRANCH  18  19
ENDBRANCH  17  18
ENDBRANCH  15  17
ENDBRANCH   1  15
TORSDOF 8
ENDMDL
MODEL 3
REMARK VINA RESULT:      -8.0      2.317      4.534
REMARK  Name = 
REMARK  9 active torsions:
REMARK  status: ('A' for Active; 'I' for Inactive)
REMARK    1  A    between atoms: C_1  and  N_2
REMARK    2  A    between atoms: N_2  and  C_3
REMARK    3  A    between atoms: N_2  and  C_17
REMARK    4  A    between atoms: C_3  and  C_4
REMARK    5  A    between atoms: C_6  and  C_7
REMARK    6  A    between atoms: C_15  and  O_16
REMARK    7  A    between atoms: C_17  and  C_18
REMARK    8  A    between atoms: C_18  and  O_19
REMARK    9  A    between atoms: C_18  and  C_20
REMARK                            x       y       z     vdW  Elec       q    Type
REMARK                         _______ _______ _______ _____ _____    ______ ____
ROOT
ATOM      1  C   UNL     1       2.368   7.226  19.607  0.00  0.00    +0.000 A 
ATOM      2  C   UNL     1       1.616   8.040  20.481  0.00  0.00    +0.000 A 
ATOM      3  C   UNL     1       1.014   9.249  20.065  0.00  0.00    +0.000 A 
ATOM      4  C   UNL     1       1.279   9.669  18.750  0.00  0.00    +0.000 A 
ATOM      5  C   UNL     1       2.050   8.894  17.876  0.00  0.00    +0.000 A 
ATOM      6  C   UNL     1       2.552   7.668  18.297  0.00  0.00    +0.000 A 
ENDROOT
BRANCH   3   7
ATOM      7  C   UNL     1       0.085  10.003  20.953  0.00  0.00    +0.000 A 
ATOM      8  C   UNL     1      -0.052   9.709  22.323  0.00  0.00    +0.000 A 
ATOM      9  C   UNL     1      -0.891  10.461  23.156  0.00  0.00    +0.000 A 
ATOM     10  C   UNL     1      -1.624  11.523  22.638  0.00  0.00    +0.000 A 
ATOM     11  C   UNL     1      -1.515  11.837  21.290  0.00  0.00    +0.000 A 
ATOM     12  C   UNL     1      -0.666  11.092  20.463  0.00  0.00    +0.000 A 
ENDBRANCH   3   7
BRANCH   6  13
ATOM     13  O   UNL     1       3.228   6.872  17.414  0.00  0.00    +0.000 OA
ATOM     14  H   UNL     1       3.867   6.339  17.913  0.00  0.00    +0.000 HD
ENDBRANCH   6  13
BRANCH   1  15
ATOM     15  C   UNL     1       2.841   5.865  20.058  0.00  0.00    +0.000 C 
BRANCH  15  17
ATOM     16  C   UNL     1       1.050   4.196  20.290  0.00  0.00    +0.000 C 
ATOM     17  N   UNL     1       2.179   4.676  19.519  0.00  0.00    +0.000 NA
BRANCH  17  18
ATOM     18  C   UNL     1       3.036   3.666  18.887  0.00  0.00    +0.000 C 
BRANCH  18  19
ATOM     19  C   UNL     1       4.561   3.585  19.192  0.00  0.00    +0.000 C 
BRANCH  19  20
ATOM     20  C   UNL     1       5.351   4.075  17.988  0.00  0.00    +0.000 A 
ATOM     21  C   UNL     1       6.520   4.833  18.166  0.00  0.00    +0.000 A 
ATOM     22  C   UNL     1       7.219   5.333  17.065  0.00  0.00    +0.000 A 
ATOM     23  C   UNL     1       6.759   5.088  15.771  0.00  0.00    +0.000 A 
ATOM     24  C   UNL     1       5.600   4.340  15.579  0.00  0.00    +0.000 A 
ATOM     25  C   UNL     1       4.901   3.839  16.677  0.00  0.00    +0.000 A 
ENDBRANCH  19  20
BRANCH  19  26
ATOM     26  O   UNL     1       4.994   2.260  19.506  0.00  0.00    +0.000 OA
ATOM     27  H   UNL     1       5.148   2.232  20.463  0.00  0.00    +0.000 HD
ENDBRANCH  19  26
ENDBRANCH  18  19
ENDBRANCH  17  18
ENDBRANCH  15  17
ENDBRANCH   1  15
TORSDOF 8
ENDMDL
MODEL 4
REMARK VINA RESULT:      -8.0      2.045      6.858
REMARK  Name = 
REMARK  9 active torsions:
REMARK  status: ('A' for Active; 'I' for Inactive)
REMARK    1  A    between atoms: C_1  and  N_2
REMARK    2  A    between atoms: N_2  and  C_3
REMARK    3  A    between atoms: N_2  and  C_17
REMARK    4  A    between atoms: C_3  and  C_4
REMARK    5  A    between atoms: C_6  and  C_7
REMARK    6  A    between atoms: C_15  and  O_16
REMARK    7  A    between atoms: C_17  and  C_18
REMARK    8  A    between atoms: C_18  and  O_19
REMARK    9  A    between atoms: C_18  and  C_20
REMARK                            x       y       z     vdW  Elec       q    Type
REMARK                         _______ _______ _______ _____ _____    ______ ____
ROOT
ATOM      1  C   UNL     1       5.118   3.880  18.041  0.00  0.00    +0.000 A 
ATOM      2  C   UNL     1       5.361   3.727  16.659  0.00  0.00    +0.000 A 
ATOM      3  C   UNL     1       5.812   4.790  15.845  0.00  0.00    +0.000 A 
ATOM      4  C   UNL     1       5.916   6.053  16.452  0.00  0.00    +0.000 A 
ATOM      5  C   UNL     1       5.647   6.235  17.813  0.00  0.00    +0.000 A 
ATOM      6  C   UNL     1       5.291   5.146  18.600  0.00  0.00    +0.000 A 
ENDROOT
BRANCH   3   7
ATOM      7  C   UNL     1       6.226   4.568  14.431  0.00  0.00    +0.000 A 
ATOM      8  C   UNL     1       7.339   5.216  13.862  0.00  0.00    +0.000 A 
ATOM      9  C   UNL     1       7.748   4.958  12.547  0.00  0.00    +0.000 A 
ATOM     10  C   UNL     1       7.047   4.049  11.761  0.00  0.00    +0.000 A 
ATOM     11  C   UNL     1       5.943   3.395  12.290  0.00  0.00    +0.000 A 
ATOM     12  C   UNL     1       5.545   3.646  13.609  0.00  0.00    +0.000 A 
ENDBRANCH   3   7
BRANCH   6  13
ATOM     13  O   UNL     1       5.117   5.309  19.947  0.00  0.00    +0.000 OA
ATOM     14  H   UNL     1       5.690   6.035  20.242  0.00  0.00    +0.000 HD
ENDBRANCH   6  13
BRANCH   1  15
ATOM     15  C   UNL     1       4.805   2.673  18.894  0.00  0.00    +0.000 C 
BRANCH  15  17
ATOM     16  C   UNL     1       3.696   2.282  21.054  0.00  0.00    +0.000 C 
ATOM     17  N   UNL     1       3.559   2.659  19.661  0.00  0.00    +0.000 NA
BRANCH  17  18
ATOM     18  C   UNL     1       2.351   2.207  18.961  0.00  0.00    +0.000 C 
BRANCH  18  19
ATOM     19  C   UNL     1       1.133   3.153  18.744  0.00  0.00    +0.000 C 
BRANCH  19  20
ATOM     20  C   UNL     1       1.544   4.591  19.021  0.00  0.00    +0.000 A 
ATOM     21  C   UNL     1       1.502   5.104  20.327  0.00  0.00    +0.000 A 
ATOM     22  C   UNL     1       1.824   6.439  20.579  0.00  0.00    +0.000 A 
ATOM     23  C   UNL     1       2.189   7.283  19.530  0.00  0.00    +0.000 A 
ATOM     24  C   UNL     1       2.233   6.789  18.229  0.00  0.00    +0.000 A 
ATOM     25  C   UNL     1       1.912   5.457  17.975  0.00  0.00    +0.000 A 
ENDBRANCH  19  20
BRANCH  19  26
ATOM     26  O   UNL     1       0.023   2.831  19.585  0.00  0.00    +0.000 OA
ATOM     27  H   UNL     1       0.357   2.801  20.495  0.00  0.00    +0.000 HD
ENDBRANCH  19  26
ENDBRANCH  18  19
ENDBRANCH  17  18
ENDBRANCH  15  17
ENDBRANCH   1  15
TORSDOF 8
ENDMDL
MODEL 5
REMARK VINA RESULT:      -8.0      2.397      4.714
REMARK  Name = 
REMARK  9 active torsions:
REMARK  status: ('A' for Active; 'I' for Inactive)
REMARK    1  A    between atoms: C_1  and  N_2
REMARK    2  A    between atoms: N_2  and  C_3
REMARK    3  A    between atoms: N_2  and  C_17
REMARK    4  A    between atoms: C_3  and  C_4
REMARK    5  A    between atoms: C_6  and  C_7
REMARK    6  A    between atoms: C_15  and  O_16
REMARK    7  A    between atoms: C_17  and  C_18
REMARK    8  A    between atoms: C_18  and  O_19
REMARK    9  A    between atoms: C_18  and  C_20
REMARK                            x       y       z     vdW  Elec       q    Type
REMARK                         _______ _______ _______ _____ _____    ______ ____
ROOT
ATOM      1  C   UNL     1       2.216   7.214  19.778  0.00  0.00    +0.000 A 
ATOM      2  C   UNL     1       1.485   8.054  20.644  0.00  0.00    +0.000 A 
ATOM      3  C   UNL     1       0.908   9.271  20.216  0.00  0.00    +0.000 A 
ATOM      4  C   UNL     1       1.179   9.671  18.896  0.00  0.00    +0.000 A 
ATOM      5  C   UNL     1       1.931   8.869  18.029  0.00  0.00    +0.000 A 
ATOM      6  C   UNL     1       2.407   7.637  18.462  0.00  0.00    +0.000 A 
ENDROOT
BRANCH   3   7
ATOM      7  C   UNL     1      -0.002  10.055  21.096  0.00  0.00    +0.000 A 
ATOM      8  C   UNL     1      -0.229   9.711  22.443  0.00  0.00    +0.000 A 
ATOM      9  C   UNL     1      -1.047  10.488  23.273  0.00  0.00    +0.000 A 
ATOM     10  C   UNL     1      -1.670  11.628  22.776  0.00  0.00    +0.000 A 
ATOM     11  C   UNL     1      -1.470  11.994  21.451  0.00  0.00    +0.000 A 
ATOM     12  C   UNL     1      -0.642  11.222  20.628  0.00  0.00    +0.000 A 
ENDBRANCH   3   7
BRANCH   6  13
ATOM     13  O   UNL     1       3.064   6.816  17.587  0.00  0.00    +0.000 OA
ATOM     14  H   UNL     1       2.669   6.932  16.707  0.00  0.00    +0.000 HD
ENDBRANCH   6  13
BRANCH   1  15
ATOM     15  C   UNL     1       2.661   5.848  20.243  0.00  0.00    +0.000 C 
BRANCH  15  17
ATOM     16  C   UNL     1       0.944   4.087  20.249  0.00  0.00    +0.000 C 
ATOM     17  N   UNL     1       2.098   4.666  19.590  0.00  0.00    +0.000 NA
BRANCH  17  18
ATOM     18  C   UNL     1       3.046   3.737  18.963  0.00  0.00    +0.000 C 
BRANCH  18  19
ATOM     19  C   UNL     1       4.527   3.642  19.434  0.00  0.00    +0.000 C 
BRANCH  19  20
ATOM     20  C   UNL     1       5.422   4.408  18.472  0.00  0.00    +0.000 A 
ATOM     21  C   UNL     1       5.332   4.188  17.088  0.00  0.00    +0.000 A 
ATOM     22  C   UNL     1       6.189   4.847  16.204  0.00  0.00    +0.000 A 
ATOM     23  C   UNL     1       7.152   5.732  16.690  0.00  0.00    +0.000 A 
ATOM     24  C   UNL     1       7.256   5.958  18.060  0.00  0.00    +0.000 A 
ATOM     25  C   UNL     1       6.400   5.302  18.944  0.00  0.00    +0.000 A 
ENDBRANCH  19  20
BRANCH  19  26
ATOM     26  O   UNL     1       4.999   2.296  19.514  0.00  0.00    +0.000 OA
ATOM     27  H   UNL     1       4.795   1.976  20.406  0.00  0.00    +0.000 HD
ENDBRANCH  19  26
ENDBRANCH  18  19
ENDBRANCH  17  18
ENDBRANCH  15  17
ENDBRANCH   1  15
TORSDOF 8
ENDMDL
MODEL 6
REMARK VINA RESULT:      -7.9      2.306      4.519
REMARK  Name = 
REMARK  9 active torsions:
REMARK  status: ('A' for Active; 'I' for Inactive)
REMARK    1  A    between atoms: C_1  and  N_2
REMARK    2  A    between atoms: N_2  and  C_3
REMARK    3  A    between atoms: N_2  and  C_17
REMARK    4  A    between atoms: C_3  and  C_4
REMARK    5  A    between atoms: C_6  and  C_7
REMARK    6  A    between atoms: C_15  and  O_16
REMARK    7  A    between atoms: C_17  and  C_18
REMARK    8  A    between atoms: C_18  and  O_19
REMARK    9  A    between atoms: C_18  and  C_20
REMARK                            x       y       z     vdW  Elec       q    Type
REMARK                         _______ _______ _______ _____ _____    ______ ____
ROOT
ATOM      1  C   UNL     1       2.331   6.968  19.741  0.00  0.00    +0.000 A 
ATOM      2  C   UNL     1       1.638   7.837  20.611  0.00  0.00    +0.000 A 
ATOM      3  C   UNL     1       1.049   9.044  20.171  0.00  0.00    +0.000 A 
ATOM      4  C   UNL     1       1.268   9.403  18.829  0.00  0.00    +0.000 A 
ATOM      5  C   UNL     1       1.981   8.573  17.957  0.00  0.00    +0.000 A 
ATOM      6  C   UNL     1       2.470   7.352  18.407  0.00  0.00    +0.000 A 
ENDROOT
BRANCH   3   7
ATOM      7  C   UNL     1       0.178   9.858  21.063  0.00  0.00    +0.000 A 
ATOM      8  C   UNL     1      -0.114   9.473  22.386  0.00  0.00    +0.000 A 
ATOM      9  C   UNL     1      -0.892  10.275  23.231  0.00  0.00    +0.000 A 
ATOM     10  C   UNL     1      -1.410  11.481  22.771  0.00  0.00    +0.000 A 
ATOM     11  C   UNL     1      -1.144  11.889  21.471  0.00  0.00    +0.000 A 
ATOM     12  C   UNL     1      -0.355  11.091  20.634  0.00  0.00    +0.000 A 
ENDBRANCH   3   7
BRANCH   6  13
ATOM     13  O   UNL     1       3.087   6.502  17.530  0.00  0.00    +0.000 OA
ATOM     14  H   UNL     1       2.523   6.413  16.746  0.00  0.00    +0.000 HD
ENDBRANCH   6  13
BRANCH   1  15
ATOM     15  C   UNL     1       2.789   5.614  20.228  0.00  0.00    +0.000 C 
BRANCH  15  17
ATOM     16  C   UNL     1       0.908   4.030  20.227  0.00  0.00    +0.000 C 
ATOM     17  N   UNL     1       2.180   4.416  19.650  0.00  0.00    +0.000 NA
BRANCH  17  18
ATOM     18  C   UNL     1       3.087   3.336  19.248  0.00  0.00    +0.000 C 
BRANCH  18  19
ATOM     19  C   UNL     1       3.402   3.050  17.749  0.00  0.00    +0.000 C 
BRANCH  19  20
ATOM     20  C   UNL     1       4.701   3.739  17.357  0.00  0.00    +0.000 A 
ATOM     21  C   UNL     1       5.045   3.889  16.005  0.00  0.00    +0.000 A 
ATOM     22  C   UNL     1       6.262   4.469  15.640  0.00  0.00    +0.000 A 
ATOM     23  C   UNL     1       7.155   4.904  16.621  0.00  0.00    +0.000 A 
ATOM     24  C   UNL     1       6.827   4.759  17.966  0.00  0.00    +0.000 A 
ATOM     25  C   UNL     1       5.613   4.180  18.332  0.00  0.00    +0.000 A 
ENDBRANCH  19  20
BRANCH  19  26
ATOM     26  O   UNL     1       2.369   3.502  16.870  0.00  0.00    +0.000 OA
ATOM     27  H   UNL     1       2.316   2.861  16.144  0.00  0.00    +0.000 HD
ENDBRANCH  19  26
ENDBRANCH  18  19
ENDBRANCH  17  18
ENDBRANCH  15  17
ENDBRANCH   1  15
TORSDOF 8
ENDMDL
MODEL 7
REMARK VINA RESULT:      -7.9      3.894      6.230
REMARK  Name = 
REMARK  9 active torsions:
REMARK  status: ('A' for Active; 'I' for Inactive)
REMARK    1  A    between atoms: C_1  and  N_2
REMARK    2  A    between atoms: N_2  and  C_3
REMARK    3  A    between atoms: N_2  and  C_17
REMARK    4  A    between atoms: C_3  and  C_4
REMARK    5  A    between atoms: C_6  and  C_7
REMARK    6  A    between atoms: C_15  and  O_16
REMARK    7  A    between atoms: C_17  and  C_18
REMARK    8  A    between atoms: C_18  and  O_19
REMARK    9  A    between atoms: C_18  and  C_20
REMARK                            x       y       z     vdW  Elec       q    Type
REMARK                         _______ _______ _______ _____ _____    ______ ____
ROOT
ATOM      1  C   UNL     1       5.961   6.370  16.959  0.00  0.00    +0.000 A 
ATOM      2  C   UNL     1       4.815   6.065  17.724  0.00  0.00    +0.000 A 
ATOM      3  C   UNL     1       4.111   4.848  17.587  0.00  0.00    +0.000 A 
ATOM      4  C   UNL     1       4.542   3.978  16.571  0.00  0.00    +0.000 A 
ATOM      5  C   UNL     1       5.656   4.276  15.776  0.00  0.00    +0.000 A 
ATOM      6  C   UNL     1       6.375   5.443  16.002  0.00  0.00    +0.000 A 
ENDROOT
BRANCH   3   7
ATOM      7  C   UNL     1       3.012   4.473  18.519  0.00  0.00    +0.000 A 
ATOM      8  C   UNL     1       2.854   5.082  19.780  0.00  0.00    +0.000 A 
ATOM      9  C   UNL     1       1.785   4.756  20.625  0.00  0.00    +0.000 A 
ATOM     10  C   UNL     1       0.849   3.803  20.236  0.00  0.00    +0.000 A 
ATOM     11  C   UNL     1       0.978   3.182  19.001  0.00  0.00    +0.000 A 
ATOM     12  C   UNL     1       2.040   3.519  18.154  0.00  0.00    +0.000 A 
ENDBRANCH   3   7
BRANCH   6  13
ATOM     13  O   UNL     1       7.515   5.688  15.286  0.00  0.00    +0.000 OA
ATOM     14  H   UNL     1       7.868   6.549  15.562  0.00  0.00    +0.000 HD
ENDBRANCH   6  13
BRANCH   1  15
ATOM     15  C   UNL     1       6.773   7.606  17.268  0.00  0.00    +0.000 C 
BRANCH  15  17
ATOM     16  C   UNL     1       8.034   6.255  18.890  0.00  0.00    +0.000 C 
ATOM     17  N   UNL     1       7.963   7.473  18.108  0.00  0.00    +0.000 NA
BRANCH  17  18
ATOM     18  C   UNL     1       8.478   8.699  18.730  0.00  0.00    +0.000 C 
BRANCH  18  19
ATOM     19  C   UNL     1       8.807   9.965  17.886  0.00  0.00    +0.000 C 
BRANCH  19  20
ATOM     20  C   UNL     1       9.840  10.813  18.613  0.00  0.00    +0.000 A 
ATOM     21  C   UNL     1       9.727  11.041  19.994  0.00  0.00    +0.000 A 
ATOM     22  C   UNL     1      10.640  11.865  20.657  0.00  0.00    +0.000 A 
ATOM     23  C   UNL     1      11.676  12.476  19.949  0.00  0.00    +0.000 A 
ATOM     24  C   UNL     1      11.798  12.262  18.579  0.00  0.00    +0.000 A 
ATOM     25  C   UNL     1      10.888  11.440  17.916  0.00  0.00    +0.000 A 
ENDBRANCH  19  20
BRANCH  19  26
ATOM     26  O   UNL     1       7.658  10.775  17.629  0.00  0.00    +0.000 OA
ATOM     27  H   UNL     1       7.866  11.669  17.943  0.00  0.00    +0.000 HD
ENDBRANCH  19  26
ENDBRANCH  18  19
ENDBRANCH  17  18
ENDBRANCH  15  17
ENDBRANCH   1  15
TORSDOF 8
ENDMDL
MODEL 8
REMARK VINA RESULT:      -7.9      3.841      6.224
REMARK  Name = 
REMARK  9 active torsions:
REMARK  status: ('A' for Active; 'I' for Inactive)
REMARK    1  A    between atoms: C_1  and  N_2
REMARK    2  A    between atoms: N_2  and  C_3
REMARK    3  A    between atoms: N_2  and  C_17
REMARK    4  A    between atoms: C_3  and  C_4
REMARK    5  A    between atoms: C_6  and  C_7
REMARK    6  A    between atoms: C_15  and  O_16
REMARK    7  A    between atoms: C_17  and  C_18
REMARK    8  A    between atoms: C_18  and  O_19
REMARK    9  A    between atoms: C_18  and  C_20
REMARK                            x       y       z     vdW  Elec       q    Type
REMARK                         _______ _______ _______ _____ _____    ______ ____
ROOT
ATOM      1  C   UNL     1       5.907   6.357  16.916  0.00  0.00    +0.000 A 
ATOM      2  C   UNL     1       4.741   6.066  17.656  0.00  0.00    +0.000 A 
ATOM      3  C   UNL     1       4.020   4.862  17.496  0.00  0.00    +0.000 A 
ATOM      4  C   UNL     1       4.457   3.991  16.483  0.00  0.00    +0.000 A 
ATOM      5  C   UNL     1       5.591   4.275  15.714  0.00  0.00    +0.000 A 
ATOM      6  C   UNL     1       6.325   5.429  15.962  0.00  0.00    +0.000 A 
ENDROOT
BRANCH   3   7
ATOM      7  C   UNL     1       2.896   4.500  18.404  0.00  0.00    +0.000 A 
ATOM      8  C   UNL     1       2.105   3.352  18.203  0.00  0.00    +0.000 A 
ATOM      9  C   UNL     1       1.085   2.996  19.095  0.00  0.00    +0.000 A 
ATOM     10  C   UNL     1       0.821   3.785  20.209  0.00  0.00    +0.000 A 
ATOM     11  C   UNL     1       1.579   4.926  20.435  0.00  0.00    +0.000 A 
ATOM     12  C   UNL     1       2.606   5.272  19.549  0.00  0.00    +0.000 A 
ENDBRANCH   3   7
BRANCH   6  13
ATOM     13  O   UNL     1       7.483   5.660  15.271  0.00  0.00    +0.000 OA
ATOM     14  H   UNL     1       8.227   5.574  15.888  0.00  0.00    +0.000 HD
ENDBRANCH   6  13
BRANCH   1  15
ATOM     15  C   UNL     1       6.732   7.577  17.249  0.00  0.00    +0.000 C 
BRANCH  15  17
ATOM     16  C   UNL     1       7.966   6.199  18.869  0.00  0.00    +0.000 C 
ATOM     17  N   UNL     1       7.926   7.413  18.080  0.00  0.00    +0.000 NA
BRANCH  17  18
ATOM     18  C   UNL     1       8.484   8.626  18.689  0.00  0.00    +0.000 C 
BRANCH  18  19
ATOM     19  C   UNL     1       8.771   9.904  17.846  0.00  0.00    +0.000 C 
BRANCH  19  20
ATOM     20  C   UNL     1       9.729  10.813  18.602  0.00  0.00    +0.000 A 
ATOM     21  C   UNL     1      10.783  11.452  17.929  0.00  0.00    +0.000 A 
ATOM     22  C   UNL     1      11.699  12.242  18.627  0.00  0.00    +0.000 A 
ATOM     23  C   UNL     1      11.578  12.402  20.008  0.00  0.00    +0.000 A 
ATOM     24  C   UNL     1      10.540  11.773  20.689  0.00  0.00    +0.000 A 
ATOM     25  C   UNL     1       9.624  10.983  19.994  0.00  0.00    +0.000 A 
ENDBRANCH  19  20
BRANCH  19  26
ATOM     26  O   UNL     1       7.588  10.647  17.544  0.00  0.00    +0.000 OA
ATOM     27  H   UNL     1       7.496  11.323  18.233  0.00  0.00    +0.000 HD
ENDBRANCH  19  26
ENDBRANCH  18  19
ENDBRANCH  17  18
ENDBRANCH  15  17
ENDBRANCH   1  15
TORSDOF 8
ENDMDL
MODEL 9
REMARK VINA RESULT:      -7.8      1.981      6.904
REMARK  Name = 
REMARK  9 active torsions:
REMARK  status: ('A' for Active; 'I' for Inactive)
REMARK    1  A    between atoms: C_1  and  N_2
REMARK    2  A    between atoms: N_2  and  C_3
REMARK    3  A    between atoms: N_2  and  C_17
REMARK    4  A    between atoms: C_3  and  C_4
REMARK    5  A    between atoms: C_6  and  C_7
REMARK    6  A    between atoms: C_15  and  O_16
REMARK    7  A    between atoms: C_17  and  C_18
REMARK    8  A    between atoms: C_18  and  O_19
REMARK    9  A    between atoms: C_18  and  C_20
REMARK                            x       y       z     vdW  Elec       q    Type
REMARK                         _______ _______ _______ _____ _____    ______ ____
ROOT
ATOM      1  C   UNL     1       5.249   4.075  18.103  0.00  0.00    +0.000 A 
ATOM      2  C   UNL     1       5.489   3.829  16.734  0.00  0.00    +0.000 A 
ATOM      3  C   UNL     1       5.859   4.850  15.831  0.00  0.00    +0.000 A 
ATOM      4  C   UNL     1       5.883   6.162  16.335  0.00  0.00    +0.000 A 
ATOM      5  C   UNL     1       5.615   6.434  17.682  0.00  0.00    +0.000 A 
ATOM      6  C   UNL     1       5.341   5.391  18.558  0.00  0.00    +0.000 A 
ENDROOT
BRANCH   3   7
ATOM      7  C   UNL     1       6.274   4.544  14.434  0.00  0.00    +0.000 A 
ATOM      8  C   UNL     1       5.574   3.628  13.624  0.00  0.00    +0.000 A 
ATOM      9  C   UNL     1       5.945   3.389  12.295  0.00  0.00    +0.000 A 
ATOM     10  C   UNL     1       7.035   4.052  11.741  0.00  0.00    +0.000 A 
ATOM     11  C   UNL     1       7.749   4.959  12.513  0.00  0.00    +0.000 A 
ATOM     12  C   UNL     1       7.367   5.205  13.837  0.00  0.00    +0.000 A 
ENDBRANCH   3   7
BRANCH   6  13
ATOM     13  O   UNL     1       5.169   5.649  19.890  0.00  0.00    +0.000 OA
ATOM     14  H   UNL     1       6.023   5.930  20.257  0.00  0.00    +0.000 HD
ENDBRANCH   6  13
BRANCH   1  15
ATOM     15  C   UNL     1       5.026   2.922  19.054  0.00  0.00    +0.000 C 
BRANCH  15  17
ATOM     16  C   UNL     1       3.168   1.896  17.812  0.00  0.00    +0.000 C 
ATOM     17  N   UNL     1       3.707   2.292  19.098  0.00  0.00    +0.000 NA
BRANCH  17  18
ATOM     18  C   UNL     1       2.757   2.806  20.091  0.00  0.00    +0.000 C 
BRANCH  18  19
ATOM     19  C   UNL     1       1.426   3.495  19.666  0.00  0.00    +0.000 C 
BRANCH  19  20
ATOM     20  C   UNL     1       1.672   4.975  19.415  0.00  0.00    +0.000 A 
ATOM     21  C   UNL     1       1.908   5.446  18.114  0.00  0.00    +0.000 A 
ATOM     22  C   UNL     1       2.191   6.794  17.884  0.00  0.00    +0.000 A 
ATOM     23  C   UNL     1       2.245   7.691  18.952  0.00  0.00    +0.000 A 
ATOM     24  C   UNL     1       2.016   7.238  20.248  0.00  0.00    +0.000 A 
ATOM     25  C   UNL     1       1.734   5.893  20.479  0.00  0.00    +0.000 A 
ENDBRANCH  19  20
BRANCH  19  26
ATOM     26  O   UNL     1       0.397   3.369  20.650  0.00  0.00    +0.000 OA
ATOM     27  H   UNL     1       0.071   4.264  20.834  0.00  0.00    +0.000 HD
ENDBRANCH  19  26
ENDBRANCH  18  19
ENDBRANCH  17  18
ENDBRANCH  15  17
ENDBRANCH   1  15
TORSDOF 8
ENDMDL
