MODEL 1
REMARK VINA RESULT:      -7.1      0.000      0.000
REMARK  Name = 
REMARK  6 active torsions:
REMARK  status: ('A' for Active; 'I' for Inactive)
REMARK    1  A    between atoms: C_2  and  C_3
REMARK    2  A    between atoms: C_2  and  C_11
REMARK    3  A    between atoms: C_3  and  C_4
REMARK    4  A    between atoms: C_7  and  O_8
REMARK    5  A    between atoms: C_14  and  O_15
REMARK    6  A    between atoms: C_17  and  O_18
REMARK                            x       y       z     vdW  Elec       q    Type
REMARK                         _______ _______ _______ _____ _____    ______ ____
ROOT
ATOM      1  O   UNL     1       6.517   5.130  19.826  0.00  0.00    +0.000 OA
ATOM      2  C   UNL     1       5.509   5.275  19.130  0.00  0.00    +0.000 C 
ENDROOT
BRANCH   2   3
ATOM      3  C   UNL     1       4.241   4.623  19.573  0.00  0.00    +0.000 A 
ATOM      4  C   UNL     1       3.141   5.467  19.807  0.00  0.00    +0.000 A 
ATOM      5  C   UNL     1       1.913   4.946  20.223  0.00  0.00    +0.000 A 
ATOM      6  C   UNL     1       1.791   3.576  20.423  0.00  0.00    +0.000 A 
ATOM      7  C   UNL     1       2.869   2.725  20.216  0.00  0.00    +0.000 A 
ATOM      8  C   UNL     1       4.092   3.249  19.790  0.00  0.00    +0.000 A 
BRANCH   6   9
ATOM      9  O   UNL     1       0.617   3.015  20.827  0.00  0.00    +0.000 OA
ATOM     10  H   UNL     1       0.013   3.724  21.106  0.00  0.00    +0.000 HD
ENDBRANCH   6   9
BRANCH   8  11
ATOM     11  O   UNL     1       5.132   2.388  19.606  0.00  0.00    +0.000 OA
ATOM     12  H   UNL     1       5.799   2.521  20.302  0.00  0.00    +0.000 HD
ENDBRANCH   8  11
ENDBRANCH   2   3
BRANCH   2  13
ATOM     13  C   UNL     1       5.530   6.149  17.890  0.00  0.00    +0.000 C 
BRANCH  13  14
ATOM     14  C   UNL     1       5.791   5.426  16.588  0.00  0.00    +0.000 A 
ATOM     15  C   UNL     1       4.783   4.609  16.047  0.00  0.00    +0.000 A 
ATOM     16  C   UNL     1       5.003   3.889  14.870  0.00  0.00    +0.000 A 
ATOM     17  C   UNL     1       6.229   3.996  14.225  0.00  0.00    +0.000 A 
ATOM     18  C   UNL     1       7.226   4.823  14.725  0.00  0.00    +0.000 A 
ATOM     19  C   UNL     1       7.005   5.547  15.898  0.00  0.00    +0.000 A 
BRANCH  17  20
ATOM     20  O   UNL     1       6.494   3.295  13.085  0.00  0.00    +0.000 OA
ATOM     21  H   UNL     1       7.313   2.793  13.218  0.00  0.00    +0.000 HD
ENDBRANCH  17  20
ENDBRANCH  13  14
ENDBRANCH   2  13
TORSDOF 6
ENDMDL
MODEL 2
REMARK VINA RESULT:      -7.1      2.202      6.018
REMARK  Name = 
REMARK  6 active torsions:
REMARK  status: ('A' for Active; 'I' for Inactive)
REMARK    1  A    between atoms: C_2  and  C_3
REMARK    2  A    between atoms: C_2  and  C_11
REMARK    3  A    between atoms: C_3  and  C_4
REMARK    4  A    between atoms: C_7  and  O_8
REMARK    5  A    between atoms: C_14  and  O_15
REMARK    6  A    between atoms: C_17  and  O_18
REMARK                            x       y       z     vdW  Elec       q    Type
REMARK                         _______ _______ _______ _____ _____    ______ ____
ROOT
ATOM      1  O   UNL     1       3.638   1.896  17.807  0.00  0.00    +0.000 OA
ATOM      2  C   UNL     1       3.504   3.077  17.477  0.00  0.00    +0.000 C 
ENDROOT
BRANCH   2   3
ATOM      3  C   UNL     1       4.679   3.789  16.892  0.00  0.00    +0.000 A 
ATOM      4  C   UNL     1       4.602   4.129  15.531  0.00  0.00    +0.000 A 
ATOM      5  C   UNL     1       5.654   4.797  14.898  0.00  0.00    +0.000 A 
ATOM      6  C   UNL     1       6.795   5.111  15.628  0.00  0.00    +0.000 A 
ATOM      7  C   UNL     1       6.901   4.768  16.970  0.00  0.00    +0.000 A 
ATOM      8  C   UNL     1       5.843   4.110  17.601  0.00  0.00    +0.000 A 
BRANCH   6   9
ATOM      9  O   UNL     1       7.849   5.762  15.062  0.00  0.00    +0.000 OA
ATOM     10  H   UNL     1       8.384   6.163  15.769  0.00  0.00    +0.000 HD
ENDBRANCH   6   9
BRANCH   8  11
ATOM     11  O   UNL     1       5.983   3.778  18.915  0.00  0.00    +0.000 OA
ATOM     12  H   UNL     1       6.384   4.517  19.403  0.00  0.00    +0.000 HD
ENDBRANCH   8  11
ENDBRANCH   2   3
BRANCH   2  13
ATOM     13  C   UNL     1       2.164   3.779  17.596  0.00  0.00    +0.000 C 
BRANCH  13  14
ATOM     14  C   UNL     1       2.125   4.953  18.549  0.00  0.00    +0.000 A 
ATOM     15  C   UNL     1       1.698   4.744  19.872  0.00  0.00    +0.000 A 
ATOM     16  C   UNL     1       1.605   5.811  20.768  0.00  0.00    +0.000 A 
ATOM     17  C   UNL     1       1.953   7.088  20.346  0.00  0.00    +0.000 A 
ATOM     18  C   UNL     1       2.410   7.310  19.053  0.00  0.00    +0.000 A 
ATOM     19  C   UNL     1       2.508   6.243  18.159  0.00  0.00    +0.000 A 
BRANCH  17  20
ATOM     20  O   UNL     1       1.858   8.162  21.181  0.00  0.00    +0.000 OA
ATOM     21  H   UNL     1       1.369   7.891  21.975  0.00  0.00    +0.000 HD
ENDBRANCH  17  20
ENDBRANCH  13  14
ENDBRANCH   2  13
TORSDOF 6
ENDMDL
MODEL 3
REMARK VINA RESULT:      -7.0      1.938      5.960
REMARK  Name = 
REMARK  6 active torsions:
REMARK  status: ('A' for Active; 'I' for Inactive)
REMARK    1  A    between atoms: C_2  and  C_3
REMARK    2  A    between atoms: C_2  and  C_11
REMARK    3  A    between atoms: C_3  and  C_4
REMARK    4  A    between atoms: C_7  and  O_8
REMARK    5  A    between atoms: C_14  and  O_15
REMARK    6  A    between atoms: C_17  and  O_18
REMARK                            x       y       z     vdW  Elec       q    Type
REMARK                         _______ _______ _______ _____ _____    ______ ____
ROOT
ATOM      1  O   UNL     1       4.451   3.865  16.098  0.00  0.00    +0.000 OA
ATOM      2  C   UNL     1       4.268   4.663  17.020  0.00  0.00    +0.000 C 
ENDROOT
BRANCH   2   3
ATOM      3  C   UNL     1       5.453   5.371  17.592  0.00  0.00    +0.000 A 
ATOM      4  C   UNL     1       5.879   6.534  16.928  0.00  0.00    +0.000 A 
ATOM      5  C   UNL     1       6.978   7.262  17.392  0.00  0.00    +0.000 A 
ATOM      6  C   UNL     1       7.663   6.813  18.516  0.00  0.00    +0.000 A 
ATOM      7  C   UNL     1       7.271   5.657  19.176  0.00  0.00    +0.000 A 
ATOM      8  C   UNL     1       6.166   4.938  18.716  0.00  0.00    +0.000 A 
BRANCH   6   9
ATOM      9  O   UNL     1       8.740   7.485  19.011  0.00  0.00    +0.000 OA
ATOM     10  H   UNL     1       8.923   8.247  18.436  0.00  0.00    +0.000 HD
ENDBRANCH   6   9
BRANCH   8  11
ATOM     11  O   UNL     1       5.813   3.801  19.381  0.00  0.00    +0.000 OA
ATOM     12  H   UNL     1       4.855   3.798  19.548  0.00  0.00    +0.000 HD
ENDBRANCH   8  11
ENDBRANCH   2   3
BRANCH   2  13
ATOM     13  C   UNL     1       2.872   4.977  17.522  0.00  0.00    +0.000 C 
BRANCH  13  14
ATOM     14  C   UNL     1       2.488   4.327  18.833  0.00  0.00    +0.000 A 
ATOM     15  C   UNL     1       2.060   2.988  18.831  0.00  0.00    +0.000 A 
ATOM     16  C   UNL     1       1.655   2.367  20.014  0.00  0.00    +0.000 A 
ATOM     17  C   UNL     1       1.689   3.081  21.205  0.00  0.00    +0.000 A 
ATOM     18  C   UNL     1       2.141   4.395  21.234  0.00  0.00    +0.000 A 
ATOM     19  C   UNL     1       2.551   5.014  20.053  0.00  0.00    +0.000 A 
BRANCH  17  20
ATOM     20  O   UNL     1       1.283   2.521  22.380  0.00  0.00    +0.000 OA
ATOM     21  H   UNL     1       1.785   2.929  23.104  0.00  0.00    +0.000 HD
ENDBRANCH  17  20
ENDBRANCH  13  14
ENDBRANCH   2  13
TORSDOF 6
ENDMDL
MODEL 4
REMARK VINA RESULT:      -7.0      2.195      2.990
REMARK  Name = 
REMARK  6 active torsions:
REMARK  status: ('A' for Active; 'I' for Inactive)
REMARK    1  A    between atoms: C_2  and  C_3
REMARK    2  A    between atoms: C_2  and  C_11
REMARK    3  A    between atoms: C_3  and  C_4
REMARK    4  A    between atoms: C_7  and  O_8
REMARK    5  A    between atoms: C_14  and  O_15
REMARK    6  A    between atoms: C_17  and  O_18
REMARK                            x       y       z     vdW  Elec       q    Type
REMARK                         _______ _______ _______ _____ _____    ______ ____
ROOT
ATOM      1  O   UNL     1       2.083   7.536  19.755  0.00  0.00    +0.000 OA
ATOM      2  C   UNL     1       2.573   6.754  18.937  0.00  0.00    +0.000 C 
ENDROOT
BRANCH   2   3
ATOM      3  C   UNL     1       2.200   5.310  19.023  0.00  0.00    +0.000 A 
ATOM      4  C   UNL     1       1.862   4.669  17.819  0.00  0.00    +0.000 A 
ATOM      5  C   UNL     1       1.501   3.319  17.803  0.00  0.00    +0.000 A 
ATOM      6  C   UNL     1       1.461   2.614  19.000  0.00  0.00    +0.000 A 
ATOM      7  C   UNL     1       1.772   3.232  20.204  0.00  0.00    +0.000 A 
ATOM      8  C   UNL     1       2.143   4.578  20.215  0.00  0.00    +0.000 A 
BRANCH   6   9
ATOM      9  O   UNL     1       1.116   1.296  19.042  0.00  0.00    +0.000 OA
ATOM     10  H   UNL     1       1.123   1.002  19.969  0.00  0.00    +0.000 HD
ENDBRANCH   6   9
BRANCH   8  11
ATOM     11  O   UNL     1       2.433   5.158  21.414  0.00  0.00    +0.000 OA
ATOM     12  H   UNL     1       3.170   4.687  21.840  0.00  0.00    +0.000 HD
ENDBRANCH   8  11
ENDBRANCH   2   3
BRANCH   2  13
ATOM     13  C   UNL     1       3.479   7.246  17.824  0.00  0.00    +0.000 C 
BRANCH  13  14
ATOM     14  C   UNL     1       4.742   6.442  17.609  0.00  0.00    +0.000 A 
ATOM     15  C   UNL     1       5.230   6.275  16.301  0.00  0.00    +0.000 A 
ATOM     16  C   UNL     1       6.367   5.502  16.057  0.00  0.00    +0.000 A 
ATOM     17  C   UNL     1       7.027   4.904  17.124  0.00  0.00    +0.000 A 
ATOM     18  C   UNL     1       6.580   5.084  18.427  0.00  0.00    +0.000 A 
ATOM     19  C   UNL     1       5.447   5.862  18.672  0.00  0.00    +0.000 A 
BRANCH  17  20
ATOM     20  O   UNL     1       8.128   4.124  16.930  0.00  0.00    +0.000 OA
ATOM     21  H   UNL     1       7.935   3.493  16.219  0.00  0.00    +0.000 HD
ENDBRANCH  17  20
ENDBRANCH  13  14
ENDBRANCH   2  13
TORSDOF 6
ENDMDL
MODEL 5
REMARK VINA RESULT:      -7.0      2.182      6.253
REMARK  Name = 
REMARK  6 active torsions:
REMARK  status: ('A' for Active; 'I' for Inactive)
REMARK    1  A    between atoms: C_2  and  C_3
REMARK    2  A    between atoms: C_2  and  C_11
REMARK    3  A    between atoms: C_3  and  C_4
REMARK    4  A    between atoms: C_7  and  O_8
REMARK    5  A    between atoms: C_14  and  O_15
REMARK    6  A    between atoms: C_17  and  O_18
REMARK                            x       y       z     vdW  Elec       q    Type
REMARK                         _______ _______ _______ _____ _____    ______ ____
ROOT
ATOM      1  O   UNL     1       4.700   3.466  16.477  0.00  0.00    +0.000 OA
ATOM      2  C   UNL     1       4.457   4.449  17.182  0.00  0.00    +0.000 C 
ENDROOT
BRANCH   2   3
ATOM      3  C   UNL     1       5.597   5.314  17.609  0.00  0.00    +0.000 A 
ATOM      4  C   UNL     1       6.220   4.989  18.827  0.00  0.00    +0.000 A 
ATOM      5  C   UNL     1       7.294   5.742  19.306  0.00  0.00    +0.000 A 
ATOM      6  C   UNL     1       7.736   6.836  18.571  0.00  0.00    +0.000 A 
ATOM      7  C   UNL     1       7.124   7.188  17.375  0.00  0.00    +0.000 A 
ATOM      8  C   UNL     1       6.057   6.426  16.895  0.00  0.00    +0.000 A 
BRANCH   6   9
ATOM      9  O   UNL     1       8.780   7.604  18.992  0.00  0.00    +0.000 OA
ATOM     10  H   UNL     1       8.522   8.059  19.812  0.00  0.00    +0.000 HD
ENDBRANCH   6   9
BRANCH   8  11
ATOM     11  O   UNL     1       5.472   6.804  15.723  0.00  0.00    +0.000 OA
ATOM     12  H   UNL     1       4.852   6.116  15.425  0.00  0.00    +0.000 HD
ENDBRANCH   8  11
ENDBRANCH   2   3
BRANCH   2  13
ATOM     13  C   UNL     1       3.033   4.817  17.553  0.00  0.00    +0.000 C 
BRANCH  13  14
ATOM     14  C   UNL     1       2.511   4.194  18.829  0.00  0.00    +0.000 A 
ATOM     15  C   UNL     1       2.678   4.882  20.043  0.00  0.00    +0.000 A 
ATOM     16  C   UNL     1       2.251   4.319  21.247  0.00  0.00    +0.000 A 
ATOM     17  C   UNL     1       1.641   3.070  21.237  0.00  0.00    +0.000 A 
ATOM     18  C   UNL     1       1.436   2.388  20.044  0.00  0.00    +0.000 A 
ATOM     19  C   UNL     1       1.859   2.954  18.840  0.00  0.00    +0.000 A 
BRANCH  17  20
ATOM     20  O   UNL     1       1.227   2.474  22.391  0.00  0.00    +0.000 OA
ATOM     21  H   UNL     1       0.375   2.041  22.224  0.00  0.00    +0.000 HD
ENDBRANCH  17  20
ENDBRANCH  13  14
ENDBRANCH   2  13
TORSDOF 6
ENDMDL
MODEL 6
REMARK VINA RESULT:      -7.0      2.160      5.955
REMARK  Name = 
REMARK  6 active torsions:
REMARK  status: ('A' for Active; 'I' for Inactive)
REMARK    1  A    between atoms: C_2  and  C_3
REMARK    2  A    between atoms: C_2  and  C_11
REMARK    3  A    between atoms: C_3  and  C_4
REMARK    4  A    between atoms: C_7  and  O_8
REMARK    5  A    between atoms: C_14  and  O_15
REMARK    6  A    between atoms: C_17  and  O_18
REMARK                            x       y       z     vdW  Elec       q    Type
REMARK                         _______ _______ _______ _____ _____    ______ ____
ROOT
ATOM      1  O   UNL     1       3.431   7.948  17.815  0.00  0.00    +0.000 OA
ATOM      2  C   UNL     1       3.441   6.716  17.750  0.00  0.00    +0.000 C 
ENDROOT
BRANCH   2   3
ATOM      3  C   UNL     1       4.759   6.020  17.665  0.00  0.00    +0.000 A 
ATOM      4  C   UNL     1       5.198   5.347  18.818  0.00  0.00    +0.000 A 
ATOM      5  C   UNL     1       6.419   4.667  18.831  0.00  0.00    +0.000 A 
ATOM      6  C   UNL     1       7.211   4.676  17.689  0.00  0.00    +0.000 A 
ATOM      7  C   UNL     1       6.807   5.350  16.544  0.00  0.00    +0.000 A 
ATOM      8  C   UNL     1       5.582   6.019  16.532  0.00  0.00    +0.000 A 
BRANCH   6   9
ATOM      9  O   UNL     1       8.410   4.029  17.647  0.00  0.00    +0.000 OA
ATOM     10  H   UNL     1       8.269   3.137  17.286  0.00  0.00    +0.000 HD
ENDBRANCH   6   9
BRANCH   8  11
ATOM     11  O   UNL     1       5.219   6.680  15.396  0.00  0.00    +0.000 OA
ATOM     12  H   UNL     1       5.624   7.564  15.383  0.00  0.00    +0.000 HD
ENDBRANCH   8  11
ENDBRANCH   2   3
BRANCH   2  13
ATOM     13  C   UNL     1       2.155   5.915  17.824  0.00  0.00    +0.000 C 
BRANCH  13  14
ATOM     14  C   UNL     1       2.054   4.950  18.984  0.00  0.00    +0.000 A 
ATOM     15  C   UNL     1       1.820   3.589  18.720  0.00  0.00    +0.000 A 
ATOM     16  C   UNL     1       1.676   2.674  19.766  0.00  0.00    +0.000 A 
ATOM     17  C   UNL     1       1.778   3.118  21.079  0.00  0.00    +0.000 A 
ATOM     18  C   UNL     1       2.041   4.453  21.360  0.00  0.00    +0.000 A 
ATOM     19  C   UNL     1       2.192   5.366  20.315  0.00  0.00    +0.000 A 
BRANCH  17  20
ATOM     20  O   UNL     1       1.623   2.264  22.131  0.00  0.00    +0.000 OA
ATOM     21  H   UNL     1       2.494   1.909  22.368  0.00  0.00    +0.000 HD
ENDBRANCH  17  20
ENDBRANCH  13  14
ENDBRANCH   2  13
TORSDOF 6
ENDMDL
MODEL 7
REMARK VINA RESULT:      -6.9      1.525      5.509
REMARK  Name = 
REMARK  6 active torsions:
REMARK  status: ('A' for Active; 'I' for Inactive)
REMARK    1  A    between atoms: C_2  and  C_3
REMARK    2  A    between atoms: C_2  and  C_11
REMARK    3  A    between atoms: C_3  and  C_4
REMARK    4  A    between atoms: C_7  and  O_8
REMARK    5  A    between atoms: C_14  and  O_15
REMARK    6  A    between atoms: C_17  and  O_18
REMARK                            x       y       z     vdW  Elec       q    Type
REMARK                         _______ _______ _______ _____ _____    ______ ____
ROOT
ATOM      1  O   UNL     1       6.677   5.084  19.788  0.00  0.00    +0.000 OA
ATOM      2  C   UNL     1       5.797   5.337  18.962  0.00  0.00    +0.000 C 
ENDROOT
BRANCH   2   3
ATOM      3  C   UNL     1       6.121   5.190  17.512  0.00  0.00    +0.000 A 
ATOM      4  C   UNL     1       5.178   5.690  16.597  0.00  0.00    +0.000 A 
ATOM      5  C   UNL     1       5.396   5.597  15.220  0.00  0.00    +0.000 A 
ATOM      6  C   UNL     1       6.556   4.987  14.757  0.00  0.00    +0.000 A 
ATOM      7  C   UNL     1       7.493   4.470  15.642  0.00  0.00    +0.000 A 
ATOM      8  C   UNL     1       7.276   4.573  17.018  0.00  0.00    +0.000 A 
BRANCH   6   9
ATOM      9  O   UNL     1       6.819   4.871  13.425  0.00  0.00    +0.000 OA
ATOM     10  H   UNL     1       7.628   5.373  13.223  0.00  0.00    +0.000 HD
ENDBRANCH   6   9
BRANCH   8  11
ATOM     11  O   UNL     1       8.209   4.046  17.859  0.00  0.00    +0.000 OA
ATOM     12  H   UNL     1       9.085   4.068  17.437  0.00  0.00    +0.000 HD
ENDBRANCH   8  11
ENDBRANCH   2   3
BRANCH   2  13
ATOM     13  C   UNL     1       4.396   5.721  19.400  0.00  0.00    +0.000 C 
BRANCH  13  14
ATOM     14  C   UNL     1       3.328   4.680  19.154  0.00  0.00    +0.000 A 
ATOM     15  C   UNL     1       3.476   3.403  19.723  0.00  0.00    +0.000 A 
ATOM     16  C   UNL     1       2.534   2.400  19.482  0.00  0.00    +0.000 A 
ATOM     17  C   UNL     1       1.433   2.678  18.681  0.00  0.00    +0.000 A 
ATOM     18  C   UNL     1       1.251   3.943  18.136  0.00  0.00    +0.000 A 
ATOM     19  C   UNL     1       2.189   4.946  18.382  0.00  0.00    +0.000 A 
BRANCH  17  20
ATOM     20  O   UNL     1       0.500   1.724  18.402  0.00  0.00    +0.000 OA
ATOM     21  H   UNL     1       0.837   0.866  18.707  0.00  0.00    +0.000 HD
ENDBRANCH  17  20
ENDBRANCH  13  14
ENDBRANCH   2  13
TORSDOF 6
ENDMDL
MODEL 8
REMARK VINA RESULT:      -6.9      1.491      5.828
REMARK  Name = 
REMARK  6 active torsions:
REMARK  status: ('A' for Active; 'I' for Inactive)
REMARK    1  A    between atoms: C_2  and  C_3
REMARK    2  A    between atoms: C_2  and  C_11
REMARK    3  A    between atoms: C_3  and  C_4
REMARK    4  A    between atoms: C_7  and  O_8
REMARK    5  A    between atoms: C_14  and  O_15
REMARK    6  A    between atoms: C_17  and  O_18
REMARK                            x       y       z     vdW  Elec       q    Type
REMARK                         _______ _______ _______ _____ _____    ______ ____
ROOT
ATOM      1  O   UNL     1       5.987   5.489  19.655  0.00  0.00    +0.000 OA
ATOM      2  C   UNL     1       5.269   5.741  18.685  0.00  0.00    +0.000 C 
ENDROOT
BRANCH   2   3
ATOM      3  C   UNL     1       5.781   5.419  17.319  0.00  0.00    +0.000 A 
ATOM      4  C   UNL     1       5.028   5.892  16.231  0.00  0.00    +0.000 A 
ATOM      5  C   UNL     1       5.431   5.639  14.917  0.00  0.00    +0.000 A 
ATOM      6  C   UNL     1       6.584   4.896  14.692  0.00  0.00    +0.000 A 
ATOM      7  C   UNL     1       7.333   4.402  15.752  0.00  0.00    +0.000 A 
ATOM      8  C   UNL     1       6.932   4.666  17.064  0.00  0.00    +0.000 A 
BRANCH   6   9
ATOM      9  O   UNL     1       7.022   4.621  13.432  0.00  0.00    +0.000 OA
ATOM     10  H   UNL     1       7.878   4.162  13.493  0.00  0.00    +0.000 HD
ENDBRANCH   6   9
BRANCH   8  11
ATOM     11  O   UNL     1       7.684   4.159  18.082  0.00  0.00    +0.000 OA
ATOM     12  H   UNL     1       7.155   4.120  18.897  0.00  0.00    +0.000 HD
ENDBRANCH   8  11
ENDBRANCH   2   3
BRANCH   2  13
ATOM     13  C   UNL     1       3.870   6.301  18.867  0.00  0.00    +0.000 C 
BRANCH  13  14
ATOM     14  C   UNL     1       2.781   5.274  19.085  0.00  0.00    +0.000 A 
ATOM     15  C   UNL     1       2.264   5.093  20.380  0.00  0.00    +0.000 A 
ATOM     16  C   UNL     1       1.291   4.124  20.631  0.00  0.00    +0.000 A 
ATOM     17  C   UNL     1       0.822   3.342  19.582  0.00  0.00    +0.000 A 
ATOM     18  C   UNL     1       1.295   3.528  18.289  0.00  0.00    +0.000 A 
ATOM     19  C   UNL     1       2.264   4.500  18.038  0.00  0.00    +0.000 A 
BRANCH  17  20
ATOM     20  O   UNL     1      -0.113   2.370  19.785  0.00  0.00    +0.000 OA
ATOM     21  H   UNL     1       0.228   1.536  19.423  0.00  0.00    +0.000 HD
ENDBRANCH  17  20
ENDBRANCH  13  14
ENDBRANCH   2  13
TORSDOF 6
ENDMDL
MODEL 9
REMARK VINA RESULT:      -6.9      2.326      5.672
REMARK  Name = 
REMARK  6 active torsions:
REMARK  status: ('A' for Active; 'I' for Inactive)
REMARK    1  A    between atoms: C_2  and  C_3
REMARK    2  A    between atoms: C_2  and  C_11
REMARK    3  A    between atoms: C_3  and  C_4
REMARK    4  A    between atoms: C_7  and  O_8
REMARK    5  A    between atoms: C_14  and  O_15
REMARK    6  A    between atoms: C_17  and  O_18
REMARK                            x       y       z     vdW  Elec       q    Type
REMARK                         _______ _______ _______ _____ _____    ______ ____
ROOT
ATOM      1  O   UNL     1       3.352   8.086  17.341  0.00  0.00    +0.000 OA
ATOM      2  C   UNL     1       3.573   7.085  18.026  0.00  0.00    +0.000 C 
ENDROOT
BRANCH   2   3
ATOM      3  C   UNL     1       4.818   6.304  17.763  0.00  0.00    +0.000 A 
ATOM      4  C   UNL     1       5.374   5.610  18.852  0.00  0.00    +0.000 A 
ATOM      5  C   UNL     1       6.539   4.853  18.699  0.00  0.00    +0.000 A 
ATOM      6  C   UNL     1       7.158   4.805  17.456  0.00  0.00    +0.000 A 
ATOM      7  C   UNL     1       6.637   5.497  16.371  0.00  0.00    +0.000 A 
ATOM      8  C   UNL     1       5.467   6.245  16.525  0.00  0.00    +0.000 A 
BRANCH   6   9
ATOM      9  O   UNL     1       8.295   4.081  17.252  0.00  0.00    +0.000 OA
ATOM     10  H   UNL     1       9.033   4.696  17.104  0.00  0.00    +0.000 HD
ENDBRANCH   6   9
BRANCH   8  11
ATOM     11  O   UNL     1       4.988   6.921  15.443  0.00  0.00    +0.000 OA
ATOM     12  H   UNL     1       5.079   6.375  14.644  0.00  0.00    +0.000 HD
ENDBRANCH   8  11
ENDBRANCH   2   3
BRANCH   2  13
ATOM     13  C   UNL     1       2.642   6.686  19.156  0.00  0.00    +0.000 C 
BRANCH  13  14
ATOM     14  C   UNL     1       2.030   5.307  19.040  0.00  0.00    +0.000 A 
ATOM     15  C   UNL     1       1.587   4.657  20.205  0.00  0.00    +0.000 A 
ATOM     16  C   UNL     1       1.059   3.366  20.144  0.00  0.00    +0.000 A 
ATOM     17  C   UNL     1       0.958   2.728  18.913  0.00  0.00    +0.000 A 
ATOM     18  C   UNL     1       1.359   3.366  17.746  0.00  0.00    +0.000 A 
ATOM     19  C   UNL     1       1.882   4.658  17.807  0.00  0.00    +0.000 A 
BRANCH  17  20
ATOM     20  O   UNL     1       0.467   1.460  18.810  0.00  0.00    +0.000 OA
ATOM     21  H   UNL     1       1.073   0.858  19.272  0.00  0.00    +0.000 HD
ENDBRANCH  17  20
ENDBRANCH  13  14
ENDBRANCH   2  13
TORSDOF 6
ENDMDL
