MODEL 1
REMARK VINA RESULT:      -9.0      0.000      0.000
REMARK  Name = 
REMARK  7 active torsions:
REMARK  status: ('A' for Active; 'I' for Inactive)
REMARK    1  A    between atoms: C_1  and  C_2
REMARK    2  A    between atoms: C_2  and  N_3
REMARK    3  A    between atoms: C_2  and  C_25
REMARK    4  A    between atoms: N_6  and  C_7
REMARK    5  A    between atoms: C_11  and  O_12
REMARK    6  A    between atoms: O_12  and  C_13
REMARK    7  A    between atoms: C_13  and  C_14
REMARK                            x       y       z     vdW  Elec       q    Type
REMARK                         _______ _______ _______ _____ _____    ______ ____
ROOT
ATOM      1  C   UNL     1       2.472   7.337  19.135  0.00  0.00    +0.000 A 
ATOM      2  N   UNL     1       3.124   7.563  17.963  0.00  0.00    +0.000 NA
ATOM      3  C   UNL     1       3.999   6.632  17.484  0.00  0.00    +0.000 A 
ATOM      4  C   UNL     1       4.178   5.423  18.157  0.00  0.00    +0.000 A 
ATOM      5  C   UNL     1       4.954   4.247  18.023  0.00  0.00    +0.000 A 
ATOM      6  N   UNL     1       4.706   3.346  18.976  0.00  0.00    +0.000 NA
ATOM      7  N   UNL     1       3.774   3.946  19.741  0.00  0.00    +0.000 N 
ATOM      8  C   UNL     1       3.443   5.202  19.318  0.00  0.00    +0.000 A 
ATOM      9  C   UNL     1       2.573   6.140  19.842  0.00  0.00    +0.000 A 
ATOM     10  F   UNL     1       1.835   5.860  20.925  0.00  0.00    +0.000 F 
ATOM     11  H   UNL     1       3.409   3.451  20.550  0.00  0.00    +0.000 HD
ENDROOT
BRANCH   1  15
ATOM     12  N   UNL     1       0.511  10.353  19.367  0.00  0.00    +0.000 N 
ATOM     13  C   UNL     1       1.305   9.431  18.737  0.00  0.00    +0.000 C 
ATOM     14  O   UNL     1       1.598   9.518  17.551  0.00  0.00    +0.000 OA
ATOM     15  N   UNL     1       1.664   8.399  19.572  0.00  0.00    +0.000 N 
ATOM     16  H   UNL     1       0.456  10.341  20.374  0.00  0.00    +0.000 HD
ATOM     17  H   UNL     1       0.955   8.107  20.224  0.00  0.00    +0.000 HD
BRANCH  12  19
ATOM     18  C   UNL     1       0.086  12.805  19.418  0.00  0.00    +0.000 C 
ATOM     19  C   UNL     1      -0.056  11.488  18.649  0.00  0.00    +0.000 C 
BRANCH  19  20
ATOM     20  C   UNL     1      -1.503  11.205  18.289  0.00  0.00    +0.000 A 
ATOM     21  C   UNL     1      -1.802  10.208  17.348  0.00  0.00    +0.000 A 
ATOM     22  C   UNL     1      -3.125   9.928  17.001  0.00  0.00    +0.000 A 
ATOM     23  C   UNL     1      -4.167  10.640  17.594  0.00  0.00    +0.000 A 
ATOM     24  C   UNL     1      -3.886  11.631  18.531  0.00  0.00    +0.000 A 
ATOM     25  C   UNL     1      -2.564  11.912  18.879  0.00  0.00    +0.000 A 
ENDBRANCH  19  20
ENDBRANCH  12  19
ENDBRANCH   1  15
BRANCH   5  26
ATOM     26  O   UNL     1       5.854   3.965  17.051  0.00  0.00    +0.000 OA
BRANCH  26  27
ATOM     27  C   UNL     1       5.246   3.774  15.767  0.00  0.00    +0.000 C 
BRANCH  27  28
ATOM     28  C   UNL     1       6.168   4.146  14.635  0.00  0.00    +0.000 A 
ATOM     29  C   UNL     1       5.959   3.635  13.348  0.00  0.00    +0.000 A 
ATOM     30  C   UNL     1       6.746   4.076  12.289  0.00  0.00    +0.000 A 
ATOM     31  C   UNL     1       7.723   5.022  12.548  0.00  0.00    +0.000 A 
ATOM     32  N   UNL     1       7.949   5.546  13.772  0.00  0.00    +0.000 NA
ATOM     33  C   UNL     1       7.164   5.101  14.782  0.00  0.00    +0.000 A 
ENDBRANCH  27  28
ENDBRANCH  26  27
ENDBRANCH   5  26
TORSDOF 6
ENDMDL
MODEL 2
REMARK VINA RESULT:      -8.9      2.561     10.429
REMARK  Name = 
REMARK  7 active torsions:
REMARK  status: ('A' for Active; 'I' for Inactive)
REMARK    1  A    between atoms: C_1  and  C_2
REMARK    2  A    between atoms: C_2  and  N_3
REMARK    3  A    between atoms: C_2  and  C_25
REMARK    4  A    between atoms: N_6  and  C_7
REMARK    5  A    between atoms: C_11  and  O_12
REMARK    6  A    between atoms: O_12  and  C_13
REMARK    7  A    between atoms: C_13  and  C_14
REMARK                            x       y       z     vdW  Elec       q    Type
REMARK                         _______ _______ _______ _____ _____    ______ ____
ROOT
ATOM      1  C   UNL     1       1.790   8.056  20.088  0.00  0.00    +0.000 A 
ATOM      2  N   UNL     1       0.974   8.145  21.172  0.00  0.00    +0.000 NA
ATOM      3  C   UNL     1       0.056   9.151  21.249  0.00  0.00    +0.000 A 
ATOM      4  C   UNL     1      -0.094  10.049  20.192  0.00  0.00    +0.000 A 
ATOM      5  C   UNL     1      -0.874  11.187  19.878  0.00  0.00    +0.000 A 
ATOM      6  N   UNL     1      -0.622  11.675  18.661  0.00  0.00    +0.000 NA
ATOM      7  N   UNL     1       0.336  10.857  18.188  0.00  0.00    +0.000 N 
ATOM      8  C   UNL     1       0.715   9.886  19.070  0.00  0.00    +0.000 A 
ATOM      9  C   UNL     1       1.674   8.895  18.980  0.00  0.00    +0.000 A 
ATOM     10  F   UNL     1       2.386   8.731  17.855  0.00  0.00    +0.000 F 
ATOM     11  H   UNL     1       0.705  11.019  17.254  0.00  0.00    +0.000 HD
ENDROOT
BRANCH   1  15
ATOM     12  N   UNL     1       3.740   5.070  19.566  0.00  0.00    +0.000 N 
ATOM     13  C   UNL     1       2.704   5.936  19.333  0.00  0.00    +0.000 C 
ATOM     14  O   UNL     1       1.880   5.749  18.446  0.00  0.00    +0.000 OA
ATOM     15  N   UNL     1       2.751   7.035  20.157  0.00  0.00    +0.000 N 
ATOM     16  H   UNL     1       4.273   5.168  20.417  0.00  0.00    +0.000 HD
ATOM     17  H   UNL     1       3.675   7.381  20.361  0.00  0.00    +0.000 HD
BRANCH  12  19
ATOM     18  C   UNL     1       4.254   2.635  19.587  0.00  0.00    +0.000 C 
ATOM     19  C   UNL     1       3.937   3.878  18.751  0.00  0.00    +0.000 C 
BRANCH  19  20
ATOM     20  C   UNL     1       5.006   4.135  17.704  0.00  0.00    +0.000 A 
ATOM     21  C   UNL     1       4.705   3.951  16.345  0.00  0.00    +0.000 A 
ATOM     22  C   UNL     1       5.671   4.182  15.364  0.00  0.00    +0.000 A 
ATOM     23  C   UNL     1       6.949   4.603  15.729  0.00  0.00    +0.000 A 
ATOM     24  C   UNL     1       7.262   4.792  17.073  0.00  0.00    +0.000 A 
ATOM     25  C   UNL     1       6.297   4.561  18.055  0.00  0.00    +0.000 A 
ENDBRANCH  19  20
ENDBRANCH  12  19
ENDBRANCH   1  15
BRANCH   5  26
ATOM     26  O   UNL     1      -1.819  11.773  20.652  0.00  0.00    +0.000 OA
BRANCH  26  27
ATOM     27  C   UNL     1      -2.614  12.726  19.936  0.00  0.00    +0.000 C 
BRANCH  27  28
ATOM     28  C   UNL     1      -4.091  12.457  20.069  0.00  0.00    +0.000 A 
ATOM     29  C   UNL     1      -4.827  11.969  18.983  0.00  0.00    +0.000 A 
ATOM     30  C   UNL     1      -6.162  11.616  19.150  0.00  0.00    +0.000 A 
ATOM     31  C   UNL     1      -6.726  11.761  20.407  0.00  0.00    +0.000 A 
ATOM     32  N   UNL     1      -6.047  12.220  21.481  0.00  0.00    +0.000 NA
ATOM     33  C   UNL     1      -4.748  12.550  21.287  0.00  0.00    +0.000 A 
ENDBRANCH  27  28
ENDBRANCH  26  27
ENDBRANCH   5  26
TORSDOF 6
ENDMDL
MODEL 3
REMARK VINA RESULT:      -8.9      5.518      8.320
REMARK  Name = 
REMARK  7 active torsions:
REMARK  status: ('A' for Active; 'I' for Inactive)
REMARK    1  A    between atoms: C_1  and  C_2
REMARK    2  A    between atoms: C_2  and  N_3
REMARK    3  A    between atoms: C_2  and  C_25
REMARK    4  A    between atoms: N_6  and  C_7
REMARK    5  A    between atoms: C_11  and  O_12
REMARK    6  A    between atoms: O_12  and  C_13
REMARK    7  A    between atoms: C_13  and  C_14
REMARK                            x       y       z     vdW  Elec       q    Type
REMARK                         _______ _______ _______ _____ _____    ______ ____
ROOT
ATOM      1  C   UNL     1       7.663   6.622  18.417  0.00  0.00    +0.000 A 
ATOM      2  N   UNL     1       7.086   5.800  19.333  0.00  0.00    +0.000 NA
ATOM      3  C   UNL     1       6.176   4.867  18.930  0.00  0.00    +0.000 A 
ATOM      4  C   UNL     1       5.886   4.708  17.575  0.00  0.00    +0.000 A 
ATOM      5  C   UNL     1       5.042   3.912  16.764  0.00  0.00    +0.000 A 
ATOM      6  N   UNL     1       5.183   4.161  15.460  0.00  0.00    +0.000 NA
ATOM      7  N   UNL     1       6.114   5.133  15.425  0.00  0.00    +0.000 N 
ATOM      8  C   UNL     1       6.547   5.523  16.660  0.00  0.00    +0.000 A 
ATOM      9  C   UNL     1       7.449   6.497  17.045  0.00  0.00    +0.000 A 
ATOM     10  F   UNL     1       8.113   7.215  16.128  0.00  0.00    +0.000 F 
ATOM     11  H   UNL     1       6.405   5.502  14.524  0.00  0.00    +0.000 HD
ENDROOT
BRANCH   1  15
ATOM     12  N   UNL     1       9.381   9.689  19.212  0.00  0.00    +0.000 N 
ATOM     13  C   UNL     1       8.466   8.910  18.553  0.00  0.00    +0.000 C 
ATOM     14  O   UNL     1       7.671   9.374  17.744  0.00  0.00    +0.000 OA
ATOM     15  N   UNL     1       8.517   7.597  18.956  0.00  0.00    +0.000 N 
ATOM     16  H   UNL     1      10.128   9.239  19.719  0.00  0.00    +0.000 HD
ATOM     17  H   UNL     1       8.704   7.454  19.935  0.00  0.00    +0.000 HD
BRANCH  12  19
ATOM     18  C   UNL     1      10.717  11.565  18.269  0.00  0.00    +0.000 C 
ATOM     19  C   UNL     1       9.446  11.130  19.005  0.00  0.00    +0.000 C 
BRANCH  19  20
ATOM     20  C   UNL     1       9.292  11.854  20.330  0.00  0.00    +0.000 A 
ATOM     21  C   UNL     1       8.771  11.170  21.439  0.00  0.00    +0.000 A 
ATOM     22  C   UNL     1       8.622  11.815  22.668  0.00  0.00    +0.000 A 
ATOM     23  C   UNL     1       8.995  13.150  22.805  0.00  0.00    +0.000 A 
ATOM     24  C   UNL     1       9.516  13.842  21.715  0.00  0.00    +0.000 A 
ATOM     25  C   UNL     1       9.666  13.200  20.485  0.00  0.00    +0.000 A 
ENDBRANCH  19  20
ENDBRANCH  12  19
ENDBRANCH   1  15
BRANCH   5  26
ATOM     26  O   UNL     1       4.175   2.956  17.174  0.00  0.00    +0.000 OA
BRANCH  26  27
ATOM     27  C   UNL     1       2.865   3.472  17.446  0.00  0.00    +0.000 C 
BRANCH  27  28
ATOM     28  C   UNL     1       2.538   3.461  18.917  0.00  0.00    +0.000 A 
ATOM     29  C   UNL     1       1.410   4.133  19.402  0.00  0.00    +0.000 A 
ATOM     30  C   UNL     1       1.056   4.020  20.743  0.00  0.00    +0.000 A 
ATOM     31  C   UNL     1       1.844   3.232  21.564  0.00  0.00    +0.000 A 
ATOM     32  N   UNL     1       2.934   2.561  21.133  0.00  0.00    +0.000 NA
ATOM     33  C   UNL     1       3.250   2.687  19.822  0.00  0.00    +0.000 A 
ENDBRANCH  27  28
ENDBRANCH  26  27
ENDBRANCH   5  26
TORSDOF 6
ENDMDL
MODEL 4
REMARK VINA RESULT:      -8.8      2.518     10.300
REMARK  Name = 
REMARK  7 active torsions:
REMARK  status: ('A' for Active; 'I' for Inactive)
REMARK    1  A    between atoms: C_1  and  C_2
REMARK    2  A    between atoms: C_2  and  N_3
REMARK    3  A    between atoms: C_2  and  C_25
REMARK    4  A    between atoms: N_6  and  C_7
REMARK    5  A    between atoms: C_11  and  O_12
REMARK    6  A    between atoms: O_12  and  C_13
REMARK    7  A    between atoms: C_13  and  C_14
REMARK                            x       y       z     vdW  Elec       q    Type
REMARK                         _______ _______ _______ _____ _____    ______ ____
ROOT
ATOM      1  C   UNL     1       1.756   8.026  20.077  0.00  0.00    +0.000 A 
ATOM      2  N   UNL     1       0.884   8.094  21.117  0.00  0.00    +0.000 NA
ATOM      3  C   UNL     1      -0.052   9.087  21.155  0.00  0.00    +0.000 A 
ATOM      4  C   UNL     1      -0.159   9.992  20.099  0.00  0.00    +0.000 A 
ATOM      5  C   UNL     1      -0.938  11.122  19.755  0.00  0.00    +0.000 A 
ATOM      6  N   UNL     1      -0.630  11.624  18.557  0.00  0.00    +0.000 NA
ATOM      7  N   UNL     1       0.363  10.823  18.127  0.00  0.00    +0.000 N 
ATOM      8  C   UNL     1       0.710   9.850  19.020  0.00  0.00    +0.000 A 
ATOM      9  C   UNL     1       1.686   8.872  18.971  0.00  0.00    +0.000 A 
ATOM     10  F   UNL     1       2.456   8.729  17.884  0.00  0.00    +0.000 F 
ATOM     11  H   UNL     1       0.777  10.999  17.215  0.00  0.00    +0.000 HD
ENDROOT
BRANCH   1  15
ATOM     12  N   UNL     1       3.747   5.051  19.659  0.00  0.00    +0.000 N 
ATOM     13  C   UNL     1       2.707   5.900  19.387  0.00  0.00    +0.000 C 
ATOM     14  O   UNL     1       1.903   5.685  18.488  0.00  0.00    +0.000 OA
ATOM     15  N   UNL     1       2.726   7.017  20.187  0.00  0.00    +0.000 N 
ATOM     16  H   UNL     1       4.263   5.173  20.518  0.00  0.00    +0.000 HD
ATOM     17  H   UNL     1       3.642   7.377  20.402  0.00  0.00    +0.000 HD
BRANCH  12  19
ATOM     18  C   UNL     1       4.363   2.640  19.738  0.00  0.00    +0.000 C 
ATOM     19  C   UNL     1       3.973   3.844  18.874  0.00  0.00    +0.000 C 
BRANCH  19  20
ATOM     20  C   UNL     1       5.003   4.112  17.792  0.00  0.00    +0.000 A 
ATOM     21  C   UNL     1       6.290   4.542  18.149  0.00  0.00    +0.000 A 
ATOM     22  C   UNL     1       7.254   4.794  17.172  0.00  0.00    +0.000 A 
ATOM     23  C   UNL     1       6.946   4.614  15.825  0.00  0.00    +0.000 A 
ATOM     24  C   UNL     1       5.674   4.184  15.454  0.00  0.00    +0.000 A 
ATOM     25  C   UNL     1       4.708   3.932  16.430  0.00  0.00    +0.000 A 
ENDBRANCH  19  20
ENDBRANCH  12  19
ENDBRANCH   1  15
BRANCH   5  26
ATOM     26  O   UNL     1      -1.929  11.688  20.484  0.00  0.00    +0.000 OA
BRANCH  26  27
ATOM     27  C   UNL     1      -2.706  12.630  19.733  0.00  0.00    +0.000 C 
BRANCH  27  28
ATOM     28  C   UNL     1      -4.114  12.151  19.492  0.00  0.00    +0.000 A 
ATOM     29  C   UNL     1      -5.123  12.405  20.428  0.00  0.00    +0.000 A 
ATOM     30  C   UNL     1      -6.440  12.059  20.142  0.00  0.00    +0.000 A 
ATOM     31  C   UNL     1      -6.711  11.467  18.919  0.00  0.00    +0.000 A 
ATOM     32  N   UNL     1      -5.767  11.214  17.987  0.00  0.00    +0.000 NA
ATOM     33  C   UNL     1      -4.496  11.566  18.293  0.00  0.00    +0.000 A 
ENDBRANCH  27  28
ENDBRANCH  26  27
ENDBRANCH   5  26
TORSDOF 6
ENDMDL
MODEL 5
REMARK VINA RESULT:      -8.8      2.987     10.668
REMARK  Name = 
REMARK  7 active torsions:
REMARK  status: ('A' for Active; 'I' for Inactive)
REMARK    1  A    between atoms: C_1  and  C_2
REMARK    2  A    between atoms: C_2  and  N_3
REMARK    3  A    between atoms: C_2  and  C_25
REMARK    4  A    between atoms: N_6  and  C_7
REMARK    5  A    between atoms: C_11  and  O_12
REMARK    6  A    between atoms: O_12  and  C_13
REMARK    7  A    between atoms: C_13  and  C_14
REMARK                            x       y       z     vdW  Elec       q    Type
REMARK                         _______ _______ _______ _____ _____    ______ ____
ROOT
ATOM      1  C   UNL     1       1.733   8.052  20.020  0.00  0.00    +0.000 A 
ATOM      2  N   UNL     1       0.812   8.121  21.017  0.00  0.00    +0.000 NA
ATOM      3  C   UNL     1      -0.120   9.119  21.012  0.00  0.00    +0.000 A 
ATOM      4  C   UNL     1      -0.171  10.027  19.955  0.00  0.00    +0.000 A 
ATOM      5  C   UNL     1      -0.926  11.162  19.576  0.00  0.00    +0.000 A 
ATOM      6  N   UNL     1      -0.558  11.666  18.396  0.00  0.00    +0.000 NA
ATOM      7  N   UNL     1       0.452  10.861  18.013  0.00  0.00    +0.000 N 
ATOM      8  C   UNL     1       0.749   9.884  18.919  0.00  0.00    +0.000 A 
ATOM      9  C   UNL     1       1.722   8.902  18.915  0.00  0.00    +0.000 A 
ATOM     10  F   UNL     1       2.544   8.758  17.866  0.00  0.00    +0.000 F 
ATOM     11  H   UNL     1       0.910  11.038  17.123  0.00  0.00    +0.000 HD
ENDROOT
BRANCH   1  15
ATOM     12  N   UNL     1       3.729   5.068  19.692  0.00  0.00    +0.000 N 
ATOM     13  C   UNL     1       2.707   5.923  19.371  0.00  0.00    +0.000 C 
ATOM     14  O   UNL     1       1.947   5.714  18.434  0.00  0.00    +0.000 OA
ATOM     15  N   UNL     1       2.692   7.038  20.175  0.00  0.00    +0.000 N 
ATOM     16  H   UNL     1       4.202   5.185  20.575  0.00  0.00    +0.000 HD
ATOM     17  H   UNL     1       3.598   7.393  20.435  0.00  0.00    +0.000 HD
BRANCH  12  19
ATOM     18  C   UNL     1       4.371   2.665  19.791  0.00  0.00    +0.000 C 
ATOM     19  C   UNL     1       3.986   3.862  18.915  0.00  0.00    +0.000 C 
BRANCH  19  20
ATOM     20  C   UNL     1       5.038   4.140  17.856  0.00  0.00    +0.000 A 
ATOM     21  C   UNL     1       6.317   4.566  18.242  0.00  0.00    +0.000 A 
ATOM     22  C   UNL     1       7.301   4.827  17.286  0.00  0.00    +0.000 A 
ATOM     23  C   UNL     1       7.018   4.660  15.932  0.00  0.00    +0.000 A 
ATOM     24  C   UNL     1       5.753   4.236  15.532  0.00  0.00    +0.000 A 
ATOM     25  C   UNL     1       4.768   3.975  16.487  0.00  0.00    +0.000 A 
ENDBRANCH  19  20
ENDBRANCH  12  19
ENDBRANCH   1  15
BRANCH   5  26
ATOM     26  O   UNL     1      -1.949  11.731  20.258  0.00  0.00    +0.000 OA
BRANCH  26  27
ATOM     27  C   UNL     1      -1.522  12.392  21.456  0.00  0.00    +0.000 C 
BRANCH  27  28
ATOM     28  C   UNL     1      -2.671  12.719  22.373  0.00  0.00    +0.000 A 
ATOM     29  C   UNL     1      -3.588  13.723  22.038  0.00  0.00    +0.000 A 
ATOM     30  C   UNL     1      -4.708  13.936  22.836  0.00  0.00    +0.000 A 
ATOM     31  C   UNL     1      -4.880  13.133  23.951  0.00  0.00    +0.000 A 
ATOM     32  N   UNL     1      -4.024  12.149  24.302  0.00  0.00    +0.000 NA
ATOM     33  C   UNL     1      -2.946  11.963  23.503  0.00  0.00    +0.000 A 
ENDBRANCH  27  28
ENDBRANCH  26  27
ENDBRANCH   5  26
TORSDOF 6
ENDMDL
MODEL 6
REMARK VINA RESULT:      -8.7      5.411      8.252
REMARK  Name = 
REMARK  7 active torsions:
REMARK  status: ('A' for Active; 'I' for Inactive)
REMARK    1  A    between atoms: C_1  and  C_2
REMARK    2  A    between atoms: C_2  and  N_3
REMARK    3  A    between atoms: C_2  and  C_25
REMARK    4  A    between atoms: N_6  and  C_7
REMARK    5  A    between atoms: C_11  and  O_12
REMARK    6  A    between atoms: O_12  and  C_13
REMARK    7  A    between atoms: C_13  and  C_14
REMARK                            x       y       z     vdW  Elec       q    Type
REMARK                         _______ _______ _______ _____ _____    ______ ____
ROOT
ATOM      1  C   UNL     1       7.633   6.591  18.448  0.00  0.00    +0.000 A 
ATOM      2  N   UNL     1       7.041   5.818  19.398  0.00  0.00    +0.000 NA
ATOM      3  C   UNL     1       6.107   4.893  19.035  0.00  0.00    +0.000 A 
ATOM      4  C   UNL     1       5.804   4.691  17.688  0.00  0.00    +0.000 A 
ATOM      5  C   UNL     1       4.936   3.886  16.912  0.00  0.00    +0.000 A 
ATOM      6  N   UNL     1       5.075   4.083  15.599  0.00  0.00    +0.000 NA
ATOM      7  N   UNL     1       6.028   5.031  15.523  0.00  0.00    +0.000 N 
ATOM      8  C   UNL     1       6.479   5.456  16.740  0.00  0.00    +0.000 A 
ATOM      9  C   UNL     1       7.407   6.421  17.083  0.00  0.00    +0.000 A 
ATOM     10  F   UNL     1       8.082   7.088  16.137  0.00  0.00    +0.000 F 
ATOM     11  H   UNL     1       6.323   5.359  14.607  0.00  0.00    +0.000 HD
ENDROOT
BRANCH   1  15
ATOM     12  N   UNL     1       9.402   9.651  19.150  0.00  0.00    +0.000 N 
ATOM     13  C   UNL     1       8.458   8.874  18.533  0.00  0.00    +0.000 C 
ATOM     14  O   UNL     1       7.638   9.336  17.748  0.00  0.00    +0.000 OA
ATOM     15  N   UNL     1       8.513   7.564  18.947  0.00  0.00    +0.000 N 
ATOM     16  H   UNL     1      10.164   9.200  19.633  0.00  0.00    +0.000 HD
ATOM     17  H   UNL     1       8.734   7.430  19.920  0.00  0.00    +0.000 HD
BRANCH  12  19
ATOM     18  C   UNL     1      10.732  11.510  18.162  0.00  0.00    +0.000 C 
ATOM     19  C   UNL     1       9.472  11.090  18.925  0.00  0.00    +0.000 C 
BRANCH  19  20
ATOM     20  C   UNL     1       9.346  11.829  20.245  0.00  0.00    +0.000 A 
ATOM     21  C   UNL     1       9.723  13.178  20.324  0.00  0.00    +0.000 A 
ATOM     22  C   UNL     1       9.615  13.879  21.527  0.00  0.00    +0.000 A 
ATOM     23  C   UNL     1       9.125  13.241  22.665  0.00  0.00    +0.000 A 
ATOM     24  C   UNL     1       8.744  11.903  22.602  0.00  0.00    +0.000 A 
ATOM     25  C   UNL     1       8.851  11.200  21.400  0.00  0.00    +0.000 A 
ENDBRANCH  19  20
ENDBRANCH  12  19
ENDBRANCH   1  15
BRANCH   5  26
ATOM     26  O   UNL     1       4.048   2.968  17.362  0.00  0.00    +0.000 OA
BRANCH  26  27
ATOM     27  C   UNL     1       2.688   3.403  17.243  0.00  0.00    +0.000 C 
BRANCH  27  28
ATOM     28  C   UNL     1       2.203   4.117  18.478  0.00  0.00    +0.000 A 
ATOM     29  C   UNL     1       1.573   3.409  19.510  0.00  0.00    +0.000 A 
ATOM     30  C   UNL     1       1.234   4.059  20.693  0.00  0.00    +0.000 A 
ATOM     31  C   UNL     1       1.539   5.405  20.811  0.00  0.00    +0.000 A 
ATOM     32  N   UNL     1       2.153   6.119  19.843  0.00  0.00    +0.000 NA
ATOM     33  C   UNL     1       2.475   5.458  18.706  0.00  0.00    +0.000 A 
ENDBRANCH  27  28
ENDBRANCH  26  27
ENDBRANCH   5  26
TORSDOF 6
ENDMDL
MODEL 7
REMARK VINA RESULT:      -8.7      3.078     10.628
REMARK  Name = 
REMARK  7 active torsions:
REMARK  status: ('A' for Active; 'I' for Inactive)
REMARK    1  A    between atoms: C_1  and  C_2
REMARK    2  A    between atoms: C_2  and  N_3
REMARK    3  A    between atoms: C_2  and  C_25
REMARK    4  A    between atoms: N_6  and  C_7
REMARK    5  A    between atoms: C_11  and  O_12
REMARK    6  A    between atoms: O_12  and  C_13
REMARK    7  A    between atoms: C_13  and  C_14
REMARK                            x       y       z     vdW  Elec       q    Type
REMARK                         _______ _______ _______ _____ _____    ______ ____
ROOT
ATOM      1  C   UNL     1       1.858   7.931  20.051  0.00  0.00    +0.000 A 
ATOM      2  N   UNL     1       1.049   8.058  21.136  0.00  0.00    +0.000 NA
ATOM      3  C   UNL     1       0.167   9.098  21.206  0.00  0.00    +0.000 A 
ATOM      4  C   UNL     1       0.047   9.991  20.141  0.00  0.00    +0.000 A 
ATOM      5  C   UNL     1      -0.692  11.154  19.820  0.00  0.00    +0.000 A 
ATOM      6  N   UNL     1      -0.426  11.622  18.598  0.00  0.00    +0.000 NA
ATOM      7  N   UNL     1       0.502  10.766  18.130  0.00  0.00    +0.000 N 
ATOM      8  C   UNL     1       0.848   9.789  19.020  0.00  0.00    +0.000 A 
ATOM      9  C   UNL     1       1.770   8.764  18.936  0.00  0.00    +0.000 A 
ATOM     10  F   UNL     1       2.472   8.565  17.812  0.00  0.00    +0.000 F 
ATOM     11  H   UNL     1       0.873  10.907  17.194  0.00  0.00    +0.000 HD
ENDROOT
BRANCH   1  15
ATOM     12  N   UNL     1       3.740   4.906  19.506  0.00  0.00    +0.000 N 
ATOM     13  C   UNL     1       2.746   5.815  19.255  0.00  0.00    +0.000 C 
ATOM     14  O   UNL     1       1.966   5.692  18.319  0.00  0.00    +0.000 OA
ATOM     15  N   UNL     1       2.782   6.876  20.127  0.00  0.00    +0.000 N 
ATOM     16  H   UNL     1       4.229   4.951  20.386  0.00  0.00    +0.000 HD
ATOM     17  H   UNL     1       3.704   7.183  20.394  0.00  0.00    +0.000 HD
BRANCH  12  19
ATOM     18  C   UNL     1       4.270   2.474  19.446  0.00  0.00    +0.000 C 
ATOM     19  C   UNL     1       3.944   3.743  18.651  0.00  0.00    +0.000 C 
BRANCH  19  20
ATOM     20  C   UNL     1       5.010   4.040  17.612  0.00  0.00    +0.000 A 
ATOM     21  C   UNL     1       4.694   3.954  16.248  0.00  0.00    +0.000 A 
ATOM     22  C   UNL     1       5.657   4.224  15.274  0.00  0.00    +0.000 A 
ATOM     23  C   UNL     1       6.948   4.588  15.653  0.00  0.00    +0.000 A 
ATOM     24  C   UNL     1       7.277   4.680  17.003  0.00  0.00    +0.000 A 
ATOM     25  C   UNL     1       6.315   4.410  17.978  0.00  0.00    +0.000 A 
ENDBRANCH  19  20
ENDBRANCH  12  19
ENDBRANCH   1  15
BRANCH   5  26
ATOM     26  O   UNL     1      -1.613  11.780  20.591  0.00  0.00    +0.000 OA
BRANCH  26  27
ATOM     27  C   UNL     1      -1.024  12.634  21.580  0.00  0.00    +0.000 C 
BRANCH  27  28
ATOM     28  C   UNL     1      -2.016  13.070  22.627  0.00  0.00    +0.000 A 
ATOM     29  C   UNL     1      -3.029  12.204  23.054  0.00  0.00    +0.000 A 
ATOM     30  C   UNL     1      -3.866  12.576  24.102  0.00  0.00    +0.000 A 
ATOM     31  C   UNL     1      -3.663  13.810  24.696  0.00  0.00    +0.000 A 
ATOM     32  N   UNL     1      -2.692  14.669  24.319  0.00  0.00    +0.000 NA
ATOM     33  C   UNL     1      -1.890  14.277  23.300  0.00  0.00    +0.000 A 
ENDBRANCH  27  28
ENDBRANCH  26  27
ENDBRANCH   5  26
TORSDOF 6
ENDMDL
MODEL 8
REMARK VINA RESULT:      -8.7      2.751      4.353
REMARK  Name = 
REMARK  7 active torsions:
REMARK  status: ('A' for Active; 'I' for Inactive)
REMARK    1  A    between atoms: C_1  and  C_2
REMARK    2  A    between atoms: C_2  and  N_3
REMARK    3  A    between atoms: C_2  and  C_25
REMARK    4  A    between atoms: N_6  and  C_7
REMARK    5  A    between atoms: C_11  and  O_12
REMARK    6  A    between atoms: O_12  and  C_13
REMARK    7  A    between atoms: C_13  and  C_14
REMARK                            x       y       z     vdW  Elec       q    Type
REMARK                         _______ _______ _______ _____ _____    ______ ____
ROOT
ATOM      1  C   UNL     1       1.220   9.913  18.670  0.00  0.00    +0.000 A 
ATOM      2  N   UNL     1       1.889   9.463  17.575  0.00  0.00    +0.000 NA
ATOM      3  C   UNL     1       2.530   8.258  17.619  0.00  0.00    +0.000 A 
ATOM      4  C   UNL     1       2.446   7.459  18.759  0.00  0.00    +0.000 A 
ATOM      5  C   UNL     1       2.940   6.212  19.211  0.00  0.00    +0.000 A 
ATOM      6  N   UNL     1       2.513   5.892  20.435  0.00  0.00    +0.000 NA
ATOM      7  N   UNL     1       1.748   6.944  20.784  0.00  0.00    +0.000 N 
ATOM      8  C   UNL     1       1.697   7.925  19.836  0.00  0.00    +0.000 A 
ATOM      9  C   UNL     1       1.064   9.154  19.829  0.00  0.00    +0.000 A 
ATOM     10  F   UNL     1       0.298   9.535  20.861  0.00  0.00    +0.000 F 
ATOM     11  H   UNL     1       1.294   6.940  21.694  0.00  0.00    +0.000 HD
ENDROOT
BRANCH   1  15
ATOM     12  N   UNL     1       0.400  13.402  19.046  0.00  0.00    +0.000 N 
ATOM     13  C   UNL     1       1.053  12.238  19.353  0.00  0.00    +0.000 C 
ATOM     14  O   UNL     1       1.911  12.177  20.225  0.00  0.00    +0.000 OA
ATOM     15  N   UNL     1       0.674  11.199  18.537  0.00  0.00    +0.000 N 
ATOM     16  H   UNL     1      -0.420  13.360  18.460  0.00  0.00    +0.000 HD
ATOM     17  H   UNL     1       0.492  11.449  17.579  0.00  0.00    +0.000 HD
BRANCH  12  19
ATOM     18  C   UNL     1      -0.519  15.277  20.401  0.00  0.00    +0.000 C 
ATOM     19  C   UNL     1       0.707  14.653  19.728  0.00  0.00    +0.000 C 
BRANCH  19  20
ATOM     20  C   UNL     1       1.369  15.622  18.765  0.00  0.00    +0.000 A 
ATOM     21  C   UNL     1       2.622  15.309  18.217  0.00  0.00    +0.000 A 
ATOM     22  C   UNL     1       3.250  16.184  17.328  0.00  0.00    +0.000 A 
ATOM     23  C   UNL     1       2.631  17.380  16.973  0.00  0.00    +0.000 A 
ATOM     24  C   UNL     1       1.386  17.704  17.506  0.00  0.00    +0.000 A 
ATOM     25  C   UNL     1       0.756  16.831  18.395  0.00  0.00    +0.000 A 
ENDBRANCH  19  20
ENDBRANCH  12  19
ENDBRANCH   1  15
BRANCH   5  26
ATOM     26  O   UNL     1       3.741   5.354  18.535  0.00  0.00    +0.000 OA
BRANCH  26  27
ATOM     27  C   UNL     1       5.085   5.836  18.399  0.00  0.00    +0.000 C 
BRANCH  27  28
ATOM     28  C   UNL     1       5.724   5.397  17.107  0.00  0.00    +0.000 A 
ATOM     29  C   UNL     1       5.016   4.608  16.193  0.00  0.00    +0.000 A 
ATOM     30  C   UNL     1       5.575   4.306  14.955  0.00  0.00    +0.000 A 
ATOM     31  C   UNL     1       6.834   4.807  14.665  0.00  0.00    +0.000 A 
ATOM     32  N   UNL     1       7.544   5.579  15.516  0.00  0.00    +0.000 NA
ATOM     33  C   UNL     1       6.971   5.859  16.711  0.00  0.00    +0.000 A 
ENDBRANCH  27  28
ENDBRANCH  26  27
ENDBRANCH   5  26
TORSDOF 6
ENDMDL
MODEL 9
REMARK VINA RESULT:      -8.6      1.513      2.108
REMARK  Name = 
REMARK  7 active torsions:
REMARK  status: ('A' for Active; 'I' for Inactive)
REMARK    1  A    between atoms: C_1  and  C_2
REMARK    2  A    between atoms: C_2  and  N_3
REMARK    3  A    between atoms: C_2  and  C_25
REMARK    4  A    between atoms: N_6  and  C_7
REMARK    5  A    between atoms: C_11  and  O_12
REMARK    6  A    between atoms: O_12  and  C_13
REMARK    7  A    between atoms: C_13  and  C_14
REMARK                            x       y       z     vdW  Elec       q    Type
REMARK                         _______ _______ _______ _____ _____    ______ ____
ROOT
ATOM      1  C   UNL     1       1.674   8.539  19.666  0.00  0.00    +0.000 A 
ATOM      2  N   UNL     1       2.253   8.335  18.453  0.00  0.00    +0.000 NA
ATOM      3  C   UNL     1       2.837   7.134  18.173  0.00  0.00    +0.000 A 
ATOM      4  C   UNL     1       2.785   6.094  19.101  0.00  0.00    +0.000 A 
ATOM      5  C   UNL     1       3.247   4.761  19.217  0.00  0.00    +0.000 A 
ATOM      6  N   UNL     1       2.880   4.179  20.361  0.00  0.00    +0.000 NA
ATOM      7  N   UNL     1       2.189   5.143  20.997  0.00  0.00    +0.000 N 
ATOM      8  C   UNL     1       2.126   6.320  20.307  0.00  0.00    +0.000 A 
ATOM      9  C   UNL     1       1.553   7.536  20.627  0.00  0.00    +0.000 A 
ATOM     10  F   UNL     1       0.870   7.691  21.770  0.00  0.00    +0.000 F 
ATOM     11  H   UNL     1       1.792   4.942  21.911  0.00  0.00    +0.000 HD
ENDROOT
BRANCH   1  15
ATOM     12  N   UNL     1       0.020  11.725  19.350  0.00  0.00    +0.000 N 
ATOM     13  C   UNL     1       0.392  10.471  18.943  0.00  0.00    +0.000 C 
ATOM     14  O   UNL     1       0.002   9.980  17.891  0.00  0.00    +0.000 OA
ATOM     15  N   UNL     1       1.182   9.837  19.872  0.00  0.00    +0.000 N 
ATOM     16  H   UNL     1       0.511  12.152  20.120  0.00  0.00    +0.000 HD
ATOM     17  H   UNL     1       0.943  10.016  20.834  0.00  0.00    +0.000 HD
BRANCH  12  19
ATOM     18  C   UNL     1      -0.410  13.995  18.423  0.00  0.00    +0.000 C 
ATOM     19  C   UNL     1      -0.888  12.546  18.559  0.00  0.00    +0.000 C 
BRANCH  19  20
ATOM     20  C   UNL     1      -2.291  12.473  19.134  0.00  0.00    +0.000 A 
ATOM     21  C   UNL     1      -3.295  11.791  18.430  0.00  0.00    +0.000 A 
ATOM     22  C   UNL     1      -4.593  11.709  18.940  0.00  0.00    +0.000 A 
ATOM     23  C   UNL     1      -4.901  12.303  20.162  0.00  0.00    +0.000 A 
ATOM     24  C   UNL     1      -3.915  12.981  20.874  0.00  0.00    +0.000 A 
ATOM     25  C   UNL     1      -2.617  13.065  20.366  0.00  0.00    +0.000 A 
ENDBRANCH  19  20
ENDBRANCH  12  19
ENDBRANCH   1  15
BRANCH   5  26
ATOM     26  O   UNL     1       3.964   4.059  18.307  0.00  0.00    +0.000 OA
BRANCH  26  27
ATOM     27  C   UNL     1       5.371   4.324  18.382  0.00  0.00    +0.000 C 
BRANCH  27  28
ATOM     28  C   UNL     1       6.002   4.464  17.021  0.00  0.00    +0.000 A 
ATOM     29  C   UNL     1       5.527   3.720  15.935  0.00  0.00    +0.000 A 
ATOM     30  C   UNL     1       6.041   3.943  14.661  0.00  0.00    +0.000 A 
ATOM     31  C   UNL     1       7.021   4.910  14.511  0.00  0.00    +0.000 A 
ATOM     32  N   UNL     1       7.498   5.654  15.531  0.00  0.00    +0.000 NA
ATOM     33  C   UNL     1       6.975   5.417  16.757  0.00  0.00    +0.000 A 
ENDBRANCH  27  28
ENDBRANCH  26  27
ENDBRANCH   5  26
TORSDOF 6
ENDMDL
