MODEL 1
REMARK VINA RESULT:      -8.3      0.000      0.000
REMARK  Name = 
REMARK  6 active torsions:
REMARK  status: ('A' for Active; 'I' for Inactive)
REMARK    1  A    between atoms: C_1  and  N_2
REMARK    2  A    between atoms: N_5  and  C_6
REMARK    3  A    between atoms: C_6  and  N_7
REMARK    4  A    between atoms: C_9  and  C_10
REMARK    5  A    between atoms: C_11  and  C_12
REMARK    6  A    between atoms: C_12  and  C_14
REMARK                            x       y       z     vdW  Elec       q    Type
REMARK                         _______ _______ _______ _____ _____    ______ ____
ROOT
ATOM      1  N   UNL     1       4.081   4.878  18.970  0.00  0.00    +0.000 N 
ATOM      2  C   UNL     1       3.684   6.076  19.518  0.00  0.00    +0.000 A 
ATOM      3  C   UNL     1       2.414   5.918  20.027  0.00  0.00    +0.000 A 
ATOM      4  C   UNL     1       1.999   4.584  19.730  0.00  0.00    +0.000 A 
ATOM      5  C   UNL     1       0.807   3.858  19.948  0.00  0.00    +0.000 A 
ATOM      6  C   UNL     1       0.723   2.520  19.555  0.00  0.00    +0.000 A 
ATOM      7  C   UNL     1       1.818   1.887  18.978  0.00  0.00    +0.000 A 
ATOM      8  C   UNL     1       3.010   2.579  18.749  0.00  0.00    +0.000 A 
ATOM      9  C   UNL     1       3.076   3.937  19.110  0.00  0.00    +0.000 A 
ENDROOT
BRANCH   3  10
ATOM     10  C   UNL     1       1.664   6.899  20.748  0.00  0.00    +0.000 C 
ATOM     11  C   UNL     1       1.623   8.206  20.455  0.00  0.00    +0.000 C 
BRANCH  11  12
ATOM     12  C   UNL     1       0.922   9.168  21.344  0.00  0.00    +0.000 C 
ATOM     13  O   UNL     1       1.079   9.188  22.556  0.00  0.00    +0.000 OA
BRANCH  12  14
ATOM     14  C   UNL     1      -0.022  10.103  20.668  0.00  0.00    +0.000 A 
ATOM     15  C   UNL     1      -0.272   9.940  19.300  0.00  0.00    +0.000 A 
ATOM     16  C   UNL     1      -1.122  10.832  18.640  0.00  0.00    +0.000 A 
ATOM     17  C   UNL     1      -1.730  11.875  19.342  0.00  0.00    +0.000 A 
ATOM     18  C   UNL     1      -1.508  12.021  20.709  0.00  0.00    +0.000 A 
ATOM     19  C   UNL     1      -0.661  11.133  21.374  0.00  0.00    +0.000 A 
ENDBRANCH  12  14
ENDBRANCH  11  12
ENDBRANCH   3  10
BRANCH   1  20
ATOM     20  C   UNL     1       5.357   4.676  18.277  0.00  0.00    +0.000 C 
BRANCH  20  25
ATOM     21  C   UNL     1       6.727   4.322  13.770  0.00  0.00    +0.000 C 
ATOM     22  N   UNL     1       6.556   5.285  14.854  0.00  0.00    +0.000 NA
ATOM     23  C   UNL     1       7.452   4.973  15.982  0.00  0.00    +0.000 C 
ATOM     24  C   UNL     1       7.216   5.885  17.208  0.00  0.00    +0.000 C 
ATOM     25  N   UNL     1       5.811   5.942  17.677  0.00  0.00    +0.000 NA
ATOM     26  C   UNL     1       4.967   6.286  16.510  0.00  0.00    +0.000 C 
ATOM     27  C   UNL     1       5.151   5.349  15.292  0.00  0.00    +0.000 C 
ENDBRANCH  20  25
ENDBRANCH   1  20
TORSDOF 5
ENDMDL
MODEL 2
REMARK VINA RESULT:      -8.1      0.890      1.069
REMARK  Name = 
REMARK  6 active torsions:
REMARK  status: ('A' for Active; 'I' for Inactive)
REMARK    1  A    between atoms: C_1  and  N_2
REMARK    2  A    between atoms: N_5  and  C_6
REMARK    3  A    between atoms: C_6  and  N_7
REMARK    4  A    between atoms: C_9  and  C_10
REMARK    5  A    between atoms: C_11  and  C_12
REMARK    6  A    between atoms: C_12  and  C_14
REMARK                            x       y       z     vdW  Elec       q    Type
REMARK                         _______ _______ _______ _____ _____    ______ ____
ROOT
ATOM      1  N   UNL     1       4.063   5.265  18.926  0.00  0.00    +0.000 N 
ATOM      2  C   UNL     1       3.608   6.556  19.080  0.00  0.00    +0.000 A 
ATOM      3  C   UNL     1       2.411   6.513  19.760  0.00  0.00    +0.000 A 
ATOM      4  C   UNL     1       2.096   5.138  19.983  0.00  0.00    +0.000 A 
ATOM      5  C   UNL     1       1.003   4.468  20.574  0.00  0.00    +0.000 A 
ATOM      6  C   UNL     1       1.007   3.074  20.670  0.00  0.00    +0.000 A 
ATOM      7  C   UNL     1       2.097   2.342  20.215  0.00  0.00    +0.000 A 
ATOM      8  C   UNL     1       3.194   2.977  19.625  0.00  0.00    +0.000 A 
ATOM      9  C   UNL     1       3.166   4.377  19.495  0.00  0.00    +0.000 A 
ENDROOT
BRANCH   3  10
ATOM     10  C   UNL     1       1.643   7.640  20.191  0.00  0.00    +0.000 C 
ATOM     11  C   UNL     1       1.467   8.767  19.488  0.00  0.00    +0.000 C 
BRANCH  11  12
ATOM     12  C   UNL     1       0.764   9.935  20.076  0.00  0.00    +0.000 C 
ATOM     13  O   UNL     1       1.105  10.454  21.130  0.00  0.00    +0.000 OA
BRANCH  12  14
ATOM     14  C   UNL     1      -0.418  10.428  19.315  0.00  0.00    +0.000 A 
ATOM     15  C   UNL     1      -0.688   9.883  18.054  0.00  0.00    +0.000 A 
ATOM     16  C   UNL     1      -1.768  10.362  17.309  0.00  0.00    +0.000 A 
ATOM     17  C   UNL     1      -2.585  11.372  17.821  0.00  0.00    +0.000 A 
ATOM     18  C   UNL     1      -2.338  11.895  19.088  0.00  0.00    +0.000 A 
ATOM     19  C   UNL     1      -1.262  11.421  19.839  0.00  0.00    +0.000 A 
ENDBRANCH  12  14
ENDBRANCH  11  12
ENDBRANCH   3  10
BRANCH   1  20
ATOM     20  C   UNL     1       5.281   4.907  18.195  0.00  0.00    +0.000 C 
BRANCH  20  25
ATOM     21  C   UNL     1       6.767   4.325  13.750  0.00  0.00    +0.000 C 
ATOM     22  N   UNL     1       6.654   5.323  14.809  0.00  0.00    +0.000 NA
ATOM     23  C   UNL     1       7.475   4.949  15.975  0.00  0.00    +0.000 C 
ATOM     24  C   UNL     1       7.287   5.905  17.175  0.00  0.00    +0.000 C 
ATOM     25  N   UNL     1       5.879   6.109  17.590  0.00  0.00    +0.000 NA
ATOM     26  C   UNL     1       5.115   6.510  16.386  0.00  0.00    +0.000 C 
ATOM     27  C   UNL     1       5.247   5.533  15.193  0.00  0.00    +0.000 C 
ENDBRANCH  20  25
ENDBRANCH   1  20
TORSDOF 5
ENDMDL
MODEL 3
REMARK VINA RESULT:      -8.1      4.268      8.444
REMARK  Name = 
REMARK  6 active torsions:
REMARK  status: ('A' for Active; 'I' for Inactive)
REMARK    1  A    between atoms: C_1  and  N_2
REMARK    2  A    between atoms: N_5  and  C_6
REMARK    3  A    between atoms: C_6  and  N_7
REMARK    4  A    between atoms: C_9  and  C_10
REMARK    5  A    between atoms: C_11  and  C_12
REMARK    6  A    between atoms: C_12  and  C_14
REMARK                            x       y       z     vdW  Elec       q    Type
REMARK                         _______ _______ _______ _____ _____    ______ ____
ROOT
ATOM      1  N   UNL     1       0.612  11.775  19.561  0.00  0.00    +0.000 N 
ATOM      2  C   UNL     1       1.159  10.825  18.728  0.00  0.00    +0.000 A 
ATOM      3  C   UNL     1       1.052   9.597  19.343  0.00  0.00    +0.000 A 
ATOM      4  C   UNL     1       0.462   9.814  20.626  0.00  0.00    +0.000 A 
ATOM      5  C   UNL     1       0.145   8.969  21.712  0.00  0.00    +0.000 A 
ATOM      6  C   UNL     1      -0.472   9.497  22.850  0.00  0.00    +0.000 A 
ATOM      7  C   UNL     1      -0.806  10.844  22.907  0.00  0.00    +0.000 A 
ATOM      8  C   UNL     1      -0.505  11.705  21.848  0.00  0.00    +0.000 A 
ATOM      9  C   UNL     1       0.153  11.177  20.722  0.00  0.00    +0.000 A 
ENDROOT
BRANCH   3  10
ATOM     10  C   UNL     1       1.429   8.336  18.785  0.00  0.00    +0.000 C 
ATOM     11  C   UNL     1       2.481   7.604  19.177  0.00  0.00    +0.000 C 
BRANCH  11  12
ATOM     12  C   UNL     1       2.870   6.371  18.447  0.00  0.00    +0.000 C 
ATOM     13  O   UNL     1       3.696   6.365  17.545  0.00  0.00    +0.000 OA
BRANCH  12  14
ATOM     14  C   UNL     1       2.166   5.125  18.862  0.00  0.00    +0.000 A 
ATOM     15  C   UNL     1       1.808   4.964  20.206  0.00  0.00    +0.000 A 
ATOM     16  C   UNL     1       1.183   3.785  20.621  0.00  0.00    +0.000 A 
ATOM     17  C   UNL     1       0.905   2.774  19.699  0.00  0.00    +0.000 A 
ATOM     18  C   UNL     1       1.232   2.943  18.355  0.00  0.00    +0.000 A 
ATOM     19  C   UNL     1       1.854   4.119  17.934  0.00  0.00    +0.000 A 
ENDBRANCH  12  14
ENDBRANCH  11  12
ENDBRANCH   3  10
BRANCH   1  20
ATOM     20  C   UNL     1       0.601  13.211  19.272  0.00  0.00    +0.000 C 
BRANCH  20  25
ATOM     21  C   UNL     1       2.896  16.869  17.357  0.00  0.00    +0.000 C 
ATOM     22  N   UNL     1       2.717  16.145  18.612  0.00  0.00    +0.000 NA
ATOM     23  C   UNL     1       3.199  14.757  18.493  0.00  0.00    +0.000 C 
ATOM     24  C   UNL     1       2.911  13.910  19.754  0.00  0.00    +0.000 C 
ATOM     25  N   UNL     1       1.498  13.920  20.199  0.00  0.00    +0.000 NA
ATOM     26  C   UNL     1       1.084  15.337  20.328  0.00  0.00    +0.000 C 
ATOM     27  C   UNL     1       1.313  16.186  19.054  0.00  0.00    +0.000 C 
ENDBRANCH  20  25
ENDBRANCH   1  20
TORSDOF 5
ENDMDL
MODEL 4
REMARK VINA RESULT:      -8.1      0.992      1.596
REMARK  Name = 
REMARK  6 active torsions:
REMARK  status: ('A' for Active; 'I' for Inactive)
REMARK    1  A    between atoms: C_1  and  N_2
REMARK    2  A    between atoms: N_5  and  C_6
REMARK    3  A    between atoms: C_6  and  N_7
REMARK    4  A    between atoms: C_9  and  C_10
REMARK    5  A    between atoms: C_11  and  C_12
REMARK    6  A    between atoms: C_12  and  C_14
REMARK                            x       y       z     vdW  Elec       q    Type
REMARK                         _______ _______ _______ _____ _____    ______ ____
ROOT
ATOM      1  N   UNL     1       3.372   5.461  18.203  0.00  0.00    +0.000 N 
ATOM      2  C   UNL     1       3.101   6.620  18.894  0.00  0.00    +0.000 A 
ATOM      3  C   UNL     1       2.166   6.336  19.864  0.00  0.00    +0.000 A 
ATOM      4  C   UNL     1       1.813   4.959  19.726  0.00  0.00    +0.000 A 
ATOM      5  C   UNL     1       0.895   4.113  20.385  0.00  0.00    +0.000 A 
ATOM      6  C   UNL     1       0.804   2.766  20.026  0.00  0.00    +0.000 A 
ATOM      7  C   UNL     1       1.637   2.243  19.044  0.00  0.00    +0.000 A 
ATOM      8  C   UNL     1       2.555   3.055  18.373  0.00  0.00    +0.000 A 
ATOM      9  C   UNL     1       2.614   4.420  18.710  0.00  0.00    +0.000 A 
ENDROOT
BRANCH   3  10
ATOM     10  C   UNL     1       1.668   7.244  20.849  0.00  0.00    +0.000 C 
ATOM     11  C   UNL     1       1.378   8.535  20.631  0.00  0.00    +0.000 C 
BRANCH  11  12
ATOM     12  C   UNL     1       0.992   9.433  21.749  0.00  0.00    +0.000 C 
ATOM     13  O   UNL     1       1.479   9.346  22.869  0.00  0.00    +0.000 OA
BRANCH  12  14
ATOM     14  C   UNL     1      -0.059  10.441  21.436  0.00  0.00    +0.000 A 
ATOM     15  C   UNL     1      -0.653  11.150  22.486  0.00  0.00    +0.000 A 
ATOM     16  C   UNL     1      -1.668  12.071  22.215  0.00  0.00    +0.000 A 
ATOM     17  C   UNL     1      -2.083  12.293  20.900  0.00  0.00    +0.000 A 
ATOM     18  C   UNL     1      -1.474  11.612  19.849  0.00  0.00    +0.000 A 
ATOM     19  C   UNL     1      -0.458  10.693  20.114  0.00  0.00    +0.000 A 
ENDBRANCH  12  14
ENDBRANCH  11  12
ENDBRANCH   3  10
BRANCH   1  20
ATOM     20  C   UNL     1       4.276   5.384  17.052  0.00  0.00    +0.000 C 
BRANCH  20  25
ATOM     21  C   UNL     1       7.593   5.229  13.693  0.00  0.00    +0.000 C 
ATOM     22  N   UNL     1       7.271   4.721  15.023  0.00  0.00    +0.000 NA
ATOM     23  C   UNL     1       6.064   3.875  14.985  0.00  0.00    +0.000 C 
ATOM     24  C   UNL     1       5.605   3.420  16.390  0.00  0.00    +0.000 C 
ATOM     25  N   UNL     1       5.424   4.517  17.368  0.00  0.00    +0.000 NA
ATOM     26  C   UNL     1       6.675   5.311  17.382  0.00  0.00    +0.000 C 
ATOM     27  C   UNL     1       7.119   5.822  15.990  0.00  0.00    +0.000 C 
ENDBRANCH  20  25
ENDBRANCH   1  20
TORSDOF 5
ENDMDL
MODEL 5
REMARK VINA RESULT:      -8.1      0.589      1.102
REMARK  Name = 
REMARK  6 active torsions:
REMARK  status: ('A' for Active; 'I' for Inactive)
REMARK    1  A    between atoms: C_1  and  N_2
REMARK    2  A    between atoms: N_5  and  C_6
REMARK    3  A    between atoms: C_6  and  N_7
REMARK    4  A    between atoms: C_9  and  C_10
REMARK    5  A    between atoms: C_11  and  C_12
REMARK    6  A    between atoms: C_12  and  C_14
REMARK                            x       y       z     vdW  Elec       q    Type
REMARK                         _______ _______ _______ _____ _____    ______ ____
ROOT
ATOM      1  N   UNL     1       3.842   5.109  18.732  0.00  0.00    +0.000 N 
ATOM      2  C   UNL     1       3.523   6.389  19.127  0.00  0.00    +0.000 A 
ATOM      3  C   UNL     1       2.395   6.329  19.914  0.00  0.00    +0.000 A 
ATOM      4  C   UNL     1       1.979   4.964  19.960  0.00  0.00    +0.000 A 
ATOM      5  C   UNL     1       0.889   4.292  20.555  0.00  0.00    +0.000 A 
ATOM      6  C   UNL     1       0.776   2.904  20.438  0.00  0.00    +0.000 A 
ATOM      7  C   UNL     1       1.747   2.174  19.765  0.00  0.00    +0.000 A 
ATOM      8  C   UNL     1       2.838   2.810  19.164  0.00  0.00    +0.000 A 
ATOM      9  C   UNL     1       2.925   4.212  19.251  0.00  0.00    +0.000 A 
ENDROOT
BRANCH   3  10
ATOM     10  C   UNL     1       1.777   7.427  20.590  0.00  0.00    +0.000 C 
ATOM     11  C   UNL     1       1.389   8.570  20.008  0.00  0.00    +0.000 C 
BRANCH  11  12
ATOM     12  C   UNL     1       0.877   9.706  20.816  0.00  0.00    +0.000 C 
ATOM     13  O   UNL     1       1.308   9.977  21.929  0.00  0.00    +0.000 OA
BRANCH  12  14
ATOM     14  C   UNL     1      -0.228  10.492  20.199  0.00  0.00    +0.000 A 
ATOM     15  C   UNL     1      -0.864  11.480  20.961  0.00  0.00    +0.000 A 
ATOM     16  C   UNL     1      -1.929  12.199  20.413  0.00  0.00    +0.000 A 
ATOM     17  C   UNL     1      -2.353  11.944  19.107  0.00  0.00    +0.000 A 
ATOM     18  C   UNL     1      -1.703  10.984  18.335  0.00  0.00    +0.000 A 
ATOM     19  C   UNL     1      -0.637  10.263  18.876  0.00  0.00    +0.000 A 
ENDBRANCH  12  14
ENDBRANCH  11  12
ENDBRANCH   3  10
BRANCH   1  20
ATOM     20  C   UNL     1       4.950   4.781  17.830  0.00  0.00    +0.000 C 
BRANCH  20  25
ATOM     21  C   UNL     1       7.084   4.538  13.623  0.00  0.00    +0.000 C 
ATOM     22  N   UNL     1       6.832   5.443  14.741  0.00  0.00    +0.000 NA
ATOM     23  C   UNL     1       7.458   4.938  15.978  0.00  0.00    +0.000 C 
ATOM     24  C   UNL     1       7.110   5.792  17.219  0.00  0.00    +0.000 C 
ATOM     25  N   UNL     1       5.661   6.009  17.436  0.00  0.00    +0.000 NA
ATOM     26  C   UNL     1       5.098   6.542  16.173  0.00  0.00    +0.000 C 
ATOM     27  C   UNL     1       5.389   5.669  14.928  0.00  0.00    +0.000 C 
ENDBRANCH  20  25
ENDBRANCH   1  20
TORSDOF 5
ENDMDL
MODEL 6
REMARK VINA RESULT:      -8.0      1.081      1.361
REMARK  Name = 
REMARK  6 active torsions:
REMARK  status: ('A' for Active; 'I' for Inactive)
REMARK    1  A    between atoms: C_1  and  N_2
REMARK    2  A    between atoms: N_5  and  C_6
REMARK    3  A    between atoms: C_6  and  N_7
REMARK    4  A    between atoms: C_9  and  C_10
REMARK    5  A    between atoms: C_11  and  C_12
REMARK    6  A    between atoms: C_12  and  C_14
REMARK                            x       y       z     vdW  Elec       q    Type
REMARK                         _______ _______ _______ _____ _____    ______ ____
ROOT
ATOM      1  N   UNL     1       3.130   5.840  18.346  0.00  0.00    +0.000 N 
ATOM      2  C   UNL     1       2.790   6.962  19.067  0.00  0.00    +0.000 A 
ATOM      3  C   UNL     1       1.972   6.576  20.106  0.00  0.00    +0.000 A 
ATOM      4  C   UNL     1       1.763   5.169  19.983  0.00  0.00    +0.000 A 
ATOM      5  C   UNL     1       0.999   4.226  20.705  0.00  0.00    +0.000 A 
ATOM      6  C   UNL     1       1.030   2.877  20.341  0.00  0.00    +0.000 A 
ATOM      7  C   UNL     1       1.833   2.450  19.291  0.00  0.00    +0.000 A 
ATOM      8  C   UNL     1       2.600   3.359  18.557  0.00  0.00    +0.000 A 
ATOM      9  C   UNL     1       2.535   4.722  18.902  0.00  0.00    +0.000 A 
ENDROOT
BRANCH   3  10
ATOM     10  C   UNL     1       1.457   7.422  21.136  0.00  0.00    +0.000 C 
ATOM     11  C   UNL     1       1.109   8.707  20.976  0.00  0.00    +0.000 C 
BRANCH  11  12
ATOM     12  C   UNL     1       0.710   9.543  22.137  0.00  0.00    +0.000 C 
ATOM     13  O   UNL     1       1.202   9.414  23.249  0.00  0.00    +0.000 OA
BRANCH  12  14
ATOM     14  C   UNL     1      -0.362  10.544  21.874  0.00  0.00    +0.000 A 
ATOM     15  C   UNL     1      -0.626  10.923  20.553  0.00  0.00    +0.000 A 
ATOM     16  C   UNL     1      -1.600  11.890  20.290  0.00  0.00    +0.000 A 
ATOM     17  C   UNL     1      -2.318  12.469  21.339  0.00  0.00    +0.000 A 
ATOM     18  C   UNL     1      -2.080  12.071  22.652  0.00  0.00    +0.000 A 
ATOM     19  C   UNL     1      -1.110  11.105  22.921  0.00  0.00    +0.000 A 
ENDBRANCH  12  14
ENDBRANCH  11  12
ENDBRANCH   3  10
BRANCH   1  20
ATOM     20  C   UNL     1       3.943   5.865  17.126  0.00  0.00    +0.000 C 
BRANCH  20  25
ATOM     21  C   UNL     1       6.486   3.930  13.649  0.00  0.00    +0.000 C 
ATOM     22  N   UNL     1       6.593   4.442  15.011  0.00  0.00    +0.000 NA
ATOM     23  C   UNL     1       5.781   3.637  15.942  0.00  0.00    +0.000 C 
ATOM     24  C   UNL     1       5.755   4.218  17.374  0.00  0.00    +0.000 C 
ATOM     25  N   UNL     1       5.360   5.643  17.459  0.00  0.00    +0.000 NA
ATOM     26  C   UNL     1       6.228   6.400  16.527  0.00  0.00    +0.000 C 
ATOM     27  C   UNL     1       6.222   5.866  15.074  0.00  0.00    +0.000 C 
ENDBRANCH  20  25
ENDBRANCH   1  20
TORSDOF 5
ENDMDL
MODEL 7
REMARK VINA RESULT:      -7.9      1.147      1.836
REMARK  Name = 
REMARK  6 active torsions:
REMARK  status: ('A' for Active; 'I' for Inactive)
REMARK    1  A    between atoms: C_1  and  N_2
REMARK    2  A    between atoms: N_5  and  C_6
REMARK    3  A    between atoms: C_6  and  N_7
REMARK    4  A    between atoms: C_9  and  C_10
REMARK    5  A    between atoms: C_11  and  C_12
REMARK    6  A    between atoms: C_12  and  C_14
REMARK                            x       y       z     vdW  Elec       q    Type
REMARK                         _______ _______ _______ _____ _____    ______ ____
ROOT
ATOM      1  N   UNL     1       3.320   5.290  18.157  0.00  0.00    +0.000 N 
ATOM      2  C   UNL     1       3.021   6.461  18.816  0.00  0.00    +0.000 A 
ATOM      3  C   UNL     1       2.108   6.177  19.807  0.00  0.00    +0.000 A 
ATOM      4  C   UNL     1       1.797   4.786  19.715  0.00  0.00    +0.000 A 
ATOM      5  C   UNL     1       0.915   3.932  20.412  0.00  0.00    +0.000 A 
ATOM      6  C   UNL     1       0.863   2.572  20.094  0.00  0.00    +0.000 A 
ATOM      7  C   UNL     1       1.699   2.047  19.117  0.00  0.00    +0.000 A 
ATOM      8  C   UNL     1       2.583   2.866  18.410  0.00  0.00    +0.000 A 
ATOM      9  C   UNL     1       2.602   4.241  18.706  0.00  0.00    +0.000 A 
ENDROOT
BRANCH   3  10
ATOM     10  C   UNL     1       1.593   7.099  20.771  0.00  0.00    +0.000 C 
ATOM     11  C   UNL     1       1.496   8.424  20.594  0.00  0.00    +0.000 C 
BRANCH  11  12
ATOM     12  C   UNL     1       1.072   9.315  21.704  0.00  0.00    +0.000 C 
ATOM     13  O   UNL     1       1.537   9.238  22.833  0.00  0.00    +0.000 OA
BRANCH  12  14
ATOM     14  C   UNL     1       0.010  10.305  21.369  0.00  0.00    +0.000 A 
ATOM     15  C   UNL     1      -0.373  10.460  20.031  0.00  0.00    +0.000 A 
ATOM     16  C   UNL     1      -1.338  11.412  19.693  0.00  0.00    +0.000 A 
ATOM     17  C   UNL     1      -1.929  12.199  20.684  0.00  0.00    +0.000 A 
ATOM     18  C   UNL     1      -1.572  12.027  22.019  0.00  0.00    +0.000 A 
ATOM     19  C   UNL     1      -0.610  11.076  22.364  0.00  0.00    +0.000 A 
ENDBRANCH  12  14
ENDBRANCH  11  12
ENDBRANCH   3  10
BRANCH   1  20
ATOM     20  C   UNL     1       4.212   5.206  16.997  0.00  0.00    +0.000 C 
BRANCH  20  25
ATOM     21  C   UNL     1       8.184   7.423  18.269  0.00  0.00    +0.000 C 
ATOM     22  N   UNL     1       7.616   6.093  18.066  0.00  0.00    +0.000 NA
ATOM     23  C   UNL     1       7.238   5.891  16.656  0.00  0.00    +0.000 C 
ATOM     24  C   UNL     1       6.511   4.548  16.414  0.00  0.00    +0.000 C 
ATOM     25  N   UNL     1       5.342   4.310  17.292  0.00  0.00    +0.000 NA
ATOM     26  C   UNL     1       5.792   4.498  18.691  0.00  0.00    +0.000 C 
ATOM     27  C   UNL     1       6.471   5.862  18.964  0.00  0.00    +0.000 C 
ENDBRANCH  20  25
ENDBRANCH   1  20
TORSDOF 5
ENDMDL
MODEL 8
REMARK VINA RESULT:      -7.9      1.010      1.910
REMARK  Name = 
REMARK  6 active torsions:
REMARK  status: ('A' for Active; 'I' for Inactive)
REMARK    1  A    between atoms: C_1  and  N_2
REMARK    2  A    between atoms: N_5  and  C_6
REMARK    3  A    between atoms: C_6  and  N_7
REMARK    4  A    between atoms: C_9  and  C_10
REMARK    5  A    between atoms: C_11  and  C_12
REMARK    6  A    between atoms: C_12  and  C_14
REMARK                            x       y       z     vdW  Elec       q    Type
REMARK                         _______ _______ _______ _____ _____    ______ ____
ROOT
ATOM      1  N   UNL     1       4.041   4.598  19.310  0.00  0.00    +0.000 N 
ATOM      2  C   UNL     1       3.601   5.806  19.801  0.00  0.00    +0.000 A 
ATOM      3  C   UNL     1       2.256   5.698  20.074  0.00  0.00    +0.000 A 
ATOM      4  C   UNL     1       1.847   4.386  19.685  0.00  0.00    +0.000 A 
ATOM      5  C   UNL     1       0.607   3.709  19.677  0.00  0.00    +0.000 A 
ATOM      6  C   UNL     1       0.541   2.379  19.251  0.00  0.00    +0.000 A 
ATOM      7  C   UNL     1       1.693   1.707  18.866  0.00  0.00    +0.000 A 
ATOM      8  C   UNL     1       2.934   2.349  18.863  0.00  0.00    +0.000 A 
ATOM      9  C   UNL     1       2.990   3.699  19.253  0.00  0.00    +0.000 A 
ENDROOT
BRANCH   3  10
ATOM     10  C   UNL     1       1.430   6.701  20.669  0.00  0.00    +0.000 C 
ATOM     11  C   UNL     1       1.653   8.021  20.602  0.00  0.00    +0.000 C 
BRANCH  11  12
ATOM     12  C   UNL     1       0.813   8.980  21.365  0.00  0.00    +0.000 C 
ATOM     13  O   UNL     1       0.746   8.978  22.586  0.00  0.00    +0.000 OA
BRANCH  12  14
ATOM     14  C   UNL     1       0.020   9.939  20.546  0.00  0.00    +0.000 A 
ATOM     15  C   UNL     1      -0.682  10.963  21.192  0.00  0.00    +0.000 A 
ATOM     16  C   UNL     1      -1.464  11.848  20.444  0.00  0.00    +0.000 A 
ATOM     17  C   UNL     1      -1.537  11.720  19.055  0.00  0.00    +0.000 A 
ATOM     18  C   UNL     1      -0.816  10.721  18.405  0.00  0.00    +0.000 A 
ATOM     19  C   UNL     1      -0.032   9.836  19.147  0.00  0.00    +0.000 A 
ENDBRANCH  12  14
ENDBRANCH  11  12
ENDBRANCH   3  10
BRANCH   1  20
ATOM     20  C   UNL     1       5.410   4.349  18.849  0.00  0.00    +0.000 C 
BRANCH  20  25
ATOM     21  C   UNL     1       7.737   8.214  17.450  0.00  0.00    +0.000 C 
ATOM     22  N   UNL     1       7.040   7.037  16.941  0.00  0.00    +0.000 NA
ATOM     23  C   UNL     1       5.615   7.063  17.320  0.00  0.00    +0.000 C 
ATOM     24  C   UNL     1       4.862   5.774  16.918  0.00  0.00    +0.000 C 
ATOM     25  N   UNL     1       5.489   4.517  17.388  0.00  0.00    +0.000 NA
ATOM     26  C   UNL     1       6.905   4.537  16.952  0.00  0.00    +0.000 C 
ATOM     27  C   UNL     1       7.690   5.796  17.396  0.00  0.00    +0.000 C 
ENDBRANCH  20  25
ENDBRANCH   1  20
TORSDOF 5
ENDMDL
MODEL 9
REMARK VINA RESULT:      -7.9      4.201      8.629
REMARK  Name = 
REMARK  6 active torsions:
REMARK  status: ('A' for Active; 'I' for Inactive)
REMARK    1  A    between atoms: C_1  and  N_2
REMARK    2  A    between atoms: N_5  and  C_6
REMARK    3  A    between atoms: C_6  and  N_7
REMARK    4  A    between atoms: C_9  and  C_10
REMARK    5  A    between atoms: C_11  and  C_12
REMARK    6  A    between atoms: C_12  and  C_14
REMARK                            x       y       z     vdW  Elec       q    Type
REMARK                         _______ _______ _______ _____ _____    ______ ____
ROOT
ATOM      1  N   UNL     1       0.914  11.706  19.430  0.00  0.00    +0.000 N 
ATOM      2  C   UNL     1       1.454  10.729  18.625  0.00  0.00    +0.000 A 
ATOM      3  C   UNL     1       1.265   9.510  19.237  0.00  0.00    +0.000 A 
ATOM      4  C   UNL     1       0.629   9.758  20.492  0.00  0.00    +0.000 A 
ATOM      5  C   UNL     1       0.226   8.933  21.565  0.00  0.00    +0.000 A 
ATOM      6  C   UNL     1      -0.417   9.493  22.672  0.00  0.00    +0.000 A 
ATOM      7  C   UNL     1      -0.692  10.854  22.711  0.00  0.00    +0.000 A 
ATOM      8  C   UNL     1      -0.306  11.696  21.665  0.00  0.00    +0.000 A 
ATOM      9  C   UNL     1       0.377  11.134  20.571  0.00  0.00    +0.000 A 
ENDROOT
BRANCH   3  10
ATOM     10  C   UNL     1       1.609   8.231  18.700  0.00  0.00    +0.000 C 
ATOM     11  C   UNL     1       2.517   7.395  19.222  0.00  0.00    +0.000 C 
BRANCH  11  12
ATOM     12  C   UNL     1       2.903   6.146  18.517  0.00  0.00    +0.000 C 
ATOM     13  O   UNL     1       3.753   6.114  17.638  0.00  0.00    +0.000 OA
BRANCH  12  14
ATOM     14  C   UNL     1       2.164   4.918  18.927  0.00  0.00    +0.000 A 
ATOM     15  C   UNL     1       1.876   4.722  20.283  0.00  0.00    +0.000 A 
ATOM     16  C   UNL     1       1.220   3.557  20.690  0.00  0.00    +0.000 A 
ATOM     17  C   UNL     1       0.841   2.597  19.750  0.00  0.00    +0.000 A 
ATOM     18  C   UNL     1       1.099   2.803  18.397  0.00  0.00    +0.000 A 
ATOM     19  C   UNL     1       1.752   3.965  17.983  0.00  0.00    +0.000 A 
ENDBRANCH  12  14
ENDBRANCH  11  12
ENDBRANCH   3  10
BRANCH   1  20
ATOM     20  C   UNL     1       0.980  13.140  19.137  0.00  0.00    +0.000 C 
BRANCH  20  25
ATOM     21  C   UNL     1       1.597  17.398  21.087  0.00  0.00    +0.000 C 
ATOM     22  N   UNL     1       2.326  16.286  20.484  0.00  0.00    +0.000 NA
ATOM     23  C   UNL     1       1.943  16.109  19.072  0.00  0.00    +0.000 C 
ATOM     24  C   UNL     1       2.589  14.862  18.425  0.00  0.00    +0.000 C 
ATOM     25  N   UNL     1       2.379  13.598  19.170  0.00  0.00    +0.000 NA
ATOM     26  C   UNL     1       2.808  13.831  20.568  0.00  0.00    +0.000 C 
ATOM     27  C   UNL     1       2.128  15.043  21.250  0.00  0.00    +0.000 C 
ENDBRANCH  20  25
ENDBRANCH   1  20
TORSDOF 5
ENDMDL
