MODEL 1
REMARK VINA RESULT:      -7.5      0.000      0.000
REMARK  Name = 
REMARK  10 active torsions:
REMARK  status: ('A' for Active; 'I' for Inactive)
REMARK    1  A    between atoms: C_1  and  O_2
REMARK    2  A    between atoms: O_2  and  C_3
REMARK    3  A    between atoms: C_3  and  C_4
REMARK    4  A    between atoms: C_4  and  O_5
REMARK    5  A    between atoms: O_5  and  C_6
REMARK    6  A    between atoms: C_6  and  C_8
REMARK    7  A    between atoms: C_12  and  O_13
REMARK    8  A    between atoms: C_18  and  N_19
REMARK    9  A    between atoms: N_19  and  C_20
REMARK   10  A    between atoms: N_19  and  C_21
REMARK                            x       y       z     vdW  Elec       q    Type
REMARK                         _______ _______ _______ _____ _____    ______ ____
ROOT
ATOM      1  C   UNL     1       4.577   4.096  18.248  0.00  0.00    +0.000 A 
ATOM      2  C   UNL     1       5.407   3.859  17.222  0.00  0.00    +0.000 A 
ATOM      3  C   UNL     1       5.660   4.875  16.195  0.00  0.00    +0.000 A 
ATOM      4  O   UNL     1       6.431   4.672  15.262  0.00  0.00    +0.000 OA
ATOM      5  C   UNL     1       4.918   6.154  16.270  0.00  0.00    +0.000 A 
ATOM      6  C   UNL     1       4.105   6.421  17.300  0.00  0.00    +0.000 A 
ATOM      7  O   UNL     1       3.430   7.637  17.372  0.00  0.00    +0.000 OA
ATOM      8  C   UNL     1       2.637   7.850  18.477  0.00  0.00    +0.000 A 
ATOM      9  C   UNL     1       1.930   9.055  18.551  0.00  0.00    +0.000 A 
ATOM     10  C   UNL     1       1.083   9.347  19.635  0.00  0.00    +0.000 A 
ATOM     11  C   UNL     1       0.980   8.362  20.632  0.00  0.00    +0.000 A 
ATOM     12  C   UNL     1       1.692   7.161  20.567  0.00  0.00    +0.000 A 
ATOM     13  C   UNL     1       2.529   6.902  19.490  0.00  0.00    +0.000 A 
ATOM     14  N   UNL     1       3.201   5.682  19.448  0.00  0.00    +0.000 NA
ATOM     15  C   UNL     1       3.920   5.423  18.399  0.00  0.00    +0.000 A 
ENDROOT
BRANCH  10  16
ATOM     16  N   UNL     1       0.362  10.524  19.717  0.00  0.00    +0.000 N 
ATOM     17  C   UNL     1       0.793  11.628  20.574  0.00  0.00    +0.000 C 
ATOM     18  C   UNL     1      -0.788  10.799  18.865  0.00  0.00    +0.000 C 
ENDBRANCH  10  16
BRANCH   1  19
ATOM     19  C   UNL     1       4.245   2.909  19.086  0.00  0.00    +0.000 C 
ATOM     20  O   UNL     1       4.888   2.553  20.064  0.00  0.00    +0.000 OA
BRANCH  19  21
ATOM     21  O   UNL     1       3.274   2.184  18.493  0.00  0.00    +0.000 OA
BRANCH  21  22
ATOM     22  C   UNL     1       2.136   1.892  19.300  0.00  0.00    +0.000 C 
BRANCH  22  23
ATOM     23  C   UNL     1       1.022   2.899  19.085  0.00  0.00    +0.000 C 
BRANCH  23  25
ATOM     24  C   UNL     1       1.368   2.851  21.419  0.00  0.00    +0.000 C 
ATOM     25  O   UNL     1       0.791   3.556  20.332  0.00  0.00    +0.000 OA
ENDBRANCH  23  25
ENDBRANCH  22  23
ENDBRANCH  21  22
ENDBRANCH  19  21
ENDBRANCH   1  19
BRANCH   5  26
ATOM     26  O   UNL     1       5.109   7.052  15.230  0.00  0.00    +0.000 OA
ATOM     27  H   UNL     1       6.076   7.218  15.201  0.00  0.00    +0.000 HD
ENDBRANCH   5  26
TORSDOF 7
ENDMDL
MODEL 2
REMARK VINA RESULT:      -7.0      0.718      1.208
REMARK  Name = 
REMARK  10 active torsions:
REMARK  status: ('A' for Active; 'I' for Inactive)
REMARK    1  A    between atoms: C_1  and  O_2
REMARK    2  A    between atoms: O_2  and  C_3
REMARK    3  A    between atoms: C_3  and  C_4
REMARK    4  A    between atoms: C_4  and  O_5
REMARK    5  A    between atoms: O_5  and  C_6
REMARK    6  A    between atoms: C_6  and  C_8
REMARK    7  A    between atoms: C_12  and  O_13
REMARK    8  A    between atoms: C_18  and  N_19
REMARK    9  A    between atoms: N_19  and  C_20
REMARK   10  A    between atoms: N_19  and  C_21
REMARK                            x       y       z     vdW  Elec       q    Type
REMARK                         _______ _______ _______ _____ _____    ______ ____
ROOT
ATOM      1  C   UNL     1       4.694   4.096  18.553  0.00  0.00    +0.000 A 
ATOM      2  C   UNL     1       5.527   3.787  17.549  0.00  0.00    +0.000 A 
ATOM      3  C   UNL     1       5.756   4.714  16.435  0.00  0.00    +0.000 A 
ATOM      4  O   UNL     1       6.529   4.445  15.521  0.00  0.00    +0.000 OA
ATOM      5  C   UNL     1       4.987   5.979  16.400  0.00  0.00    +0.000 A 
ATOM      6  C   UNL     1       4.170   6.318  17.406  0.00  0.00    +0.000 A 
ATOM      7  O   UNL     1       3.469   7.521  17.373  0.00  0.00    +0.000 OA
ATOM      8  C   UNL     1       2.674   7.814  18.458  0.00  0.00    +0.000 A 
ATOM      9  C   UNL     1       1.943   9.006  18.428  0.00  0.00    +0.000 A 
ATOM     10  C   UNL     1       1.091   9.374  19.486  0.00  0.00    +0.000 A 
ATOM     11  C   UNL     1       1.011   8.480  20.566  0.00  0.00    +0.000 A 
ATOM     12  C   UNL     1       1.749   7.292  20.604  0.00  0.00    +0.000 A 
ATOM     13  C   UNL     1       2.589   6.957  19.551  0.00  0.00    +0.000 A 
ATOM     14  N   UNL     1       3.287   5.752  19.614  0.00  0.00    +0.000 NA
ATOM     15  C   UNL     1       4.009   5.417  18.590  0.00  0.00    +0.000 A 
ENDROOT
BRANCH  10  16
ATOM     16  N   UNL     1       0.346  10.538  19.466  0.00  0.00    +0.000 N 
ATOM     17  C   UNL     1      -1.073  10.533  19.110  0.00  0.00    +0.000 C 
ATOM     18  C   UNL     1       0.876  11.817  19.921  0.00  0.00    +0.000 C 
ENDBRANCH  10  16
BRANCH   1  19
ATOM     19  C   UNL     1       4.389   2.981  19.494  0.00  0.00    +0.000 C 
ATOM     20  O   UNL     1       5.161   2.570  20.350  0.00  0.00    +0.000 OA
BRANCH  19  21
ATOM     21  O   UNL     1       3.242   2.371  19.129  0.00  0.00    +0.000 OA
BRANCH  21  22
ATOM     22  C   UNL     1       2.175   2.440  20.071  0.00  0.00    +0.000 C 
BRANCH  22  23
ATOM     23  C   UNL     1       0.899   2.961  19.437  0.00  0.00    +0.000 C 
BRANCH  23  25
ATOM     24  C   UNL     1       1.084   4.221  17.451  0.00  0.00    +0.000 C 
ATOM     25  O   UNL     1       1.076   2.922  18.021  0.00  0.00    +0.000 OA
ENDBRANCH  23  25
ENDBRANCH  22  23
ENDBRANCH  21  22
ENDBRANCH  19  21
ENDBRANCH   1  19
BRANCH   5  26
ATOM     26  O   UNL     1       5.156   6.784  15.284  0.00  0.00    +0.000 OA
ATOM     27  H   UNL     1       4.681   7.619  15.489  0.00  0.00    +0.000 HD
ENDBRANCH   5  26
TORSDOF 7
ENDMDL
MODEL 3
REMARK VINA RESULT:      -6.9      1.913      4.627
REMARK  Name = 
REMARK  10 active torsions:
REMARK  status: ('A' for Active; 'I' for Inactive)
REMARK    1  A    between atoms: C_1  and  O_2
REMARK    2  A    between atoms: O_2  and  C_3
REMARK    3  A    between atoms: C_3  and  C_4
REMARK    4  A    between atoms: C_4  and  O_5
REMARK    5  A    between atoms: O_5  and  C_6
REMARK    6  A    between atoms: C_6  and  C_8
REMARK    7  A    between atoms: C_12  and  O_13
REMARK    8  A    between atoms: C_18  and  N_19
REMARK    9  A    between atoms: N_19  and  C_20
REMARK   10  A    between atoms: N_19  and  C_21
REMARK                            x       y       z     vdW  Elec       q    Type
REMARK                         _______ _______ _______ _____ _____    ______ ____
ROOT
ATOM      1  C   UNL     1       4.205   4.600  17.484  0.00  0.00    +0.000 A 
ATOM      2  C   UNL     1       4.460   3.333  17.839  0.00  0.00    +0.000 A 
ATOM      3  C   UNL     1       3.942   2.772  19.091  0.00  0.00    +0.000 A 
ATOM      4  O   UNL     1       4.158   1.608  19.415  0.00  0.00    +0.000 OA
ATOM      5  C   UNL     1       3.187   3.661  20.004  0.00  0.00    +0.000 A 
ATOM      6  C   UNL     1       2.899   4.922  19.657  0.00  0.00    +0.000 A 
ATOM      7  O   UNL     1       2.168   5.742  20.513  0.00  0.00    +0.000 OA
ATOM      8  C   UNL     1       1.885   7.015  20.073  0.00  0.00    +0.000 A 
ATOM      9  C   UNL     1       1.175   7.860  20.933  0.00  0.00    +0.000 A 
ATOM     10  C   UNL     1       0.860   9.182  20.570  0.00  0.00    +0.000 A 
ATOM     11  C   UNL     1       1.300   9.608  19.306  0.00  0.00    +0.000 A 
ATOM     12  C   UNL     1       2.001   8.763  18.440  0.00  0.00    +0.000 A 
ATOM     13  C   UNL     1       2.291   7.459  18.818  0.00  0.00    +0.000 A 
ATOM     14  N   UNL     1       3.015   6.657  17.938  0.00  0.00    +0.000 NA
ATOM     15  C   UNL     1       3.344   5.467  18.336  0.00  0.00    +0.000 A 
ENDROOT
BRANCH  10  16
ATOM     16  N   UNL     1       0.176  10.039  21.414  0.00  0.00    +0.000 N 
ATOM     17  C   UNL     1      -0.400  11.293  20.930  0.00  0.00    +0.000 C 
ATOM     18  C   UNL     1      -0.133   9.696  22.796  0.00  0.00    +0.000 C 
ENDBRANCH  10  16
BRANCH   1  19
ATOM     19  C   UNL     1       4.971   5.099  16.306  0.00  0.00    +0.000 C 
ATOM     20  O   UNL     1       5.106   4.482  15.259  0.00  0.00    +0.000 OA
BRANCH  19  21
ATOM     21  O   UNL     1       5.650   6.217  16.639  0.00  0.00    +0.000 OA
BRANCH  21  22
ATOM     22  C   UNL     1       7.045   6.049  16.873  0.00  0.00    +0.000 C 
BRANCH  22  23
ATOM     23  C   UNL     1       7.565   7.034  17.903  0.00  0.00    +0.000 C 
BRANCH  23  25
ATOM     24  C   UNL     1       8.332   9.260  18.061  0.00  0.00    +0.000 C 
ATOM     25  O   UNL     1       7.606   8.320  17.284  0.00  0.00    +0.000 OA
ENDBRANCH  23  25
ENDBRANCH  22  23
ENDBRANCH  21  22
ENDBRANCH  19  21
ENDBRANCH   1  19
BRANCH   5  26
ATOM     26  O   UNL     1       2.798   3.124  21.222  0.00  0.00    +0.000 OA
ATOM     27  H   UNL     1       3.557   2.578  21.522  0.00  0.00    +0.000 HD
ENDBRANCH   5  26
TORSDOF 7
ENDMDL
MODEL 4
REMARK VINA RESULT:      -6.9      1.749      4.603
REMARK  Name = 
REMARK  10 active torsions:
REMARK  status: ('A' for Active; 'I' for Inactive)
REMARK    1  A    between atoms: C_1  and  O_2
REMARK    2  A    between atoms: O_2  and  C_3
REMARK    3  A    between atoms: C_3  and  C_4
REMARK    4  A    between atoms: C_4  and  O_5
REMARK    5  A    between atoms: O_5  and  C_6
REMARK    6  A    between atoms: C_6  and  C_8
REMARK    7  A    between atoms: C_12  and  O_13
REMARK    8  A    between atoms: C_18  and  N_19
REMARK    9  A    between atoms: N_19  and  C_20
REMARK   10  A    between atoms: N_19  and  C_21
REMARK                            x       y       z     vdW  Elec       q    Type
REMARK                         _______ _______ _______ _____ _____    ______ ____
ROOT
ATOM      1  C   UNL     1       4.563   5.481  17.428  0.00  0.00    +0.000 A 
ATOM      2  C   UNL     1       4.823   4.242  17.868  0.00  0.00    +0.000 A 
ATOM      3  C   UNL     1       4.172   3.706  19.068  0.00  0.00    +0.000 A 
ATOM      4  O   UNL     1       4.393   2.567  19.469  0.00  0.00    +0.000 OA
ATOM      5  C   UNL     1       3.269   4.593  19.837  0.00  0.00    +0.000 A 
ATOM      6  C   UNL     1       2.976   5.824  19.400  0.00  0.00    +0.000 A 
ATOM      7  O   UNL     1       2.106   6.642  20.120  0.00  0.00    +0.000 OA
ATOM      8  C   UNL     1       1.829   7.882  19.590  0.00  0.00    +0.000 A 
ATOM      9  C   UNL     1       0.980   8.725  20.314  0.00  0.00    +0.000 A 
ATOM     10  C   UNL     1       0.658  10.016  19.856  0.00  0.00    +0.000 A 
ATOM     11  C   UNL     1       1.240  10.412  18.641  0.00  0.00    +0.000 A 
ATOM     12  C   UNL     1       2.082   9.569  17.909  0.00  0.00    +0.000 A 
ATOM     13  C   UNL     1       2.375   8.296  18.379  0.00  0.00    +0.000 A 
ATOM     14  N   UNL     1       3.239   7.495  17.635  0.00  0.00    +0.000 NA
ATOM     15  C   UNL     1       3.564   6.338  18.124  0.00  0.00    +0.000 A 
ENDROOT
BRANCH  10  16
ATOM     16  N   UNL     1      -0.164  10.871  20.567  0.00  0.00    +0.000 N 
ATOM     17  C   UNL     1      -0.202  10.856  22.029  0.00  0.00    +0.000 C 
ATOM     18  C   UNL     1      -0.939  11.925  19.927  0.00  0.00    +0.000 C 
ENDBRANCH  10  16
BRANCH   1  19
ATOM     19  C   UNL     1       5.453   5.969  16.336  0.00  0.00    +0.000 C 
ATOM     20  O   UNL     1       5.140   6.829  15.524  0.00  0.00    +0.000 OA
BRANCH  19  21
ATOM     21  O   UNL     1       6.551   5.189  16.254  0.00  0.00    +0.000 OA
BRANCH  21  22
ATOM     22  C   UNL     1       7.023   4.919  14.937  0.00  0.00    +0.000 C 
BRANCH  22  23
ATOM     23  C   UNL     1       6.121   3.941  14.208  0.00  0.00    +0.000 C 
BRANCH  23  25
ATOM     24  C   UNL     1       5.810   2.953  12.087  0.00  0.00    +0.000 C 
ATOM     25  O   UNL     1       6.537   3.909  12.842  0.00  0.00    +0.000 OA
ENDBRANCH  23  25
ENDBRANCH  22  23
ENDBRANCH  21  22
ENDBRANCH  19  21
ENDBRANCH   1  19
BRANCH   5  26
ATOM     26  O   UNL     1       2.749   4.086  21.019  0.00  0.00    +0.000 OA
ATOM     27  H   UNL     1       2.732   3.111  20.900  0.00  0.00    +0.000 HD
ENDBRANCH   5  26
TORSDOF 7
ENDMDL
MODEL 5
REMARK VINA RESULT:      -6.9      3.685      8.291
REMARK  Name = 
REMARK  10 active torsions:
REMARK  status: ('A' for Active; 'I' for Inactive)
REMARK    1  A    between atoms: C_1  and  O_2
REMARK    2  A    between atoms: O_2  and  C_3
REMARK    3  A    between atoms: C_3  and  C_4
REMARK    4  A    between atoms: C_4  and  O_5
REMARK    5  A    between atoms: O_5  and  C_6
REMARK    6  A    between atoms: C_6  and  C_8
REMARK    7  A    between atoms: C_12  and  O_13
REMARK    8  A    between atoms: C_18  and  N_19
REMARK    9  A    between atoms: N_19  and  C_20
REMARK   10  A    between atoms: N_19  and  C_21
REMARK                            x       y       z     vdW  Elec       q    Type
REMARK                         _______ _______ _______ _____ _____    ______ ____
ROOT
ATOM      1  C   UNL     1      -0.452  11.527  20.041  0.00  0.00    +0.000 A 
ATOM      2  C   UNL     1      -1.017  11.998  21.162  0.00  0.00    +0.000 A 
ATOM      3  C   UNL     1      -0.883  11.292  22.440  0.00  0.00    +0.000 A 
ATOM      4  O   UNL     1      -1.383  11.725  23.474  0.00  0.00    +0.000 OA
ATOM      5  C   UNL     1      -0.168   9.994  22.457  0.00  0.00    +0.000 A 
ATOM      6  C   UNL     1       0.425   9.519  21.355  0.00  0.00    +0.000 A 
ATOM      7  O   UNL     1       1.115   8.309  21.389  0.00  0.00    +0.000 OA
ATOM      8  C   UNL     1       1.725   7.902  20.224  0.00  0.00    +0.000 A 
ATOM      9  C   UNL     1       2.398   6.675  20.234  0.00  0.00    +0.000 A 
ATOM     10  C   UNL     1       3.033   6.175  19.082  0.00  0.00    +0.000 A 
ATOM     11  C   UNL     1       2.948   6.967  17.925  0.00  0.00    +0.000 A 
ATOM     12  C   UNL     1       2.285   8.198  17.914  0.00  0.00    +0.000 A 
ATOM     13  C   UNL     1       1.674   8.674  19.067  0.00  0.00    +0.000 A 
ATOM     14  N   UNL     1       1.001   9.892  19.009  0.00  0.00    +0.000 NA
ATOM     15  C   UNL     1       0.371  10.287  20.072  0.00  0.00    +0.000 A 
ENDROOT
BRANCH  10  16
ATOM     16  N   UNL     1       3.686   4.956  19.067  0.00  0.00    +0.000 N 
ATOM     17  C   UNL     1       5.145   4.869  19.131  0.00  0.00    +0.000 C 
ATOM     18  C   UNL     1       2.976   3.686  19.123  0.00  0.00    +0.000 C 
ENDBRANCH  10  16
BRANCH   1  19
ATOM     19  C   UNL     1      -0.852  12.222  18.785  0.00  0.00    +0.000 C 
ATOM     20  O   UNL     1      -0.195  13.100  18.243  0.00  0.00    +0.000 OA
BRANCH  19  21
ATOM     21  O   UNL     1      -2.119  11.891  18.459  0.00  0.00    +0.000 OA
BRANCH  21  22
ATOM     22  C   UNL     1      -2.316  11.425  17.126  0.00  0.00    +0.000 C 
BRANCH  22  23
ATOM     23  C   UNL     1      -2.240   9.913  17.043  0.00  0.00    +0.000 C 
BRANCH  23  25
ATOM     24  C   UNL     1      -3.155  10.569  14.969  0.00  0.00    +0.000 C 
ATOM     25  O   UNL     1      -2.986   9.508  15.895  0.00  0.00    +0.000 OA
ENDBRANCH  23  25
ENDBRANCH  22  23
ENDBRANCH  21  22
ENDBRANCH  19  21
ENDBRANCH   1  19
BRANCH   5  26
ATOM     26  O   UNL     1      -0.145   9.307  23.662  0.00  0.00    +0.000 OA
ATOM     27  H   UNL     1      -0.106   9.999  24.358  0.00  0.00    +0.000 HD
ENDBRANCH   5  26
TORSDOF 7
ENDMDL
MODEL 6
REMARK VINA RESULT:      -6.9      2.267      4.822
REMARK  Name = 
REMARK  10 active torsions:
REMARK  status: ('A' for Active; 'I' for Inactive)
REMARK    1  A    between atoms: C_1  and  O_2
REMARK    2  A    between atoms: O_2  and  C_3
REMARK    3  A    between atoms: C_3  and  C_4
REMARK    4  A    between atoms: C_4  and  O_5
REMARK    5  A    between atoms: O_5  and  C_6
REMARK    6  A    between atoms: C_6  and  C_8
REMARK    7  A    between atoms: C_12  and  O_13
REMARK    8  A    between atoms: C_18  and  N_19
REMARK    9  A    between atoms: N_19  and  C_20
REMARK   10  A    between atoms: N_19  and  C_21
REMARK                            x       y       z     vdW  Elec       q    Type
REMARK                         _______ _______ _______ _____ _____    ______ ____
ROOT
ATOM      1  C   UNL     1       4.703   5.787  17.379  0.00  0.00    +0.000 A 
ATOM      2  C   UNL     1       5.050   4.563  17.801  0.00  0.00    +0.000 A 
ATOM      3  C   UNL     1       4.444   3.967  18.997  0.00  0.00    +0.000 A 
ATOM      4  O   UNL     1       4.744   2.840  19.380  0.00  0.00    +0.000 OA
ATOM      5  C   UNL     1       3.486   4.780  19.782  0.00  0.00    +0.000 A 
ATOM      6  C   UNL     1       3.107   5.994  19.364  0.00  0.00    +0.000 A 
ATOM      7  O   UNL     1       2.188   6.740  20.099  0.00  0.00    +0.000 OA
ATOM      8  C   UNL     1       1.824   7.966  19.588  0.00  0.00    +0.000 A 
ATOM      9  C   UNL     1       0.923   8.739  20.328  0.00  0.00    +0.000 A 
ATOM     10  C   UNL     1       0.511  10.011  19.889  0.00  0.00    +0.000 A 
ATOM     11  C   UNL     1       1.058  10.463  18.677  0.00  0.00    +0.000 A 
ATOM     12  C   UNL     1       1.951   9.689  17.929  0.00  0.00    +0.000 A 
ATOM     13  C   UNL     1       2.334   8.432  18.380  0.00  0.00    +0.000 A 
ATOM     14  N   UNL     1       3.246   7.702  17.621  0.00  0.00    +0.000 NA
ATOM     15  C   UNL     1       3.652   6.564  18.092  0.00  0.00    +0.000 A 
ENDROOT
BRANCH  10  16
ATOM     16  N   UNL     1      -0.363  10.798  20.616  0.00  0.00    +0.000 N 
ATOM     17  C   UNL     1      -1.358  11.644  19.958  0.00  0.00    +0.000 C 
ATOM     18  C   UNL     1      -0.447  10.740  22.069  0.00  0.00    +0.000 C 
ENDBRANCH  10  16
BRANCH   1  19
ATOM     19  C   UNL     1       5.552   6.350  16.291  0.00  0.00    +0.000 C 
ATOM     20  O   UNL     1       5.123   6.736  15.212  0.00  0.00    +0.000 OA
BRANCH  19  21
ATOM     21  O   UNL     1       6.857   6.179  16.589  0.00  0.00    +0.000 OA
BRANCH  21  22
ATOM     22  C   UNL     1       7.314   6.834  17.769  0.00  0.00    +0.000 C 
BRANCH  22  23
ATOM     23  C   UNL     1       7.780   8.249  17.481  0.00  0.00    +0.000 C 
BRANCH  23  25
ATOM     24  C   UNL     1       8.897  10.056  18.507  0.00  0.00    +0.000 C 
ATOM     25  O   UNL     1       8.555   8.683  18.599  0.00  0.00    +0.000 OA
ENDBRANCH  23  25
ENDBRANCH  22  23
ENDBRANCH  21  22
ENDBRANCH  19  21
ENDBRANCH   1  19
BRANCH   5  26
ATOM     26  O   UNL     1       3.008   4.222  20.958  0.00  0.00    +0.000 OA
ATOM     27  H   UNL     1       2.363   3.536  20.680  0.00  0.00    +0.000 HD
ENDBRANCH   5  26
TORSDOF 7
ENDMDL
MODEL 7
REMARK VINA RESULT:      -6.9      1.835      4.507
REMARK  Name = 
REMARK  10 active torsions:
REMARK  status: ('A' for Active; 'I' for Inactive)
REMARK    1  A    between atoms: C_1  and  O_2
REMARK    2  A    between atoms: O_2  and  C_3
REMARK    3  A    between atoms: C_3  and  C_4
REMARK    4  A    between atoms: C_4  and  O_5
REMARK    5  A    between atoms: O_5  and  C_6
REMARK    6  A    between atoms: C_6  and  C_8
REMARK    7  A    between atoms: C_12  and  O_13
REMARK    8  A    between atoms: C_18  and  N_19
REMARK    9  A    between atoms: N_19  and  C_20
REMARK   10  A    between atoms: N_19  and  C_21
REMARK                            x       y       z     vdW  Elec       q    Type
REMARK                         _______ _______ _______ _____ _____    ______ ____
ROOT
ATOM      1  C   UNL     1       4.202   4.591  18.015  0.00  0.00    +0.000 A 
ATOM      2  C   UNL     1       4.286   3.420  18.661  0.00  0.00    +0.000 A 
ATOM      3  C   UNL     1       3.564   3.187  19.916  0.00  0.00    +0.000 A 
ATOM      4  O   UNL     1       3.622   2.112  20.505  0.00  0.00    +0.000 OA
ATOM      5  C   UNL     1       2.793   4.307  20.505  0.00  0.00    +0.000 A 
ATOM      6  C   UNL     1       2.676   5.476  19.863  0.00  0.00    +0.000 A 
ATOM      7  O   UNL     1       1.929   6.514  20.415  0.00  0.00    +0.000 OA
ATOM      8  C   UNL     1       1.829   7.675  19.681  0.00  0.00    +0.000 A 
ATOM      9  C   UNL     1       1.106   8.737  20.234  0.00  0.00    +0.000 A 
ATOM     10  C   UNL     1       0.969   9.964  19.561  0.00  0.00    +0.000 A 
ATOM     11  C   UNL     1       1.603  10.067  18.311  0.00  0.00    +0.000 A 
ATOM     12  C   UNL     1       2.319   9.005  17.751  0.00  0.00    +0.000 A 
ATOM     13  C   UNL     1       2.430   7.800  18.432  0.00  0.00    +0.000 A 
ATOM     14  N   UNL     1       3.174   6.775  17.852  0.00  0.00    +0.000 NA
ATOM     15  C   UNL     1       3.333   5.682  18.534  0.00  0.00    +0.000 A 
ENDROOT
BRANCH  10  16
ATOM     16  N   UNL     1       0.274  11.032  20.100  0.00  0.00    +0.000 N 
ATOM     17  C   UNL     1      -0.234  11.000  21.470  0.00  0.00    +0.000 C 
ATOM     18  C   UNL     1       0.118  12.299  19.398  0.00  0.00    +0.000 C 
ENDBRANCH  10  16
BRANCH   1  19
ATOM     19  C   UNL     1       5.154   4.763  16.880  0.00  0.00    +0.000 C 
ATOM     20  O   UNL     1       4.818   5.005  15.729  0.00  0.00    +0.000 OA
BRANCH  19  21
ATOM     21  O   UNL     1       6.398   4.411  17.266  0.00  0.00    +0.000 OA
BRANCH  21  22
ATOM     22  C   UNL     1       7.410   5.396  17.068  0.00  0.00    +0.000 C 
BRANCH  22  23
ATOM     23  C   UNL     1       7.158   6.636  17.905  0.00  0.00    +0.000 C 
BRANCH  23  25
ATOM     24  C   UNL     1       8.096   8.800  17.857  0.00  0.00    +0.000 C 
ATOM     25  O   UNL     1       7.482   7.770  17.100  0.00  0.00    +0.000 OA
ENDBRANCH  23  25
ENDBRANCH  22  23
ENDBRANCH  21  22
ENDBRANCH  19  21
ENDBRANCH   1  19
BRANCH   5  26
ATOM     26  O   UNL     1       2.205   4.082  21.741  0.00  0.00    +0.000 OA
ATOM     27  H   UNL     1       2.045   3.114  21.782  0.00  0.00    +0.000 HD
ENDBRANCH   5  26
TORSDOF 7
ENDMDL
MODEL 8
REMARK VINA RESULT:      -6.8      1.830      4.248
REMARK  Name = 
REMARK  10 active torsions:
REMARK  status: ('A' for Active; 'I' for Inactive)
REMARK    1  A    between atoms: C_1  and  O_2
REMARK    2  A    between atoms: O_2  and  C_3
REMARK    3  A    between atoms: C_3  and  C_4
REMARK    4  A    between atoms: C_4  and  O_5
REMARK    5  A    between atoms: O_5  and  C_6
REMARK    6  A    between atoms: C_6  and  C_8
REMARK    7  A    between atoms: C_12  and  O_13
REMARK    8  A    between atoms: C_18  and  N_19
REMARK    9  A    between atoms: N_19  and  C_20
REMARK   10  A    between atoms: N_19  and  C_21
REMARK                            x       y       z     vdW  Elec       q    Type
REMARK                         _______ _______ _______ _____ _____    ______ ____
ROOT
ATOM      1  C   UNL     1       3.960   4.913  17.785  0.00  0.00    +0.000 A 
ATOM      2  C   UNL     1       4.082   3.700  18.343  0.00  0.00    +0.000 A 
ATOM      3  C   UNL     1       3.436   3.378  19.620  0.00  0.00    +0.000 A 
ATOM      4  O   UNL     1       3.529   2.265  20.129  0.00  0.00    +0.000 OA
ATOM      5  C   UNL     1       2.700   4.451  20.328  0.00  0.00    +0.000 A 
ATOM      6  C   UNL     1       2.544   5.661  19.776  0.00  0.00    +0.000 A 
ATOM      7  O   UNL     1       1.830   6.655  20.441  0.00  0.00    +0.000 OA
ATOM      8  C   UNL     1       1.687   7.863  19.796  0.00  0.00    +0.000 A 
ATOM      9  C   UNL     1       0.996   8.881  20.462  0.00  0.00    +0.000 A 
ATOM     10  C   UNL     1       0.819  10.151  19.884  0.00  0.00    +0.000 A 
ATOM     11  C   UNL     1       1.378  10.343  18.609  0.00  0.00    +0.000 A 
ATOM     12  C   UNL     1       2.061   9.325  17.936  0.00  0.00    +0.000 A 
ATOM     13  C   UNL     1       2.213   8.077  18.526  0.00  0.00    +0.000 A 
ATOM     14  N   UNL     1       2.923   7.097  17.834  0.00  0.00    +0.000 NA
ATOM     15  C   UNL     1       3.122   5.961  18.429  0.00  0.00    +0.000 A 
ENDROOT
BRANCH  10  16
ATOM     16  N   UNL     1       0.156  11.175  20.534  0.00  0.00    +0.000 N 
ATOM     17  C   UNL     1      -0.314  11.030  21.911  0.00  0.00    +0.000 C 
ATOM     18  C   UNL     1      -0.000  12.502  19.952  0.00  0.00    +0.000 C 
ENDBRANCH  10  16
BRANCH   1  19
ATOM     19  C   UNL     1       4.843   5.166  16.611  0.00  0.00    +0.000 C 
ATOM     20  O   UNL     1       4.824   4.510  15.579  0.00  0.00    +0.000 OA
BRANCH  19  21
ATOM     21  O   UNL     1       5.788   6.074  16.933  0.00  0.00    +0.000 OA
BRANCH  21  22
ATOM     22  C   UNL     1       7.134   5.693  16.662  0.00  0.00    +0.000 C 
BRANCH  22  23
ATOM     23  C   UNL     1       7.556   4.496  17.493  0.00  0.00    +0.000 C 
BRANCH  23  25
ATOM     24  C   UNL     1       8.136   5.880  19.314  0.00  0.00    +0.000 C 
ATOM     25  O   UNL     1       7.312   4.816  18.863  0.00  0.00    +0.000 OA
ENDBRANCH  23  25
ENDBRANCH  22  23
ENDBRANCH  21  22
ENDBRANCH  19  21
ENDBRANCH   1  19
BRANCH   5  26
ATOM     26  O   UNL     1       2.185   4.139  21.578  0.00  0.00    +0.000 OA
ATOM     27  H   UNL     1       2.939   4.227  22.201  0.00  0.00    +0.000 HD
ENDBRANCH   5  26
TORSDOF 7
ENDMDL
MODEL 9
REMARK VINA RESULT:      -6.8      2.746      6.860
REMARK  Name = 
REMARK  10 active torsions:
REMARK  status: ('A' for Active; 'I' for Inactive)
REMARK    1  A    between atoms: C_1  and  O_2
REMARK    2  A    between atoms: O_2  and  C_3
REMARK    3  A    between atoms: C_3  and  C_4
REMARK    4  A    between atoms: C_4  and  O_5
REMARK    5  A    between atoms: O_5  and  C_6
REMARK    6  A    between atoms: C_6  and  C_8
REMARK    7  A    between atoms: C_12  and  O_13
REMARK    8  A    between atoms: C_18  and  N_19
REMARK    9  A    between atoms: N_19  and  C_20
REMARK   10  A    between atoms: N_19  and  C_21
REMARK                            x       y       z     vdW  Elec       q    Type
REMARK                         _______ _______ _______ _____ _____    ______ ____
ROOT
ATOM      1  C   UNL     1       2.105   5.886  19.980  0.00  0.00    +0.000 A 
ATOM      2  C   UNL     1       1.465   5.005  20.762  0.00  0.00    +0.000 A 
ATOM      3  C   UNL     1       1.560   3.561  20.522  0.00  0.00    +0.000 A 
ATOM      4  O   UNL     1       0.991   2.748  21.244  0.00  0.00    +0.000 OA
ATOM      5  C   UNL     1       2.322   3.091  19.343  0.00  0.00    +0.000 A 
ATOM      6  C   UNL     1       2.990   3.952  18.564  0.00  0.00    +0.000 A 
ATOM      7  O   UNL     1       3.723   3.495  17.471  0.00  0.00    +0.000 OA
ATOM      8  C   UNL     1       4.408   4.438  16.737  0.00  0.00    +0.000 A 
ATOM      9  C   UNL     1       5.126   3.999  15.620  0.00  0.00    +0.000 A 
ATOM     10  C   UNL     1       5.838   4.897  14.804  0.00  0.00    +0.000 A 
ATOM     11  C   UNL     1       5.783   6.253  15.167  0.00  0.00    +0.000 A 
ATOM     12  C   UNL     1       5.075   6.694  16.289  0.00  0.00    +0.000 A 
ATOM     13  C   UNL     1       4.387   5.786  17.083  0.00  0.00    +0.000 A 
ATOM     14  N   UNL     1       3.671   6.268  18.177  0.00  0.00    +0.000 NA
ATOM     15  C   UNL     1       2.973   5.418  18.865  0.00  0.00    +0.000 A 
ENDROOT
BRANCH  10  16
ATOM     16  N   UNL     1       6.538   4.485  13.685  0.00  0.00    +0.000 N 
ATOM     17  C   UNL     1       7.828   5.074  13.329  0.00  0.00    +0.000 C 
ATOM     18  C   UNL     1       6.113   3.357  12.866  0.00  0.00    +0.000 C 
ENDBRANCH  10  16
BRANCH   1  19
ATOM     19  C   UNL     1       1.744   7.315  20.202  0.00  0.00    +0.000 C 
ATOM     20  O   UNL     1       1.883   8.200  19.369  0.00  0.00    +0.000 OA
BRANCH  19  21
ATOM     21  O   UNL     1       1.444   7.517  21.502  0.00  0.00    +0.000 OA
BRANCH  21  22
ATOM     22  C   UNL     1       1.348   8.879  21.913  0.00  0.00    +0.000 C 
BRANCH  22  23
ATOM     23  C   UNL     1      -0.093   9.299  22.132  0.00  0.00    +0.000 C 
BRANCH  23  25
ATOM     24  C   UNL     1      -1.270  11.074  23.148  0.00  0.00    +0.000 C 
ATOM     25  O   UNL     1      -0.103  10.268  23.181  0.00  0.00    +0.000 OA
ENDBRANCH  23  25
ENDBRANCH  22  23
ENDBRANCH  21  22
ENDBRANCH  19  21
ENDBRANCH   1  19
BRANCH   5  26
ATOM     26  O   UNL     1       2.309   1.727  19.091  0.00  0.00    +0.000 OA
ATOM     27  H   UNL     1       1.363   1.466  19.112  0.00  0.00    +0.000 HD
ENDBRANCH   5  26
TORSDOF 7
ENDMDL
