MODEL 1
REMARK VINA RESULT:      -8.4      0.000      0.000
REMARK  Name = 
REMARK  5 active torsions:
REMARK  status: ('A' for Active; 'I' for Inactive)
REMARK    1  A    between atoms: C_1  and  C_2
REMARK    2  A    between atoms: N_4  and  C_5
REMARK    3  A    between atoms: C_13  and  C_14
REMARK    4  A    between atoms: N_17  and  C_18
REMARK    5  A    between atoms: C_25  and  C_26
REMARK                            x       y       z     vdW  Elec       q    Type
REMARK                         _______ _______ _______ _____ _____    ______ ____
ROOT
ATOM      1  C   UNL     1       5.638   4.672  19.294  0.00  0.00    +0.000 C 
ATOM      2  C   UNL     1       5.472   5.084  17.869  0.00  0.00    +0.000 C 
ATOM      3  N   UNL     1       5.983   4.442  16.865  0.00  0.00    +0.000 NA
ATOM      4  N   UNL     1       5.747   5.216  15.744  0.00  0.00    +0.000 N 
ATOM      5  C   UNL     1       5.143   6.446  16.039  0.00  0.00    +0.000 C 
ATOM      6  O   UNL     1       4.948   7.429  15.343  0.00  0.00    +0.000 OA
ATOM      7  C   UNL     1       4.706   6.322  17.480  0.00  0.00    +0.000 C 
ENDROOT
BRANCH   7   8
ATOM      8  C   UNL     1       3.184   6.183  17.615  0.00  0.00    +0.000 C 
ATOM      9  C   UNL     1       2.516   7.498  17.963  0.00  0.00    +0.000 C 
ATOM     10  O   UNL     1       2.408   8.436  17.189  0.00  0.00    +0.000 OA
ATOM     11  N   UNL     1       2.128   7.356  19.299  0.00  0.00    +0.000 N 
ATOM     12  N   UNL     1       2.232   6.060  19.766  0.00  0.00    +0.000 NA
ATOM     13  C   UNL     1       2.752   5.363  18.803  0.00  0.00    +0.000 C 
ATOM     14  C   UNL     1       2.895   3.878  18.838  0.00  0.00    +0.000 C 
BRANCH  11  15
ATOM     15  C   UNL     1       1.595   8.350  20.155  0.00  0.00    +0.000 A 
ATOM     16  C   UNL     1       1.507   8.163  21.541  0.00  0.00    +0.000 A 
ATOM     17  C   UNL     1       0.973   9.155  22.369  0.00  0.00    +0.000 A 
ATOM     18  C   UNL     1       0.499  10.344  21.822  0.00  0.00    +0.000 A 
ATOM     19  C   UNL     1       0.563  10.542  20.446  0.00  0.00    +0.000 A 
ATOM     20  C   UNL     1       1.113   9.555  19.621  0.00  0.00    +0.000 A 
ENDBRANCH  11  15
ENDBRANCH   7   8
BRANCH   4  21
ATOM     21  C   UNL     1       6.193   4.754  14.480  0.00  0.00    +0.000 A 
ATOM     22  C   UNL     1       7.366   5.241  13.889  0.00  0.00    +0.000 A 
ATOM     23  C   UNL     1       7.796   4.772  12.643  0.00  0.00    +0.000 A 
ATOM     24  C   UNL     1       7.047   3.822  11.959  0.00  0.00    +0.000 A 
ATOM     25  C   UNL     1       5.867   3.340  12.519  0.00  0.00    +0.000 A 
ATOM     26  C   UNL     1       5.447   3.800  13.772  0.00  0.00    +0.000 A 
ENDBRANCH   4  21
TORSDOF 3
ENDMDL
MODEL 2
REMARK VINA RESULT:      -8.4      0.125      8.024
REMARK  Name = 
REMARK  5 active torsions:
REMARK  status: ('A' for Active; 'I' for Inactive)
REMARK    1  A    between atoms: C_1  and  C_2
REMARK    2  A    between atoms: N_4  and  C_5
REMARK    3  A    between atoms: C_13  and  C_14
REMARK    4  A    between atoms: N_17  and  C_18
REMARK    5  A    between atoms: C_25  and  C_26
REMARK                            x       y       z     vdW  Elec       q    Type
REMARK                         _______ _______ _______ _____ _____    ______ ____
ROOT
ATOM      1  C   UNL     1       2.899   3.987  18.767  0.00  0.00    +0.000 C 
ATOM      2  C   UNL     1       2.728   5.469  18.751  0.00  0.00    +0.000 C 
ATOM      3  N   UNL     1       2.197   6.149  19.719  0.00  0.00    +0.000 NA
ATOM      4  N   UNL     1       2.070   7.448  19.263  0.00  0.00    +0.000 N 
ATOM      5  C   UNL     1       2.444   7.601  17.921  0.00  0.00    +0.000 C 
ATOM      6  O   UNL     1       2.306   8.540  17.155  0.00  0.00    +0.000 OA
ATOM      7  C   UNL     1       3.138   6.306  17.567  0.00  0.00    +0.000 C 
ENDROOT
BRANCH   7   8
ATOM      8  C   UNL     1       4.657   6.483  17.424  0.00  0.00    +0.000 C 
ATOM      9  C   UNL     1       5.091   6.559  15.974  0.00  0.00    +0.000 C 
ATOM     10  O   UNL     1       4.865   7.508  15.242  0.00  0.00    +0.000 OA
ATOM     11  N   UNL     1       5.730   5.339  15.731  0.00  0.00    +0.000 N 
ATOM     12  N   UNL     1       5.979   4.611  16.879  0.00  0.00    +0.000 NA
ATOM     13  C   UNL     1       5.451   5.278  17.858  0.00  0.00    +0.000 C 
ATOM     14  C   UNL     1       5.624   4.917  19.296  0.00  0.00    +0.000 C 
BRANCH  11  15
ATOM     15  C   UNL     1       6.190   4.837  14.490  0.00  0.00    +0.000 A 
ATOM     16  C   UNL     1       7.375   5.298  13.898  0.00  0.00    +0.000 A 
ATOM     17  C   UNL     1       7.810   4.792  12.670  0.00  0.00    +0.000 A 
ATOM     18  C   UNL     1       7.057   3.831  12.001  0.00  0.00    +0.000 A 
ATOM     19  C   UNL     1       5.870   3.372  12.565  0.00  0.00    +0.000 A 
ATOM     20  C   UNL     1       5.446   3.866  13.802  0.00  0.00    +0.000 A 
ENDBRANCH  11  15
ENDBRANCH   7   8
BRANCH   4  21
ATOM     21  C   UNL     1       1.520   8.430  20.125  0.00  0.00    +0.000 A 
ATOM     22  C   UNL     1       1.021   9.645  19.634  0.00  0.00    +0.000 A 
ATOM     23  C   UNL     1       0.478  10.603  20.497  0.00  0.00    +0.000 A 
ATOM     24  C   UNL     1       0.444  10.369  21.867  0.00  0.00    +0.000 A 
ATOM     25  C   UNL     1       0.953   9.178  22.376  0.00  0.00    +0.000 A 
ATOM     26  C   UNL     1       1.483   8.215  21.510  0.00  0.00    +0.000 A 
ENDBRANCH   4  21
TORSDOF 3
ENDMDL
MODEL 3
REMARK VINA RESULT:      -8.4      0.101      1.338
REMARK  Name = 
REMARK  5 active torsions:
REMARK  status: ('A' for Active; 'I' for Inactive)
REMARK    1  A    between atoms: C_1  and  C_2
REMARK    2  A    between atoms: N_4  and  C_5
REMARK    3  A    between atoms: C_13  and  C_14
REMARK    4  A    between atoms: N_17  and  C_18
REMARK    5  A    between atoms: C_25  and  C_26
REMARK                            x       y       z     vdW  Elec       q    Type
REMARK                         _______ _______ _______ _____ _____    ______ ____
ROOT
ATOM      1  C   UNL     1       5.585   4.764  19.345  0.00  0.00    +0.000 C 
ATOM      2  C   UNL     1       5.411   5.158  17.916  0.00  0.00    +0.000 C 
ATOM      3  N   UNL     1       5.924   4.511  16.917  0.00  0.00    +0.000 NA
ATOM      4  N   UNL     1       5.677   5.272  15.789  0.00  0.00    +0.000 N 
ATOM      5  C   UNL     1       5.064   6.499  16.073  0.00  0.00    +0.000 C 
ATOM      6  O   UNL     1       4.858   7.472  15.367  0.00  0.00    +0.000 OA
ATOM      7  C   UNL     1       4.633   6.387  17.517  0.00  0.00    +0.000 C 
ENDROOT
BRANCH   7   8
ATOM      8  C   UNL     1       3.112   6.235  17.659  0.00  0.00    +0.000 C 
ATOM      9  C   UNL     1       2.434   7.548  17.993  0.00  0.00    +0.000 C 
ATOM     10  O   UNL     1       2.315   8.476  17.209  0.00  0.00    +0.000 OA
ATOM     11  N   UNL     1       2.052   7.419  19.332  0.00  0.00    +0.000 N 
ATOM     12  N   UNL     1       2.169   6.129  19.814  0.00  0.00    +0.000 NA
ATOM     13  C   UNL     1       2.692   5.425  18.858  0.00  0.00    +0.000 C 
ATOM     14  C   UNL     1       2.848   3.943  18.910  0.00  0.00    +0.000 C 
BRANCH  11  15
ATOM     15  C   UNL     1       1.513   8.418  20.178  0.00  0.00    +0.000 A 
ATOM     16  C   UNL     1       1.019   9.629  19.672  0.00  0.00    +0.000 A 
ATOM     17  C   UNL     1       0.495  10.605  20.524  0.00  0.00    +0.000 A 
ATOM     18  C   UNL     1       0.475  10.396  21.900  0.00  0.00    +0.000 A 
ATOM     19  C   UNL     1       0.976   9.208  22.424  0.00  0.00    +0.000 A 
ATOM     20  C   UNL     1       1.483   8.225  21.567  0.00  0.00    +0.000 A 
ENDBRANCH  11  15
ENDBRANCH   7   8
BRANCH   4  21
ATOM     21  C   UNL     1       6.123   4.799  14.528  0.00  0.00    +0.000 A 
ATOM     22  C   UNL     1       5.411   3.828  13.812  0.00  0.00    +0.000 A 
ATOM     23  C   UNL     1       5.861   3.375  12.567  0.00  0.00    +0.000 A 
ATOM     24  C   UNL     1       7.043   3.872  12.029  0.00  0.00    +0.000 A 
ATOM     25  C   UNL     1       7.776   4.821  12.735  0.00  0.00    +0.000 A 
ATOM     26  C   UNL     1       7.316   5.284  13.973  0.00  0.00    +0.000 A 
ENDBRANCH   4  21
TORSDOF 3
ENDMDL
MODEL 4
REMARK VINA RESULT:      -8.4      0.102      8.016
REMARK  Name = 
REMARK  5 active torsions:
REMARK  status: ('A' for Active; 'I' for Inactive)
REMARK    1  A    between atoms: C_1  and  C_2
REMARK    2  A    between atoms: N_4  and  C_5
REMARK    3  A    between atoms: C_13  and  C_14
REMARK    4  A    between atoms: N_17  and  C_18
REMARK    5  A    between atoms: C_25  and  C_26
REMARK                            x       y       z     vdW  Elec       q    Type
REMARK                         _______ _______ _______ _____ _____    ______ ____
ROOT
ATOM      1  C   UNL     1       3.065   3.892  18.950  0.00  0.00    +0.000 C 
ATOM      2  C   UNL     1       2.848   5.367  18.887  0.00  0.00    +0.000 C 
ATOM      3  N   UNL     1       2.318   6.064  19.843  0.00  0.00    +0.000 NA
ATOM      4  N   UNL     1       2.141   7.342  19.346  0.00  0.00    +0.000 N 
ATOM      5  C   UNL     1       2.480   7.459  17.991  0.00  0.00    +0.000 C 
ATOM      6  O   UNL     1       2.296   8.366  17.196  0.00  0.00    +0.000 OA
ATOM      7  C   UNL     1       3.205   6.174  17.665  0.00  0.00    +0.000 C 
ENDROOT
BRANCH   7   8
ATOM      8  C   UNL     1       4.714   6.390  17.480  0.00  0.00    +0.000 C 
ATOM      9  C   UNL     1       5.103   6.496  16.019  0.00  0.00    +0.000 C 
ATOM     10  O   UNL     1       4.832   7.449  15.307  0.00  0.00    +0.000 OA
ATOM     11  N   UNL     1       5.765   5.296  15.741  0.00  0.00    +0.000 N 
ATOM     12  N   UNL     1       6.065   4.560  16.872  0.00  0.00    +0.000 NA
ATOM     13  C   UNL     1       5.551   5.201  17.875  0.00  0.00    +0.000 C 
ATOM     14  C   UNL     1       5.775   4.826  19.302  0.00  0.00    +0.000 C 
BRANCH  11  15
ATOM     15  C   UNL     1       6.201   4.821  14.481  0.00  0.00    +0.000 A 
ATOM     16  C   UNL     1       5.504   3.823  13.785  0.00  0.00    +0.000 A 
ATOM     17  C   UNL     1       5.953   3.364  12.543  0.00  0.00    +0.000 A 
ATOM     18  C   UNL     1       7.120   3.880  11.986  0.00  0.00    +0.000 A 
ATOM     19  C   UNL     1       7.834   4.860  12.669  0.00  0.00    +0.000 A 
ATOM     20  C   UNL     1       7.373   5.330  13.902  0.00  0.00    +0.000 A 
ENDBRANCH  11  15
ENDBRANCH   7   8
BRANCH   4  21
ATOM     21  C   UNL     1       1.581   8.337  20.186  0.00  0.00    +0.000 A 
ATOM     22  C   UNL     1       1.474   8.156  21.572  0.00  0.00    +0.000 A 
ATOM     23  C   UNL     1       0.922   9.149  22.388  0.00  0.00    +0.000 A 
ATOM     24  C   UNL     1       0.450  10.331  21.829  0.00  0.00    +0.000 A 
ATOM     25  C   UNL     1       0.528  10.522  20.452  0.00  0.00    +0.000 A 
ATOM     26  C   UNL     1       1.093   9.533  19.639  0.00  0.00    +0.000 A 
ENDBRANCH   4  21
TORSDOF 3
ENDMDL
MODEL 5
REMARK VINA RESULT:      -8.2      6.166      9.319
REMARK  Name = 
REMARK  5 active torsions:
REMARK  status: ('A' for Active; 'I' for Inactive)
REMARK    1  A    between atoms: C_1  and  C_2
REMARK    2  A    between atoms: N_4  and  C_5
REMARK    3  A    between atoms: C_13  and  C_14
REMARK    4  A    between atoms: N_17  and  C_18
REMARK    5  A    between atoms: C_25  and  C_26
REMARK                            x       y       z     vdW  Elec       q    Type
REMARK                         _______ _______ _______ _____ _____    ______ ____
ROOT
ATOM      1  C   UNL     1       1.625   9.419  18.137  0.00  0.00    +0.000 C 
ATOM      2  C   UNL     1       0.573  10.442  18.405  0.00  0.00    +0.000 C 
ATOM      3  N   UNL     1      -0.690  10.262  18.174  0.00  0.00    +0.000 NA
ATOM      4  N   UNL     1      -1.307  11.479  18.396  0.00  0.00    +0.000 N 
ATOM      5  C   UNL     1      -0.405  12.510  18.692  0.00  0.00    +0.000 C 
ATOM      6  O   UNL     1      -0.569  13.716  18.774  0.00  0.00    +0.000 OA
ATOM      7  C   UNL     1       0.909  11.808  18.947  0.00  0.00    +0.000 C 
ENDROOT
BRANCH   7   8
ATOM      8  C   UNL     1       1.289  11.812  20.435  0.00  0.00    +0.000 C 
ATOM      9  C   UNL     1       0.102  11.517  21.330  0.00  0.00    +0.000 C 
ATOM     10  O   UNL     1      -0.430  10.423  21.421  0.00  0.00    +0.000 OA
ATOM     11  N   UNL     1      -0.199  12.741  21.935  0.00  0.00    +0.000 N 
ATOM     12  N   UNL     1       0.775  13.703  21.741  0.00  0.00    +0.000 NA
ATOM     13  C   UNL     1       1.665  13.173  20.961  0.00  0.00    +0.000 C 
ATOM     14  C   UNL     1       2.965  13.823  20.623  0.00  0.00    +0.000 C 
BRANCH  11  15
ATOM     15  C   UNL     1      -1.314  13.053  22.749  0.00  0.00    +0.000 A 
ATOM     16  C   UNL     1      -2.495  12.298  22.707  0.00  0.00    +0.000 A 
ATOM     17  C   UNL     1      -3.588  12.624  23.516  0.00  0.00    +0.000 A 
ATOM     18  C   UNL     1      -3.526  13.725  24.365  0.00  0.00    +0.000 A 
ATOM     19  C   UNL     1      -2.368  14.497  24.409  0.00  0.00    +0.000 A 
ATOM     20  C   UNL     1      -1.270  14.158  23.613  0.00  0.00    +0.000 A 
ENDBRANCH  11  15
ENDBRANCH   7   8
BRANCH   4  21
ATOM     21  C   UNL     1      -2.711  11.580  18.227  0.00  0.00    +0.000 A 
ATOM     22  C   UNL     1      -3.545  12.041  19.255  0.00  0.00    +0.000 A 
ATOM     23  C   UNL     1      -4.928  12.140  19.071  0.00  0.00    +0.000 A 
ATOM     24  C   UNL     1      -5.502  11.759  17.864  0.00  0.00    +0.000 A 
ATOM     25  C   UNL     1      -4.693  11.278  16.838  0.00  0.00    +0.000 A 
ATOM     26  C   UNL     1      -3.308  11.194  17.018  0.00  0.00    +0.000 A 
ENDBRANCH   4  21
TORSDOF 3
ENDMDL
MODEL 6
REMARK VINA RESULT:      -8.0      6.564     10.794
REMARK  Name = 
REMARK  5 active torsions:
REMARK  status: ('A' for Active; 'I' for Inactive)
REMARK    1  A    between atoms: C_1  and  C_2
REMARK    2  A    between atoms: N_4  and  C_5
REMARK    3  A    between atoms: C_13  and  C_14
REMARK    4  A    between atoms: N_17  and  C_18
REMARK    5  A    between atoms: C_25  and  C_26
REMARK                            x       y       z     vdW  Elec       q    Type
REMARK                         _______ _______ _______ _____ _____    ______ ____
ROOT
ATOM      1  C   UNL     1       0.973   8.936  22.365  0.00  0.00    +0.000 C 
ATOM      2  C   UNL     1       0.207  10.196  22.132  0.00  0.00    +0.000 C 
ATOM      3  N   UNL     1      -0.423  10.844  23.062  0.00  0.00    +0.000 NA
ATOM      4  N   UNL     1      -1.133  11.847  22.429  0.00  0.00    +0.000 N 
ATOM      5  C   UNL     1      -1.035  11.796  21.032  0.00  0.00    +0.000 C 
ATOM      6  O   UNL     1      -1.647  12.398  20.165  0.00  0.00    +0.000 OA
ATOM      7  C   UNL     1       0.076  10.808  20.761  0.00  0.00    +0.000 C 
ENDROOT
BRANCH   7   8
ATOM      8  C   UNL     1       1.354  11.496  20.261  0.00  0.00    +0.000 C 
ATOM      9  C   UNL     1       1.339  12.989  20.517  0.00  0.00    +0.000 C 
ATOM     10  O   UNL     1       1.443  13.495  21.623  0.00  0.00    +0.000 OA
ATOM     11  N   UNL     1       1.155  13.564  19.255  0.00  0.00    +0.000 N 
ATOM     12  N   UNL     1       1.299  12.663  18.217  0.00  0.00    +0.000 NA
ATOM     13  C   UNL     1       1.493  11.502  18.761  0.00  0.00    +0.000 C 
ATOM     14  C   UNL     1       1.848  10.274  17.991  0.00  0.00    +0.000 C 
BRANCH  11  15
ATOM     15  C   UNL     1       0.919  14.926  18.951  0.00  0.00    +0.000 A 
ATOM     16  C   UNL     1       1.959  15.796  18.597  0.00  0.00    +0.000 A 
ATOM     17  C   UNL     1       1.706  17.139  18.305  0.00  0.00    +0.000 A 
ATOM     18  C   UNL     1       0.410  17.641  18.381  0.00  0.00    +0.000 A 
ATOM     19  C   UNL     1      -0.634  16.797  18.747  0.00  0.00    +0.000 A 
ATOM     20  C   UNL     1      -0.381  15.449  19.022  0.00  0.00    +0.000 A 
ENDBRANCH  11  15
ENDBRANCH   7   8
BRANCH   4  21
ATOM     21  C   UNL     1      -1.918  12.733  23.208  0.00  0.00    +0.000 A 
ATOM     22  C   UNL     1      -3.237  12.425  23.569  0.00  0.00    +0.000 A 
ATOM     23  C   UNL     1      -3.999  13.308  24.343  0.00  0.00    +0.000 A 
ATOM     24  C   UNL     1      -3.460  14.522  24.750  0.00  0.00    +0.000 A 
ATOM     25  C   UNL     1      -2.159  14.857  24.384  0.00  0.00    +0.000 A 
ATOM     26  C   UNL     1      -1.394  13.967  23.623  0.00  0.00    +0.000 A 
ENDBRANCH   4  21
TORSDOF 3
ENDMDL
MODEL 7
REMARK VINA RESULT:      -8.0      7.831     11.964
REMARK  Name = 
REMARK  5 active torsions:
REMARK  status: ('A' for Active; 'I' for Inactive)
REMARK    1  A    between atoms: C_1  and  C_2
REMARK    2  A    between atoms: N_4  and  C_5
REMARK    3  A    between atoms: C_13  and  C_14
REMARK    4  A    between atoms: N_17  and  C_18
REMARK    5  A    between atoms: C_25  and  C_26
REMARK                            x       y       z     vdW  Elec       q    Type
REMARK                         _______ _______ _______ _____ _____    ______ ____
ROOT
ATOM      1  C   UNL     1      -4.560  16.920  21.644  0.00  0.00    +0.000 C 
ATOM      2  C   UNL     1      -4.515  15.429  21.589  0.00  0.00    +0.000 C 
ATOM      3  N   UNL     1      -5.192  14.713  20.747  0.00  0.00    +0.000 NA
ATOM      4  N   UNL     1      -5.009  13.394  21.117  0.00  0.00    +0.000 N 
ATOM      5  C   UNL     1      -4.263  13.249  22.295  0.00  0.00    +0.000 C 
ATOM      6  O   UNL     1      -4.054  12.271  22.994  0.00  0.00    +0.000 OA
ATOM      7  C   UNL     1      -3.683  14.621  22.552  0.00  0.00    +0.000 C 
ENDROOT
BRANCH   7   8
ATOM      8  C   UNL     1      -2.175  14.675  22.272  0.00  0.00    +0.000 C 
ATOM      9  C   UNL     1      -1.710  13.517  21.413  0.00  0.00    +0.000 C 
ATOM     10  O   UNL     1      -1.973  13.396  20.227  0.00  0.00    +0.000 OA
ATOM     11  N   UNL     1      -0.994  12.692  22.286  0.00  0.00    +0.000 N 
ATOM     12  N   UNL     1      -0.732  13.284  23.508  0.00  0.00    +0.000 NA
ATOM     13  C   UNL     1      -1.322  14.439  23.492  0.00  0.00    +0.000 C 
ATOM     14  C   UNL     1      -1.164  15.466  24.562  0.00  0.00    +0.000 C 
BRANCH  11  15
ATOM     15  C   UNL     1      -0.473  11.402  22.026  0.00  0.00    +0.000 A 
ATOM     16  C   UNL     1       0.292  11.129  20.884  0.00  0.00    +0.000 A 
ATOM     17  C   UNL     1       0.793   9.846  20.642  0.00  0.00    +0.000 A 
ATOM     18  C   UNL     1       0.520   8.809  21.530  0.00  0.00    +0.000 A 
ATOM     19  C   UNL     1      -0.251   9.056  22.662  0.00  0.00    +0.000 A 
ATOM     20  C   UNL     1      -0.736  10.344  22.910  0.00  0.00    +0.000 A 
ENDBRANCH  11  15
ENDBRANCH   7   8
BRANCH   4  21
ATOM     21  C   UNL     1      -5.633  12.372  20.358  0.00  0.00    +0.000 A 
ATOM     22  C   UNL     1      -6.771  11.699  20.824  0.00  0.00    +0.000 A 
ATOM     23  C   UNL     1      -7.378  10.695  20.062  0.00  0.00    +0.000 A 
ATOM     24  C   UNL     1      -6.844  10.335  18.830  0.00  0.00    +0.000 A 
ATOM     25  C   UNL     1      -5.702  10.977  18.358  0.00  0.00    +0.000 A 
ATOM     26  C   UNL     1      -5.105  11.990  19.116  0.00  0.00    +0.000 A 
ENDBRANCH   4  21
TORSDOF 3
ENDMDL
MODEL 8
REMARK VINA RESULT:      -8.0      6.697     11.033
REMARK  Name = 
REMARK  5 active torsions:
REMARK  status: ('A' for Active; 'I' for Inactive)
REMARK    1  A    between atoms: C_1  and  C_2
REMARK    2  A    between atoms: N_4  and  C_5
REMARK    3  A    between atoms: C_13  and  C_14
REMARK    4  A    between atoms: N_17  and  C_18
REMARK    5  A    between atoms: C_25  and  C_26
REMARK                            x       y       z     vdW  Elec       q    Type
REMARK                         _______ _______ _______ _____ _____    ______ ____
ROOT
ATOM      1  C   UNL     1       0.259   9.105  22.740  0.00  0.00    +0.000 C 
ATOM      2  C   UNL     1      -0.324  10.442  22.424  0.00  0.00    +0.000 C 
ATOM      3  N   UNL     1      -0.851  11.231  23.309  0.00  0.00    +0.000 NA
ATOM      4  N   UNL     1      -1.416  12.281  22.610  0.00  0.00    +0.000 N 
ATOM      5  C   UNL     1      -1.336  12.127  21.220  0.00  0.00    +0.000 C 
ATOM      6  O   UNL     1      -1.862  12.752  20.314  0.00  0.00    +0.000 OA
ATOM      7  C   UNL     1      -0.376  10.978  21.016  0.00  0.00    +0.000 C 
ENDROOT
BRANCH   7   8
ATOM      8  C   UNL     1       0.983  11.445  20.477  0.00  0.00    +0.000 C 
ATOM      9  C   UNL     1       1.170  12.943  20.616  0.00  0.00    +0.000 C 
ATOM     10  O   UNL     1       1.344  13.514  21.681  0.00  0.00    +0.000 OA
ATOM     11  N   UNL     1       1.064  13.437  19.312  0.00  0.00    +0.000 N 
ATOM     12  N   UNL     1       1.084  12.447  18.348  0.00  0.00    +0.000 NA
ATOM     13  C   UNL     1       1.119  11.316  18.982  0.00  0.00    +0.000 C 
ATOM     14  C   UNL     1       1.304   9.996  18.312  0.00  0.00    +0.000 C 
BRANCH  11  15
ATOM     15  C   UNL     1       1.015  14.790  18.902  0.00  0.00    +0.000 A 
ATOM     16  C   UNL     1      -0.198  15.484  18.784  0.00  0.00    +0.000 A 
ATOM     17  C   UNL     1      -0.226  16.820  18.372  0.00  0.00    +0.000 A 
ATOM     18  C   UNL     1       0.957  17.479  18.051  0.00  0.00    +0.000 A 
ATOM     19  C   UNL     1       2.170  16.802  18.145  0.00  0.00    +0.000 A 
ATOM     20  C   UNL     1       2.197  15.472  18.575  0.00  0.00    +0.000 A 
ENDBRANCH  11  15
ENDBRANCH   7   8
BRANCH   4  21
ATOM     21  C   UNL     1      -2.064  13.317  23.329  0.00  0.00    +0.000 A 
ATOM     22  C   UNL     1      -1.348  14.381  23.895  0.00  0.00    +0.000 A 
ATOM     23  C   UNL     1      -2.003  15.398  24.599  0.00  0.00    +0.000 A 
ATOM     24  C   UNL     1      -3.382  15.356  24.765  0.00  0.00    +0.000 A 
ATOM     25  C   UNL     1      -4.110  14.297  24.229  0.00  0.00    +0.000 A 
ATOM     26  C   UNL     1      -3.455  13.288  23.513  0.00  0.00    +0.000 A 
ENDBRANCH   4  21
TORSDOF 3
ENDMDL
MODEL 9
REMARK VINA RESULT:      -8.0      8.060     11.437
REMARK  Name = 
REMARK  5 active torsions:
REMARK  status: ('A' for Active; 'I' for Inactive)
REMARK    1  A    between atoms: C_1  and  C_2
REMARK    2  A    between atoms: N_4  and  C_5
REMARK    3  A    between atoms: C_13  and  C_14
REMARK    4  A    between atoms: N_17  and  C_18
REMARK    5  A    between atoms: C_25  and  C_26
REMARK                            x       y       z     vdW  Elec       q    Type
REMARK                         _______ _______ _______ _____ _____    ______ ____
ROOT
ATOM      1  C   UNL     1      -1.532  15.584  24.773  0.00  0.00    +0.000 C 
ATOM      2  C   UNL     1      -1.610  14.572  23.680  0.00  0.00    +0.000 C 
ATOM      3  N   UNL     1      -0.989  13.434  23.699  0.00  0.00    +0.000 NA
ATOM      4  N   UNL     1      -1.179  12.861  22.455  0.00  0.00    +0.000 N 
ATOM      5  C   UNL     1      -1.870  13.694  21.564  0.00  0.00    +0.000 C 
ATOM      6  O   UNL     1      -2.063  13.595  20.364  0.00  0.00    +0.000 OA
ATOM      7  C   UNL     1      -2.409  14.813  22.425  0.00  0.00    +0.000 C 
ENDROOT
BRANCH   7   8
ATOM      8  C   UNL     1      -3.928  14.712  22.624  0.00  0.00    +0.000 C 
ATOM      9  C   UNL     1      -4.451  13.319  22.337  0.00  0.00    +0.000 C 
ATOM     10  O   UNL     1      -4.246  12.351  23.051  0.00  0.00    +0.000 OA
ATOM     11  N   UNL     1      -5.139  13.440  21.125  0.00  0.00    +0.000 N 
ATOM     12  N   UNL     1      -5.333  14.752  20.734  0.00  0.00    +0.000 NA
ATOM     13  C   UNL     1      -4.726  15.491  21.611  0.00  0.00    +0.000 C 
ATOM     14  C   UNL     1      -4.817  16.979  21.646  0.00  0.00    +0.000 C 
BRANCH  11  15
ATOM     15  C   UNL     1      -5.691  12.403  20.336  0.00  0.00    +0.000 A 
ATOM     16  C   UNL     1      -6.838  11.702  20.734  0.00  0.00    +0.000 A 
ATOM     17  C   UNL     1      -7.366  10.677  19.943  0.00  0.00    +0.000 A 
ATOM     18  C   UNL     1      -6.743  10.321  18.750  0.00  0.00    +0.000 A 
ATOM     19  C   UNL     1      -5.594  10.995  18.346  0.00  0.00    +0.000 A 
ATOM     20  C   UNL     1      -5.078  12.032  19.130  0.00  0.00    +0.000 A 
ENDBRANCH  11  15
ENDBRANCH   7   8
BRANCH   4  21
ATOM     21  C   UNL     1      -0.613  11.590  22.187  0.00  0.00    +0.000 A 
ATOM     22  C   UNL     1       0.208  11.369  21.073  0.00  0.00    +0.000 A 
ATOM     23  C   UNL     1       0.763  10.109  20.825  0.00  0.00    +0.000 A 
ATOM     24  C   UNL     1       0.489   9.045  21.675  0.00  0.00    +0.000 A 
ATOM     25  C   UNL     1      -0.342   9.238  22.776  0.00  0.00    +0.000 A 
ATOM     26  C   UNL     1      -0.884  10.502  23.031  0.00  0.00    +0.000 A 
ENDBRANCH   4  21
TORSDOF 3
ENDMDL
