MODEL 1
REMARK VINA RESULT:      -9.4      0.000      0.000
REMARK  Name = 
REMARK  7 active torsions:
REMARK  status: ('A' for Active; 'I' for Inactive)
REMARK    1  A    between atoms: C_1  and  C_2
REMARK    2  A    between atoms: C_4  and  C_5
REMARK    3  A    between atoms: N_7  and  C_8
REMARK    4  A    between atoms: C_11  and  C_12
REMARK    5  A    between atoms: C_17  and  S_18
REMARK    6  A    between atoms: S_18  and  N_19
REMARK    7  A    between atoms: N_24  and  C_25
REMARK                            x       y       z     vdW  Elec       q    Type
REMARK                         _______ _______ _______ _____ _____    ______ ____
ROOT
ATOM      1  C   UNL     1       0.332  10.723  20.257  0.00  0.00    +0.000 C 
ATOM      2  O   UNL     1      -0.474   9.997  20.832  0.00  0.00    +0.000 OA
ATOM      3  N   UNL     1       1.375  10.268  19.475  0.00  0.00    +0.000 N 
ATOM      4  H   UNL     1       2.035  10.952  19.135  0.00  0.00    +0.000 HD
ENDROOT
BRANCH   1   8
ATOM      5  C   UNL     1       1.258  15.660  20.729  0.00  0.00    +0.000 C 
ATOM      6  C   UNL     1       0.663  14.327  20.475  0.00  0.00    +0.000 A 
ATOM      7  C   UNL     1       1.107  13.070  20.936  0.00  0.00    +0.000 A 
ATOM      8  C   UNL     1       0.235  12.154  20.379  0.00  0.00    +0.000 A 
ATOM      9  N   UNL     1      -0.750  12.902  19.751  0.00  0.00    +0.000 N 
ATOM     10  N   UNL     1      -0.414  14.216  19.691  0.00  0.00    +0.000 NA
BRANCH   9  11
ATOM     11  C   UNL     1      -2.007  12.467  19.250  0.00  0.00    +0.000 A 
ATOM     12  C   UNL     1      -2.076  11.877  17.988  0.00  0.00    +0.000 A 
ATOM     13  C   UNL     1      -3.294  11.365  17.530  0.00  0.00    +0.000 A 
ATOM     14  C   UNL     1      -4.466  11.492  18.296  0.00  0.00    +0.000 A 
ATOM     15  C   UNL     1      -5.692  10.960  17.861  0.00  0.00    +0.000 A 
ATOM     16  C   UNL     1      -6.854  11.132  18.616  0.00  0.00    +0.000 A 
ATOM     17  C   UNL     1      -6.811  11.854  19.803  0.00  0.00    +0.000 A 
ATOM     18  C   UNL     1      -5.597  12.366  20.263  0.00  0.00    +0.000 A 
ATOM     19  C   UNL     1      -4.413  12.172  19.533  0.00  0.00    +0.000 A 
ATOM     20  C   UNL     1      -3.175  12.631  20.012  0.00  0.00    +0.000 A 
ENDBRANCH   9  11
ENDBRANCH   1   8
BRANCH   3  21
ATOM     21  C   UNL     1       1.678   8.908  19.224  0.00  0.00    +0.000 A 
ATOM     22  C   UNL     1       1.757   7.946  20.222  0.00  0.00    +0.000 A 
ATOM     23  C   UNL     1       2.139   6.632  19.928  0.00  0.00    +0.000 A 
ATOM     24  C   UNL     1       2.386   6.194  18.612  0.00  0.00    +0.000 A 
ATOM     25  C   UNL     1       2.212   7.165  17.617  0.00  0.00    +0.000 A 
ATOM     26  C   UNL     1       1.905   8.508  17.912  0.00  0.00    +0.000 A 
BRANCH  24  27
ATOM     27  C   UNL     1       2.739   4.762  18.359  0.00  0.00    +0.000 A 
ATOM     28  C   UNL     1       1.663   3.834  18.292  0.00  0.00    +0.000 A 
ATOM     29  C   UNL     1       1.845   2.457  18.137  0.00  0.00    +0.000 A 
ATOM     30  C   UNL     1       3.121   1.947  18.005  0.00  0.00    +0.000 A 
ATOM     31  C   UNL     1       4.207   2.816  18.032  0.00  0.00    +0.000 A 
ATOM     32  C   UNL     1       4.034   4.207  18.213  0.00  0.00    +0.000 A 
BRANCH  32  33
ATOM     33  S   UNL     1       5.518   5.182  18.310  0.00  0.00    +0.000 S 
ATOM     34  O   UNL     1       5.557   6.115  17.206  0.00  0.00    +0.000 OA
ATOM     35  O   UNL     1       5.756   5.562  19.682  0.00  0.00    +0.000 OA
BRANCH  33  36
ATOM     36  N   UNL     1       6.779   4.127  17.935  0.00  0.00    +0.000 NA
ATOM     37  H   UNL     1       6.374   3.205  17.753  0.00  0.00    +0.000 HD
ATOM     38  H   UNL     1       7.308   4.501  17.146  0.00  0.00    +0.000 HD
ENDBRANCH  33  36
ENDBRANCH  32  33
ENDBRANCH  24  27
ENDBRANCH   3  21
TORSDOF 6
ENDMDL
MODEL 2
REMARK VINA RESULT:      -9.4      3.283      5.207
REMARK  Name = 
REMARK  7 active torsions:
REMARK  status: ('A' for Active; 'I' for Inactive)
REMARK    1  A    between atoms: C_1  and  C_2
REMARK    2  A    between atoms: C_4  and  C_5
REMARK    3  A    between atoms: N_7  and  C_8
REMARK    4  A    between atoms: C_11  and  C_12
REMARK    5  A    between atoms: C_17  and  S_18
REMARK    6  A    between atoms: S_18  and  N_19
REMARK    7  A    between atoms: N_24  and  C_25
REMARK                            x       y       z     vdW  Elec       q    Type
REMARK                         _______ _______ _______ _____ _____    ______ ____
ROOT
ATOM      1  C   UNL     1       0.712  10.235  21.478  0.00  0.00    +0.000 C 
ATOM      2  O   UNL     1       1.544   9.804  22.271  0.00  0.00    +0.000 OA
ATOM      3  N   UNL     1       0.576   9.803  20.175  0.00  0.00    +0.000 N 
ATOM      4  H   UNL     1      -0.074  10.300  19.583  0.00  0.00    +0.000 HD
ENDROOT
BRANCH   1   8
ATOM      5  C   UNL     1      -2.686  13.095  23.874  0.00  0.00    +0.000 C 
ATOM      6  C   UNL     1      -1.613  12.565  22.998  0.00  0.00    +0.000 A 
ATOM      7  C   UNL     1      -1.318  11.220  22.695  0.00  0.00    +0.000 A 
ATOM      8  C   UNL     1      -0.204  11.271  21.879  0.00  0.00    +0.000 A 
ATOM      9  N   UNL     1       0.015  12.616  21.621  0.00  0.00    +0.000 N 
ATOM     10  N   UNL     1      -0.756  13.406  22.412  0.00  0.00    +0.000 NA
BRANCH   9  11
ATOM     11  C   UNL     1       0.865  13.204  20.644  0.00  0.00    +0.000 A 
ATOM     12  C   UNL     1       0.427  13.299  19.323  0.00  0.00    +0.000 A 
ATOM     13  C   UNL     1       1.221  13.959  18.379  0.00  0.00    +0.000 A 
ATOM     14  C   UNL     1       2.482  14.473  18.726  0.00  0.00    +0.000 A 
ATOM     15  C   UNL     1       3.280  15.161  17.796  0.00  0.00    +0.000 A 
ATOM     16  C   UNL     1       4.547  15.628  18.148  0.00  0.00    +0.000 A 
ATOM     17  C   UNL     1       5.043  15.398  19.426  0.00  0.00    +0.000 A 
ATOM     18  C   UNL     1       4.254  14.740  20.370  0.00  0.00    +0.000 A 
ATOM     19  C   UNL     1       2.963  14.294  20.043  0.00  0.00    +0.000 A 
ATOM     20  C   UNL     1       2.136  13.682  21.000  0.00  0.00    +0.000 A 
ENDBRANCH   9  11
ENDBRANCH   1   8
BRANCH   3  21
ATOM     21  C   UNL     1       1.372   8.809  19.553  0.00  0.00    +0.000 A 
ATOM     22  C   UNL     1       1.792   7.654  20.199  0.00  0.00    +0.000 A 
ATOM     23  C   UNL     1       2.644   6.743  19.563  0.00  0.00    +0.000 A 
ATOM     24  C   UNL     1       3.054   6.901  18.225  0.00  0.00    +0.000 A 
ATOM     25  C   UNL     1       2.542   8.030  17.571  0.00  0.00    +0.000 A 
ATOM     26  C   UNL     1       1.750   8.992  18.228  0.00  0.00    +0.000 A 
BRANCH  24  27
ATOM     27  C   UNL     1       3.923   5.863  17.586  0.00  0.00    +0.000 A 
ATOM     28  C   UNL     1       5.155   6.305  17.029  0.00  0.00    +0.000 A 
ATOM     29  C   UNL     1       6.030   5.465  16.336  0.00  0.00    +0.000 A 
ATOM     30  C   UNL     1       5.727   4.125  16.200  0.00  0.00    +0.000 A 
ATOM     31  C   UNL     1       4.549   3.634  16.753  0.00  0.00    +0.000 A 
ATOM     32  C   UNL     1       3.646   4.481  17.434  0.00  0.00    +0.000 A 
BRANCH  32  33
ATOM     33  S   UNL     1       2.142   3.731  18.016  0.00  0.00    +0.000 S 
ATOM     34  O   UNL     1       2.187   3.611  19.456  0.00  0.00    +0.000 OA
ATOM     35  O   UNL     1       1.018   4.283  17.298  0.00  0.00    +0.000 OA
BRANCH  33  36
ATOM     36  N   UNL     1       2.218   2.121  17.517  0.00  0.00    +0.000 NA
ATOM     37  H   UNL     1       3.204   1.855  17.464  0.00  0.00    +0.000 HD
ATOM     38  H   UNL     1       1.675   1.544  18.161  0.00  0.00    +0.000 HD
ENDBRANCH  33  36
ENDBRANCH  32  33
ENDBRANCH  24  27
ENDBRANCH   3  21
TORSDOF 6
ENDMDL
MODEL 3
REMARK VINA RESULT:      -9.3      2.388      3.386
REMARK  Name = 
REMARK  7 active torsions:
REMARK  status: ('A' for Active; 'I' for Inactive)
REMARK    1  A    between atoms: C_1  and  C_2
REMARK    2  A    between atoms: C_4  and  C_5
REMARK    3  A    between atoms: N_7  and  C_8
REMARK    4  A    between atoms: C_11  and  C_12
REMARK    5  A    between atoms: C_17  and  S_18
REMARK    6  A    between atoms: S_18  and  N_19
REMARK    7  A    between atoms: N_24  and  C_25
REMARK                            x       y       z     vdW  Elec       q    Type
REMARK                         _______ _______ _______ _____ _____    ______ ____
ROOT
ATOM      1  C   UNL     1       0.145  11.233  20.711  0.00  0.00    +0.000 C 
ATOM      2  O   UNL     1       1.004  11.908  20.153  0.00  0.00    +0.000 OA
ATOM      3  N   UNL     1       0.067   9.856  20.647  0.00  0.00    +0.000 N 
ATOM      4  H   UNL     1      -0.741   9.415  21.061  0.00  0.00    +0.000 HD
ENDROOT
BRANCH   1   8
ATOM      5  C   UNL     1      -2.467  13.908  24.099  0.00  0.00    +0.000 C 
ATOM      6  C   UNL     1      -2.011  13.137  22.918  0.00  0.00    +0.000 A 
ATOM      7  C   UNL     1      -0.877  12.306  22.802  0.00  0.00    +0.000 A 
ATOM      8  C   UNL     1      -0.883  11.869  21.491  0.00  0.00    +0.000 A 
ATOM      9  N   UNL     1      -2.073  12.329  20.945  0.00  0.00    +0.000 N 
ATOM     10  N   UNL     1      -2.689  13.214  21.770  0.00  0.00    +0.000 NA
BRANCH   9  11
ATOM     11  C   UNL     1      -2.690  11.950  19.721  0.00  0.00    +0.000 A 
ATOM     12  C   UNL     1      -3.998  12.358  19.458  0.00  0.00    +0.000 A 
ATOM     13  C   UNL     1      -4.576  12.066  18.218  0.00  0.00    +0.000 A 
ATOM     14  C   UNL     1      -3.881  11.314  17.255  0.00  0.00    +0.000 A 
ATOM     15  C   UNL     1      -4.438  11.035  15.995  0.00  0.00    +0.000 A 
ATOM     16  C   UNL     1      -3.750  10.252  15.067  0.00  0.00    +0.000 A 
ATOM     17  C   UNL     1      -2.507   9.720  15.391  0.00  0.00    +0.000 A 
ATOM     18  C   UNL     1      -1.928  10.008  16.628  0.00  0.00    +0.000 A 
ATOM     19  C   UNL     1      -2.591  10.824  17.560  0.00  0.00    +0.000 A 
ATOM     20  C   UNL     1      -1.995  11.170  18.784  0.00  0.00    +0.000 A 
ENDBRANCH   9  11
ENDBRANCH   1   8
BRANCH   3  21
ATOM     21  C   UNL     1       0.954   9.017  19.928  0.00  0.00    +0.000 A 
ATOM     22  C   UNL     1       1.265   9.205  18.588  0.00  0.00    +0.000 A 
ATOM     23  C   UNL     1       2.086   8.300  17.906  0.00  0.00    +0.000 A 
ATOM     24  C   UNL     1       2.700   7.206  18.547  0.00  0.00    +0.000 A 
ATOM     25  C   UNL     1       2.439   7.094  19.919  0.00  0.00    +0.000 A 
ATOM     26  C   UNL     1       1.551   7.954  20.595  0.00  0.00    +0.000 A 
BRANCH  24  27
ATOM     27  C   UNL     1       3.610   6.305  17.772  0.00  0.00    +0.000 A 
ATOM     28  C   UNL     1       4.788   6.890  17.228  0.00  0.00    +0.000 A 
ATOM     29  C   UNL     1       5.690   6.191  16.422  0.00  0.00    +0.000 A 
ATOM     30  C   UNL     1       5.470   4.855  16.149  0.00  0.00    +0.000 A 
ATOM     31  C   UNL     1       4.349   4.227  16.682  0.00  0.00    +0.000 A 
ATOM     32  C   UNL     1       3.419   4.932  17.479  0.00  0.00    +0.000 A 
BRANCH  32  33
ATOM     33  S   UNL     1       1.991   4.021  18.021  0.00  0.00    +0.000 S 
ATOM     34  O   UNL     1       2.013   3.899  19.462  0.00  0.00    +0.000 OA
ATOM     35  O   UNL     1       0.833   4.451  17.276  0.00  0.00    +0.000 OA
BRANCH  33  36
ATOM     36  N   UNL     1       2.253   2.431  17.522  0.00  0.00    +0.000 NA
ATOM     37  H   UNL     1       2.644   1.913  18.312  0.00  0.00    +0.000 HD
ATOM     38  H   UNL     1       1.377   2.040  17.173  0.00  0.00    +0.000 HD
ENDBRANCH  33  36
ENDBRANCH  32  33
ENDBRANCH  24  27
ENDBRANCH   3  21
TORSDOF 6
ENDMDL
MODEL 4
REMARK VINA RESULT:      -9.3      2.351      3.191
REMARK  Name = 
REMARK  7 active torsions:
REMARK  status: ('A' for Active; 'I' for Inactive)
REMARK    1  A    between atoms: C_1  and  C_2
REMARK    2  A    between atoms: C_4  and  C_5
REMARK    3  A    between atoms: N_7  and  C_8
REMARK    4  A    between atoms: C_11  and  C_12
REMARK    5  A    between atoms: C_17  and  S_18
REMARK    6  A    between atoms: S_18  and  N_19
REMARK    7  A    between atoms: N_24  and  C_25
REMARK                            x       y       z     vdW  Elec       q    Type
REMARK                         _______ _______ _______ _____ _____    ______ ____
ROOT
ATOM      1  C   UNL     1      -0.362   9.875  21.164  0.00  0.00    +0.000 C 
ATOM      2  O   UNL     1      -0.799   8.779  21.505  0.00  0.00    +0.000 OA
ATOM      3  N   UNL     1       0.684  10.060  20.283  0.00  0.00    +0.000 N 
ATOM      4  H   UNL     1       1.025  11.002  20.155  0.00  0.00    +0.000 HD
ENDROOT
BRANCH   1   8
ATOM      5  C   UNL     1      -1.313  14.122  23.717  0.00  0.00    +0.000 C 
ATOM      6  C   UNL     1      -1.289  13.004  22.744  0.00  0.00    +0.000 A 
ATOM      7  C   UNL     1      -0.739  11.715  22.908  0.00  0.00    +0.000 A 
ATOM      8  C   UNL     1      -0.937  11.082  21.696  0.00  0.00    +0.000 A 
ATOM      9  N   UNL     1      -1.710  11.950  20.938  0.00  0.00    +0.000 N 
ATOM     10  N   UNL     1      -1.804  13.171  21.523  0.00  0.00    +0.000 NA
BRANCH   9  11
ATOM     11  C   UNL     1      -2.405  11.688  19.726  0.00  0.00    +0.000 A 
ATOM     12  C   UNL     1      -3.682  12.217  19.539  0.00  0.00    +0.000 A 
ATOM     13  C   UNL     1      -4.331  12.039  18.313  0.00  0.00    +0.000 A 
ATOM     14  C   UNL     1      -3.742  11.281  17.286  0.00  0.00    +0.000 A 
ATOM     15  C   UNL     1      -4.370  11.115  16.040  0.00  0.00    +0.000 A 
ATOM     16  C   UNL     1      -3.789  10.324  15.046  0.00  0.00    +0.000 A 
ATOM     17  C   UNL     1      -2.585   9.673  15.291  0.00  0.00    +0.000 A 
ATOM     18  C   UNL     1      -1.935   9.848  16.513  0.00  0.00    +0.000 A 
ATOM     19  C   UNL     1      -2.489  10.669  17.511  0.00  0.00    +0.000 A 
ATOM     20  C   UNL     1      -1.817  10.901  18.723  0.00  0.00    +0.000 A 
ENDBRANCH   9  11
ENDBRANCH   1   8
BRANCH   3  21
ATOM     21  C   UNL     1       1.414   9.025  19.648  0.00  0.00    +0.000 A 
ATOM     22  C   UNL     1       1.899   7.911  20.319  0.00  0.00    +0.000 A 
ATOM     23  C   UNL     1       2.683   6.958  19.658  0.00  0.00    +0.000 A 
ATOM     24  C   UNL     1       2.955   7.029  18.278  0.00  0.00    +0.000 A 
ATOM     25  C   UNL     1       2.377   8.117  17.610  0.00  0.00    +0.000 A 
ATOM     26  C   UNL     1       1.655   9.122  18.282  0.00  0.00    +0.000 A 
BRANCH  24  27
ATOM     27  C   UNL     1       3.755   5.949  17.621  0.00  0.00    +0.000 A 
ATOM     28  C   UNL     1       5.011   6.322  17.065  0.00  0.00    +0.000 A 
ATOM     29  C   UNL     1       5.830   5.440  16.357  0.00  0.00    +0.000 A 
ATOM     30  C   UNL     1       5.444   4.123  16.202  0.00  0.00    +0.000 A 
ATOM     31  C   UNL     1       4.239   3.698  16.753  0.00  0.00    +0.000 A 
ATOM     32  C   UNL     1       3.392   4.590  17.450  0.00  0.00    +0.000 A 
BRANCH  32  33
ATOM     33  S   UNL     1       1.847   3.926  18.026  0.00  0.00    +0.000 S 
ATOM     34  O   UNL     1       1.808   3.973  19.471  0.00  0.00    +0.000 OA
ATOM     35  O   UNL     1       0.774   4.401  17.185  0.00  0.00    +0.000 OA
BRANCH  33  36
ATOM     36  N   UNL     1       1.925   2.268  17.722  0.00  0.00    +0.000 NA
ATOM     37  H   UNL     1       1.886   1.781  18.620  0.00  0.00    +0.000 HD
ATOM     38  H   UNL     1       1.171   2.007  17.084  0.00  0.00    +0.000 HD
ENDBRANCH  33  36
ENDBRANCH  32  33
ENDBRANCH  24  27
ENDBRANCH   3  21
TORSDOF 6
ENDMDL
MODEL 5
REMARK VINA RESULT:      -8.9      3.306      4.923
REMARK  Name = 
REMARK  7 active torsions:
REMARK  status: ('A' for Active; 'I' for Inactive)
REMARK    1  A    between atoms: C_1  and  C_2
REMARK    2  A    between atoms: C_4  and  C_5
REMARK    3  A    between atoms: N_7  and  C_8
REMARK    4  A    between atoms: C_11  and  C_12
REMARK    5  A    between atoms: C_17  and  S_18
REMARK    6  A    between atoms: S_18  and  N_19
REMARK    7  A    between atoms: N_24  and  C_25
REMARK                            x       y       z     vdW  Elec       q    Type
REMARK                         _______ _______ _______ _____ _____    ______ ____
ROOT
ATOM      1  C   UNL     1       0.665  10.459  21.432  0.00  0.00    +0.000 C 
ATOM      2  O   UNL     1       1.613  10.176  22.158  0.00  0.00    +0.000 OA
ATOM      3  N   UNL     1       0.433   9.896  20.193  0.00  0.00    +0.000 N 
ATOM      4  H   UNL     1      -0.320  10.280  19.640  0.00  0.00    +0.000 HD
ENDROOT
BRANCH   1   8
ATOM      5  C   UNL     1      -2.913  13.095  23.820  0.00  0.00    +0.000 C 
ATOM      6  C   UNL     1      -1.789  12.642  22.967  0.00  0.00    +0.000 A 
ATOM      7  C   UNL     1      -1.443  11.324  22.605  0.00  0.00    +0.000 A 
ATOM      8  C   UNL     1      -0.296  11.447  21.846  0.00  0.00    +0.000 A 
ATOM      9  N   UNL     1      -0.103  12.810  21.671  0.00  0.00    +0.000 N 
ATOM     10  N   UNL     1      -0.930  13.535  22.467  0.00  0.00    +0.000 NA
BRANCH   9  11
ATOM     11  C   UNL     1       0.772  13.472  20.767  0.00  0.00    +0.000 A 
ATOM     12  C   UNL     1       1.970  12.859  20.398  0.00  0.00    +0.000 A 
ATOM     13  C   UNL     1       2.789  13.464  19.440  0.00  0.00    +0.000 A 
ATOM     14  C   UNL     1       2.456  14.712  18.887  0.00  0.00    +0.000 A 
ATOM     15  C   UNL     1       3.255  15.320  17.904  0.00  0.00    +0.000 A 
ATOM     16  C   UNL     1       2.930  16.579  17.396  0.00  0.00    +0.000 A 
ATOM     17  C   UNL     1       1.815  17.256  17.877  0.00  0.00    +0.000 A 
ATOM     18  C   UNL     1       0.995  16.656  18.833  0.00  0.00    +0.000 A 
ATOM     19  C   UNL     1       1.289  15.374  19.329  0.00  0.00    +0.000 A 
ATOM     20  C   UNL     1       0.441  14.734  20.249  0.00  0.00    +0.000 A 
ENDBRANCH   9  11
ENDBRANCH   1   8
BRANCH   3  21
ATOM     21  C   UNL     1       1.248   8.919  19.571  0.00  0.00    +0.000 A 
ATOM     22  C   UNL     1       1.696   7.774  20.217  0.00  0.00    +0.000 A 
ATOM     23  C   UNL     1       2.565   6.881  19.580  0.00  0.00    +0.000 A 
ATOM     24  C   UNL     1       2.967   7.044  18.241  0.00  0.00    +0.000 A 
ATOM     25  C   UNL     1       2.428   8.160  17.587  0.00  0.00    +0.000 A 
ATOM     26  C   UNL     1       1.617   9.106  18.244  0.00  0.00    +0.000 A 
BRANCH  24  27
ATOM     27  C   UNL     1       3.855   6.024  17.601  0.00  0.00    +0.000 A 
ATOM     28  C   UNL     1       5.084   6.489  17.055  0.00  0.00    +0.000 A 
ATOM     29  C   UNL     1       5.977   5.667  16.363  0.00  0.00    +0.000 A 
ATOM     30  C   UNL     1       5.695   4.323  16.216  0.00  0.00    +0.000 A 
ATOM     31  C   UNL     1       4.521   3.811  16.758  0.00  0.00    +0.000 A 
ATOM     32  C   UNL     1       3.600   4.639  17.438  0.00  0.00    +0.000 A 
BRANCH  32  33
ATOM     33  S   UNL     1       2.104   3.862  18.005  0.00  0.00    +0.000 S 
ATOM     34  O   UNL     1       2.115   3.787  19.449  0.00  0.00    +0.000 OA
ATOM     35  O   UNL     1       0.984   4.358  17.241  0.00  0.00    +0.000 OA
BRANCH  33  36
ATOM     36  N   UNL     1       2.240   2.241  17.558  0.00  0.00    +0.000 NA
ATOM     37  H   UNL     1       1.356   1.958  17.129  0.00  0.00    +0.000 HD
ATOM     38  H   UNL     1       3.046   2.128  16.942  0.00  0.00    +0.000 HD
ENDBRANCH  33  36
ENDBRANCH  32  33
ENDBRANCH  24  27
ENDBRANCH   3  21
TORSDOF 6
ENDMDL
MODEL 6
REMARK VINA RESULT:      -8.8      0.946      1.679
REMARK  Name = 
REMARK  7 active torsions:
REMARK  status: ('A' for Active; 'I' for Inactive)
REMARK    1  A    between atoms: C_1  and  C_2
REMARK    2  A    between atoms: C_4  and  C_5
REMARK    3  A    between atoms: N_7  and  C_8
REMARK    4  A    between atoms: C_11  and  C_12
REMARK    5  A    between atoms: C_17  and  S_18
REMARK    6  A    between atoms: S_18  and  N_19
REMARK    7  A    between atoms: N_24  and  C_25
REMARK                            x       y       z     vdW  Elec       q    Type
REMARK                         _______ _______ _______ _____ _____    ______ ____
ROOT
ATOM      1  C   UNL     1       1.265  11.154  20.575  0.00  0.00    +0.000 C 
ATOM      2  O   UNL     1       1.083  10.527  21.615  0.00  0.00    +0.000 OA
ATOM      3  N   UNL     1       1.617  10.583  19.369  0.00  0.00    +0.000 N 
ATOM      4  H   UNL     1       1.840  11.205  18.606  0.00  0.00    +0.000 HD
ENDROOT
BRANCH   1   8
ATOM      5  C   UNL     1       2.033  16.141  20.561  0.00  0.00    +0.000 C 
ATOM      6  C   UNL     1       1.481  14.770  20.439  0.00  0.00    +0.000 A 
ATOM      7  C   UNL     1       1.964  13.579  21.020  0.00  0.00    +0.000 A 
ATOM      8  C   UNL     1       1.123  12.586  20.557  0.00  0.00    +0.000 A 
ATOM      9  N   UNL     1       0.114  13.238  19.862  0.00  0.00    +0.000 N 
ATOM     10  N   UNL     1       0.409  14.550  19.674  0.00  0.00    +0.000 NA
BRANCH   9  11
ATOM     11  C   UNL     1      -1.128  12.717  19.409  0.00  0.00    +0.000 A 
ATOM     12  C   UNL     1      -2.231  12.730  20.264  0.00  0.00    +0.000 A 
ATOM     13  C   UNL     1      -3.476  12.303  19.792  0.00  0.00    +0.000 A 
ATOM     14  C   UNL     1      -3.622  11.803  18.487  0.00  0.00    +0.000 A 
ATOM     15  C   UNL     1      -4.872  11.395  17.989  0.00  0.00    +0.000 A 
ATOM     16  C   UNL     1      -4.991  10.862  16.705  0.00  0.00    +0.000 A 
ATOM     17  C   UNL     1      -3.862  10.710  15.907  0.00  0.00    +0.000 A 
ATOM     18  C   UNL     1      -2.618  11.134  16.375  0.00  0.00    +0.000 A 
ATOM     19  C   UNL     1      -2.486  11.705  17.653  0.00  0.00    +0.000 A 
ATOM     20  C   UNL     1      -1.251  12.189  18.114  0.00  0.00    +0.000 A 
ENDBRANCH   9  11
ENDBRANCH   1   8
BRANCH   3  21
ATOM     21  C   UNL     1       1.830   9.200  19.148  0.00  0.00    +0.000 A 
ATOM     22  C   UNL     1       1.742   8.244  20.151  0.00  0.00    +0.000 A 
ATOM     23  C   UNL     1       2.040   6.901  19.893  0.00  0.00    +0.000 A 
ATOM     24  C   UNL     1       2.363   6.433  18.605  0.00  0.00    +0.000 A 
ATOM     25  C   UNL     1       2.357   7.405  17.597  0.00  0.00    +0.000 A 
ATOM     26  C   UNL     1       2.137   8.771  17.862  0.00  0.00    +0.000 A 
BRANCH  24  27
ATOM     27  C   UNL     1       2.619   4.974  18.386  0.00  0.00    +0.000 A 
ATOM     28  C   UNL     1       1.482   4.120  18.334  0.00  0.00    +0.000 A 
ATOM     29  C   UNL     1       1.570   2.732  18.211  0.00  0.00    +0.000 A 
ATOM     30  C   UNL     1       2.809   2.132  18.098  0.00  0.00    +0.000 A 
ATOM     31  C   UNL     1       3.952   2.925  18.112  0.00  0.00    +0.000 A 
ATOM     32  C   UNL     1       3.874   4.328  18.260  0.00  0.00    +0.000 A 
BRANCH  32  33
ATOM     33  S   UNL     1       5.420   5.203  18.344  0.00  0.00    +0.000 S 
ATOM     34  O   UNL     1       5.505   6.143  17.249  0.00  0.00    +0.000 OA
ATOM     35  O   UNL     1       5.704   5.550  19.716  0.00  0.00    +0.000 OA
BRANCH  33  36
ATOM     36  N   UNL     1       6.603   4.070  17.938  0.00  0.00    +0.000 NA
ATOM     37  H   UNL     1       6.132   3.188  17.722  0.00  0.00    +0.000 HD
ATOM     38  H   UNL     1       7.164   4.432  17.166  0.00  0.00    +0.000 HD
ENDBRANCH  33  36
ENDBRANCH  32  33
ENDBRANCH  24  27
ENDBRANCH   3  21
TORSDOF 6
ENDMDL
MODEL 7
REMARK VINA RESULT:      -8.8      2.049      2.658
REMARK  Name = 
REMARK  7 active torsions:
REMARK  status: ('A' for Active; 'I' for Inactive)
REMARK    1  A    between atoms: C_1  and  C_2
REMARK    2  A    between atoms: C_4  and  C_5
REMARK    3  A    between atoms: N_7  and  C_8
REMARK    4  A    between atoms: C_11  and  C_12
REMARK    5  A    between atoms: C_17  and  S_18
REMARK    6  A    between atoms: S_18  and  N_19
REMARK    7  A    between atoms: N_24  and  C_25
REMARK                            x       y       z     vdW  Elec       q    Type
REMARK                         _______ _______ _______ _____ _____    ______ ____
ROOT
ATOM      1  C   UNL     1       0.282  11.397  19.251  0.00  0.00    +0.000 C 
ATOM      2  O   UNL     1      -0.767  10.872  18.891  0.00  0.00    +0.000 OA
ATOM      3  N   UNL     1       1.422  10.705  19.606  0.00  0.00    +0.000 N 
ATOM      4  H   UNL     1       2.193  11.237  19.984  0.00  0.00    +0.000 HD
ENDROOT
BRANCH   1   8
ATOM      5  C   UNL     1       1.076  16.302  18.372  0.00  0.00    +0.000 C 
ATOM      6  C   UNL     1       0.632  14.988  18.897  0.00  0.00    +0.000 A 
ATOM      7  C   UNL     1       1.196  13.718  18.660  0.00  0.00    +0.000 A 
ATOM      8  C   UNL     1       0.383  12.830  19.338  0.00  0.00    +0.000 A 
ATOM      9  N   UNL     1      -0.515  13.610  20.052  0.00  0.00    +0.000 N 
ATOM     10  N   UNL     1      -0.451  14.913  19.675  0.00  0.00    +0.000 NA
BRANCH   9  11
ATOM     11  C   UNL     1      -1.392  13.217  21.100  0.00  0.00    +0.000 A 
ATOM     12  C   UNL     1      -0.873  12.574  22.224  0.00  0.00    +0.000 A 
ATOM     13  C   UNL     1      -1.718  12.269  23.296  0.00  0.00    +0.000 A 
ATOM     14  C   UNL     1      -3.095  12.542  23.233  0.00  0.00    +0.000 A 
ATOM     15  C   UNL     1      -3.951  12.265  24.312  0.00  0.00    +0.000 A 
ATOM     16  C   UNL     1      -5.323  12.506  24.217  0.00  0.00    +0.000 A 
ATOM     17  C   UNL     1      -5.860  13.008  23.037  0.00  0.00    +0.000 A 
ATOM     18  C   UNL     1      -5.021  13.313  21.965  0.00  0.00    +0.000 A 
ATOM     19  C   UNL     1      -3.634  13.109  22.057  0.00  0.00    +0.000 A 
ATOM     20  C   UNL     1      -2.771  13.467  21.008  0.00  0.00    +0.000 A 
ENDBRANCH   9  11
ENDBRANCH   1   8
BRANCH   3  21
ATOM     21  C   UNL     1       1.556   9.294  19.615  0.00  0.00    +0.000 A 
ATOM     22  C   UNL     1       1.317   8.513  20.737  0.00  0.00    +0.000 A 
ATOM     23  C   UNL     1       1.541   7.131  20.713  0.00  0.00    +0.000 A 
ATOM     24  C   UNL     1       1.939   6.451  19.546  0.00  0.00    +0.000 A 
ATOM     25  C   UNL     1       2.086   7.254  18.407  0.00  0.00    +0.000 A 
ATOM     26  C   UNL     1       1.940   8.654  18.442  0.00  0.00    +0.000 A 
BRANCH  24  27
ATOM     27  C   UNL     1       2.110   4.965  19.573  0.00  0.00    +0.000 A 
ATOM     28  C   UNL     1       1.015   4.198  20.061  0.00  0.00    +0.000 A 
ATOM     29  C   UNL     1       1.058   2.810  20.215  0.00  0.00    +0.000 A 
ATOM     30  C   UNL     1       2.196   2.116  19.851  0.00  0.00    +0.000 A 
ATOM     31  C   UNL     1       3.284   2.815  19.339  0.00  0.00    +0.000 A 
ATOM     32  C   UNL     1       3.258   4.222  19.202  0.00  0.00    +0.000 A 
BRANCH  32  33
ATOM     33  S   UNL     1       4.751   4.987  18.612  0.00  0.00    +0.000 S 
ATOM     34  O   UNL     1       4.555   5.449  17.256  0.00  0.00    +0.000 OA
ATOM     35  O   UNL     1       5.321   5.803  19.657  0.00  0.00    +0.000 OA
BRANCH  33  36
ATOM     36  N   UNL     1       5.854   3.727  18.406  0.00  0.00    +0.000 NA
ATOM     37  H   UNL     1       6.445   3.954  17.603  0.00  0.00    +0.000 HD
ATOM     38  H   UNL     1       6.378   3.594  19.272  0.00  0.00    +0.000 HD
ENDBRANCH  33  36
ENDBRANCH  32  33
ENDBRANCH  24  27
ENDBRANCH   3  21
TORSDOF 6
ENDMDL
MODEL 8
REMARK VINA RESULT:      -8.8      2.838      4.970
REMARK  Name = 
REMARK  7 active torsions:
REMARK  status: ('A' for Active; 'I' for Inactive)
REMARK    1  A    between atoms: C_1  and  C_2
REMARK    2  A    between atoms: C_4  and  C_5
REMARK    3  A    between atoms: N_7  and  C_8
REMARK    4  A    between atoms: C_11  and  C_12
REMARK    5  A    between atoms: C_17  and  S_18
REMARK    6  A    between atoms: S_18  and  N_19
REMARK    7  A    between atoms: N_24  and  C_25
REMARK                            x       y       z     vdW  Elec       q    Type
REMARK                         _______ _______ _______ _____ _____    ______ ____
ROOT
ATOM      1  C   UNL     1      -0.166  10.716  19.593  0.00  0.00    +0.000 C 
ATOM      2  O   UNL     1      -0.467  10.689  18.403  0.00  0.00    +0.000 OA
ATOM      3  N   UNL     1       0.798   9.917  20.174  0.00  0.00    +0.000 N 
ATOM      4  H   UNL     1       0.890   9.953  21.179  0.00  0.00    +0.000 HD
ENDROOT
BRANCH   1   8
ATOM      5  C   UNL     1      -2.827  12.801  23.339  0.00  0.00    +0.000 C 
ATOM      6  C   UNL     1      -1.915  12.525  22.202  0.00  0.00    +0.000 A 
ATOM      7  C   UNL     1      -1.910  11.411  21.338  0.00  0.00    +0.000 A 
ATOM      8  C   UNL     1      -0.838  11.618  20.491  0.00  0.00    +0.000 A 
ATOM      9  N   UNL     1      -0.360  12.886  20.788  0.00  0.00    +0.000 N 
ATOM     10  N   UNL     1      -0.926  13.378  21.919  0.00  0.00    +0.000 NA
BRANCH   9  11
ATOM     11  C   UNL     1       0.556  13.683  20.048  0.00  0.00    +0.000 A 
ATOM     12  C   UNL     1       1.866  13.237  19.872  0.00  0.00    +0.000 A 
ATOM     13  C   UNL     1       2.744  13.972  19.069  0.00  0.00    +0.000 A 
ATOM     14  C   UNL     1       2.345  15.187  18.486  0.00  0.00    +0.000 A 
ATOM     15  C   UNL     1       3.207  15.923  17.655  0.00  0.00    +0.000 A 
ATOM     16  C   UNL     1       2.807  17.149  17.117  0.00  0.00    +0.000 A 
ATOM     17  C   UNL     1       1.551  17.664  17.418  0.00  0.00    +0.000 A 
ATOM     18  C   UNL     1       0.673  16.933  18.220  0.00  0.00    +0.000 A 
ATOM     19  C   UNL     1       1.047  15.683  18.740  0.00  0.00    +0.000 A 
ATOM     20  C   UNL     1       0.152  14.910  19.499  0.00  0.00    +0.000 A 
ENDBRANCH   9  11
ENDBRANCH   1   8
BRANCH   3  21
ATOM     21  C   UNL     1       1.575   8.945  19.497  0.00  0.00    +0.000 A 
ATOM     22  C   UNL     1       2.050   9.115  18.203  0.00  0.00    +0.000 A 
ATOM     23  C   UNL     1       2.747   8.090  17.552  0.00  0.00    +0.000 A 
ATOM     24  C   UNL     1       3.071   6.876  18.188  0.00  0.00    +0.000 A 
ATOM     25  C   UNL     1       2.657   6.770  19.522  0.00  0.00    +0.000 A 
ATOM     26  C   UNL     1       1.887   7.763  20.158  0.00  0.00    +0.000 A 
BRANCH  24  27
ATOM     27  C   UNL     1       3.865   5.841  17.453  0.00  0.00    +0.000 A 
ATOM     28  C   UNL     1       5.041   6.283  16.786  0.00  0.00    +0.000 A 
ATOM     29  C   UNL     1       5.839   5.447  16.000  0.00  0.00    +0.000 A 
ATOM     30  C   UNL     1       5.512   4.111  15.875  0.00  0.00    +0.000 A 
ATOM     31  C   UNL     1       4.389   3.620  16.533  0.00  0.00    +0.000 A 
ATOM     32  C   UNL     1       3.563   4.464  17.310  0.00  0.00    +0.000 A 
BRANCH  32  33
ATOM     33  S   UNL     1       2.116   3.716  18.024  0.00  0.00    +0.000 S 
ATOM     34  O   UNL     1       2.276   3.625  19.458  0.00  0.00    +0.000 OA
ATOM     35  O   UNL     1       0.935   4.245  17.386  0.00  0.00    +0.000 OA
BRANCH  33  36
ATOM     36  N   UNL     1       2.166   2.096  17.553  0.00  0.00    +0.000 NA
ATOM     37  H   UNL     1       1.213   1.808  17.319  0.00  0.00    +0.000 HD
ATOM     38  H   UNL     1       2.824   1.991  16.780  0.00  0.00    +0.000 HD
ENDBRANCH  33  36
ENDBRANCH  32  33
ENDBRANCH  24  27
ENDBRANCH   3  21
TORSDOF 6
ENDMDL
MODEL 9
REMARK VINA RESULT:      -8.7      3.261      5.173
REMARK  Name = 
REMARK  7 active torsions:
REMARK  status: ('A' for Active; 'I' for Inactive)
REMARK    1  A    between atoms: C_1  and  C_2
REMARK    2  A    between atoms: C_4  and  C_5
REMARK    3  A    between atoms: N_7  and  C_8
REMARK    4  A    between atoms: C_11  and  C_12
REMARK    5  A    between atoms: C_17  and  S_18
REMARK    6  A    between atoms: S_18  and  N_19
REMARK    7  A    between atoms: N_24  and  C_25
REMARK                            x       y       z     vdW  Elec       q    Type
REMARK                         _______ _______ _______ _____ _____    ______ ____
ROOT
ATOM      1  C   UNL     1       0.706  10.098  21.463  0.00  0.00    +0.000 C 
ATOM      2  O   UNL     1       1.576   9.743  22.254  0.00  0.00    +0.000 OA
ATOM      3  N   UNL     1       0.593   9.638  20.166  0.00  0.00    +0.000 N 
ATOM      4  H   UNL     1      -0.098  10.076  19.575  0.00  0.00    +0.000 HD
ENDROOT
BRANCH   1   8
ATOM      5  C   UNL     1      -2.905  12.701  23.838  0.00  0.00    +0.000 C 
ATOM      6  C   UNL     1      -1.790  12.252  22.970  0.00  0.00    +0.000 A 
ATOM      7  C   UNL     1      -1.399  10.932  22.665  0.00  0.00    +0.000 A 
ATOM      8  C   UNL     1      -0.283  11.064  21.860  0.00  0.00    +0.000 A 
ATOM      9  N   UNL     1      -0.157  12.423  21.608  0.00  0.00    +0.000 N 
ATOM     10  N   UNL     1      -0.989  13.153  22.396  0.00  0.00    +0.000 NA
BRANCH   9  11
ATOM     11  C   UNL     1       0.657  13.073  20.642  0.00  0.00    +0.000 A 
ATOM     12  C   UNL     1       0.219  13.157  19.320  0.00  0.00    +0.000 A 
ATOM     13  C   UNL     1       0.974  13.875  18.386  0.00  0.00    +0.000 A 
ATOM     14  C   UNL     1       2.200  14.461  18.744  0.00  0.00    +0.000 A 
ATOM     15  C   UNL     1       2.956  15.208  17.825  0.00  0.00    +0.000 A 
ATOM     16  C   UNL     1       4.191  15.749  18.187  0.00  0.00    +0.000 A 
ATOM     17  C   UNL     1       4.696  15.535  19.464  0.00  0.00    +0.000 A 
ATOM     18  C   UNL     1       3.946  14.819  20.398  0.00  0.00    +0.000 A 
ATOM     19  C   UNL     1       2.686  14.298  20.060  0.00  0.00    +0.000 A 
ATOM     20  C   UNL     1       1.895  13.625  21.007  0.00  0.00    +0.000 A 
ENDBRANCH   9  11
ENDBRANCH   1   8
BRANCH   3  21
ATOM     21  C   UNL     1       1.458   8.701  19.550  0.00  0.00    +0.000 A 
ATOM     22  C   UNL     1       1.968   8.861  18.268  0.00  0.00    +0.000 A 
ATOM     23  C   UNL     1       2.755   7.866  17.677  0.00  0.00    +0.000 A 
ATOM     24  C   UNL     1       3.136   6.697  18.365  0.00  0.00    +0.000 A 
ATOM     25  C   UNL     1       2.681   6.606  19.687  0.00  0.00    +0.000 A 
ATOM     26  C   UNL     1       1.824   7.564  20.262  0.00  0.00    +0.000 A 
BRANCH  24  27
ATOM     27  C   UNL     1       4.024   5.696  17.694  0.00  0.00    +0.000 A 
ATOM     28  C   UNL     1       5.301   6.152  17.263  0.00  0.00    +0.000 A 
ATOM     29  C   UNL     1       6.203   5.352  16.557  0.00  0.00    +0.000 A 
ATOM     30  C   UNL     1       5.881   4.038  16.280  0.00  0.00    +0.000 A 
ATOM     31  C   UNL     1       4.657   3.533  16.707  0.00  0.00    +0.000 A 
ATOM     32  C   UNL     1       3.728   4.342  17.400  0.00  0.00    +0.000 A 
BRANCH  32  33
ATOM     33  S   UNL     1       2.171   3.585  17.810  0.00  0.00    +0.000 S 
ATOM     34  O   UNL     1       1.091   4.476  17.450  0.00  0.00    +0.000 OA
ATOM     35  O   UNL     1       2.205   2.188  17.450  0.00  0.00    +0.000 OA
BRANCH  33  36
ATOM     36  N   UNL     1       2.096   3.590  19.495  0.00  0.00    +0.000 NA
ATOM     37  H   UNL     1       1.320   4.195  19.773  0.00  0.00    +0.000 HD
ATOM     38  H   UNL     1       2.005   2.630  19.830  0.00  0.00    +0.000 HD
ENDBRANCH  33  36
ENDBRANCH  32  33
ENDBRANCH  24  27
ENDBRANCH   3  21
TORSDOF 6
ENDMDL
