MODEL 1
REMARK VINA RESULT:      -9.3      0.000      0.000
REMARK  Name = 
REMARK  6 active torsions:
REMARK  status: ('A' for Active; 'I' for Inactive)
REMARK    1  A    between atoms: C_1  and  C_2
REMARK    2  A    between atoms: C_5  and  C_6
REMARK    3  A    between atoms: C_6  and  N_7
REMARK    4  A    between atoms: C_14  and  C_15
REMARK    5  A    between atoms: C_18  and  O_19
REMARK    6  A    between atoms: C_24  and  C_25
REMARK                            x       y       z     vdW  Elec       q    Type
REMARK                         _______ _______ _______ _____ _____    ______ ____
ROOT
ATOM      1  N   UNL     1       1.407   6.368  21.060  0.00  0.00    +0.000 N 
ATOM      2  C   UNL     1       1.763   5.172  20.474  0.00  0.00    +0.000 A 
ATOM      3  C   UNL     1       0.939   3.958  20.775  0.00  0.00    +0.000 A 
ATOM      4  C   UNL     1       1.237   2.808  20.154  0.00  0.00    +0.000 A 
ATOM      5  C   UNL     1       2.322   2.765  19.258  0.00  0.00    +0.000 A 
ATOM      6  N   UNL     1       2.794   1.781  18.528  0.00  0.00    +0.000 NA
ATOM      7  C   UNL     1       3.859   2.322  17.858  0.00  0.00    +0.000 A 
ATOM      8  C   UNL     1       4.052   3.660  18.172  0.00  0.00    +0.000 A 
ATOM      9  N   UNL     1       3.041   3.936  19.079  0.00  0.00    +0.000 N 
ATOM     10  N   UNL     1       2.789   5.144  19.668  0.00  0.00    +0.000 NA
ATOM     11  H   UNL     1       0.509   6.410  21.525  0.00  0.00    +0.000 HD
ENDROOT
BRANCH   8  12
ATOM     12  C   UNL     1       5.087   4.595  17.719  0.00  0.00    +0.000 A 
ATOM     13  C   UNL     1       4.982   5.293  16.507  0.00  0.00    +0.000 A 
ATOM     14  C   UNL     1       5.958   6.215  16.117  0.00  0.00    +0.000 A 
ATOM     15  C   UNL     1       7.061   6.428  16.934  0.00  0.00    +0.000 A 
ATOM     16  C   UNL     1       7.207   5.728  18.123  0.00  0.00    +0.000 A 
ATOM     17  C   UNL     1       6.226   4.813  18.513  0.00  0.00    +0.000 A 
BRANCH  15  18
ATOM     18  O   UNL     1       8.029   7.326  16.600  0.00  0.00    +0.000 OA
ATOM     19  H   UNL     1       8.895   6.901  16.708  0.00  0.00    +0.000 HD
ENDBRANCH  15  18
ENDBRANCH   8  12
BRANCH   1  20
ATOM     20  C   UNL     1       1.808   7.631  20.459  0.00  0.00    +0.000 C 
BRANCH  20  25
ATOM     21  C   UNL     1      -1.406  11.966  22.715  0.00  0.00    +0.000 C 
ATOM     22  C   UNL     1      -0.574  10.859  22.137  0.00  0.00    +0.000 A 
ATOM     23  C   UNL     1      -0.105   9.816  22.935  0.00  0.00    +0.000 A 
ATOM     24  C   UNL     1       0.677   8.799  22.379  0.00  0.00    +0.000 A 
ATOM     25  C   UNL     1       1.007   8.793  21.011  0.00  0.00    +0.000 A 
ATOM     26  C   UNL     1       0.524   9.837  20.196  0.00  0.00    +0.000 A 
ATOM     27  C   UNL     1       0.793   9.926  18.718  0.00  0.00    +0.000 C 
ATOM     28  C   UNL     1      -0.255  10.860  20.775  0.00  0.00    +0.000 A 
ENDBRANCH  20  25
ENDBRANCH   1  20
TORSDOF 4
ENDMDL
MODEL 2
REMARK VINA RESULT:      -9.3      0.959      1.412
REMARK  Name = 
REMARK  6 active torsions:
REMARK  status: ('A' for Active; 'I' for Inactive)
REMARK    1  A    between atoms: C_1  and  C_2
REMARK    2  A    between atoms: C_5  and  C_6
REMARK    3  A    between atoms: C_6  and  N_7
REMARK    4  A    between atoms: C_14  and  C_15
REMARK    5  A    between atoms: C_18  and  O_19
REMARK    6  A    between atoms: C_24  and  C_25
REMARK                            x       y       z     vdW  Elec       q    Type
REMARK                         _______ _______ _______ _____ _____    ______ ____
ROOT
ATOM      1  N   UNL     1       1.802   6.362  20.828  0.00  0.00    +0.000 N 
ATOM      2  C   UNL     1       2.003   5.068  20.395  0.00  0.00    +0.000 A 
ATOM      3  C   UNL     1       1.158   3.980  20.984  0.00  0.00    +0.000 A 
ATOM      4  C   UNL     1       1.299   2.732  20.518  0.00  0.00    +0.000 A 
ATOM      5  C   UNL     1       2.246   2.472  19.509  0.00  0.00    +0.000 A 
ATOM      6  N   UNL     1       2.554   1.357  18.888  0.00  0.00    +0.000 NA
ATOM      7  C   UNL     1       3.547   1.708  18.012  0.00  0.00    +0.000 A 
ATOM      8  C   UNL     1       3.861   3.057  18.087  0.00  0.00    +0.000 A 
ATOM      9  N   UNL     1       3.001   3.543  19.060  0.00  0.00    +0.000 N 
ATOM     10  N   UNL     1       2.905   4.840  19.480  0.00  0.00    +0.000 NA
ATOM     11  H   UNL     1       0.980   6.543  21.391  0.00  0.00    +0.000 HD
ENDROOT
BRANCH   8  12
ATOM     12  C   UNL     1       4.877   3.831  17.366  0.00  0.00    +0.000 A 
ATOM     13  C   UNL     1       6.038   4.304  17.995  0.00  0.00    +0.000 A 
ATOM     14  C   UNL     1       7.016   4.999  17.278  0.00  0.00    +0.000 A 
ATOM     15  C   UNL     1       6.826   5.243  15.924  0.00  0.00    +0.000 A 
ATOM     16  C   UNL     1       5.673   4.814  15.282  0.00  0.00    +0.000 A 
ATOM     17  C   UNL     1       4.701   4.113  16.001  0.00  0.00    +0.000 A 
BRANCH  15  18
ATOM     18  O   UNL     1       7.759   5.904  15.182  0.00  0.00    +0.000 OA
ATOM     19  H   UNL     1       8.294   6.451  15.779  0.00  0.00    +0.000 HD
ENDBRANCH  15  18
ENDBRANCH   8  12
BRANCH   1  20
ATOM     20  C   UNL     1       2.191   7.487  19.991  0.00  0.00    +0.000 C 
BRANCH  20  25
ATOM     21  C   UNL     1      -1.436  11.976  20.945  0.00  0.00    +0.000 C 
ATOM     22  C   UNL     1      -0.499  10.829  20.703  0.00  0.00    +0.000 A 
ATOM     23  C   UNL     1      -0.268   9.865  21.683  0.00  0.00    +0.000 A 
ATOM     24  C   UNL     1       0.617   8.810  21.441  0.00  0.00    +0.000 A 
ATOM     25  C   UNL     1       1.291   8.686  20.212  0.00  0.00    +0.000 A 
ATOM     26  C   UNL     1       1.050   9.649  19.211  0.00  0.00    +0.000 A 
ATOM     27  C   UNL     1       1.695   9.609  17.851  0.00  0.00    +0.000 C 
ATOM     28  C   UNL     1       0.163  10.713  19.476  0.00  0.00    +0.000 A 
ENDBRANCH  20  25
ENDBRANCH   1  20
TORSDOF 4
ENDMDL
MODEL 3
REMARK VINA RESULT:      -9.1      0.665      1.142
REMARK  Name = 
REMARK  6 active torsions:
REMARK  status: ('A' for Active; 'I' for Inactive)
REMARK    1  A    between atoms: C_1  and  C_2
REMARK    2  A    between atoms: C_5  and  C_6
REMARK    3  A    between atoms: C_6  and  N_7
REMARK    4  A    between atoms: C_14  and  C_15
REMARK    5  A    between atoms: C_18  and  O_19
REMARK    6  A    between atoms: C_24  and  C_25
REMARK                            x       y       z     vdW  Elec       q    Type
REMARK                         _______ _______ _______ _____ _____    ______ ____
ROOT
ATOM      1  N   UNL     1       1.214   6.672  21.106  0.00  0.00    +0.000 N 
ATOM      2  C   UNL     1       1.710   5.527  20.518  0.00  0.00    +0.000 A 
ATOM      3  C   UNL     1       0.936   4.254  20.674  0.00  0.00    +0.000 A 
ATOM      4  C   UNL     1       1.374   3.154  20.047  0.00  0.00    +0.000 A 
ATOM      5  C   UNL     1       2.555   3.216  19.282  0.00  0.00    +0.000 A 
ATOM      6  N   UNL     1       3.167   2.296  18.574  0.00  0.00    +0.000 NA
ATOM      7  C   UNL     1       4.265   2.929  18.054  0.00  0.00    +0.000 A 
ATOM      8  C   UNL     1       4.337   4.259  18.441  0.00  0.00    +0.000 A 
ATOM      9  N   UNL     1       3.213   4.434  19.234  0.00  0.00    +0.000 N 
ATOM     10  N   UNL     1       2.820   5.596  19.836  0.00  0.00    +0.000 NA
ATOM     11  H   UNL     1       0.268   6.640  21.464  0.00  0.00    +0.000 HD
ENDROOT
BRANCH   8  12
ATOM     12  C   UNL     1       5.355   5.273  18.148  0.00  0.00    +0.000 A 
ATOM     13  C   UNL     1       6.591   5.300  18.810  0.00  0.00    +0.000 A 
ATOM     14  C   UNL     1       7.566   6.247  18.483  0.00  0.00    +0.000 A 
ATOM     15  C   UNL     1       7.298   7.191  17.499  0.00  0.00    +0.000 A 
ATOM     16  C   UNL     1       6.072   7.207  16.850  0.00  0.00    +0.000 A 
ATOM     17  C   UNL     1       5.104   6.255  17.174  0.00  0.00    +0.000 A 
BRANCH  15  18
ATOM     18  O   UNL     1       8.223   8.124  17.138  0.00  0.00    +0.000 OA
ATOM     19  H   UNL     1       8.789   7.745  16.446  0.00  0.00    +0.000 HD
ENDBRANCH  15  18
ENDBRANCH   8  12
BRANCH   1  20
ATOM     20  C   UNL     1       1.600   7.983  20.606  0.00  0.00    +0.000 C 
BRANCH  20  25
ATOM     21  C   UNL     1      -1.813  12.071  23.023  0.00  0.00    +0.000 C 
ATOM     22  C   UNL     1      -0.930  11.027  22.405  0.00  0.00    +0.000 A 
ATOM     23  C   UNL     1      -0.526   9.904  23.126  0.00  0.00    +0.000 A 
ATOM     24  C   UNL     1       0.304   8.948  22.534  0.00  0.00    +0.000 A 
ATOM     25  C   UNL     1       0.750   9.084  21.206  0.00  0.00    +0.000 A 
ATOM     26  C   UNL     1       0.334  10.210  20.468  0.00  0.00    +0.000 A 
ATOM     27  C   UNL     1       0.727  10.453  19.036  0.00  0.00    +0.000 C 
ATOM     28  C   UNL     1      -0.496  11.170  21.083  0.00  0.00    +0.000 A 
ENDBRANCH  20  25
ENDBRANCH   1  20
TORSDOF 4
ENDMDL
MODEL 4
REMARK VINA RESULT:      -8.9      1.143      2.117
REMARK  Name = 
REMARK  6 active torsions:
REMARK  status: ('A' for Active; 'I' for Inactive)
REMARK    1  A    between atoms: C_1  and  C_2
REMARK    2  A    between atoms: C_5  and  C_6
REMARK    3  A    between atoms: C_6  and  N_7
REMARK    4  A    between atoms: C_14  and  C_15
REMARK    5  A    between atoms: C_18  and  O_19
REMARK    6  A    between atoms: C_24  and  C_25
REMARK                            x       y       z     vdW  Elec       q    Type
REMARK                         _______ _______ _______ _____ _____    ______ ____
ROOT
ATOM      1  N   UNL     1       1.877   6.651  20.575  0.00  0.00    +0.000 N 
ATOM      2  C   UNL     1       2.034   5.332  20.203  0.00  0.00    +0.000 A 
ATOM      3  C   UNL     1       1.155   4.301  20.843  0.00  0.00    +0.000 A 
ATOM      4  C   UNL     1       1.253   3.029  20.435  0.00  0.00    +0.000 A 
ATOM      5  C   UNL     1       2.190   2.691  19.438  0.00  0.00    +0.000 A 
ATOM      6  N   UNL     1       2.459   1.539  18.870  0.00  0.00    +0.000 NA
ATOM      7  C   UNL     1       3.461   1.816  17.978  0.00  0.00    +0.000 A 
ATOM      8  C   UNL     1       3.819   3.156  17.989  0.00  0.00    +0.000 A 
ATOM      9  N   UNL     1       2.979   3.715  18.939  0.00  0.00    +0.000 N 
ATOM     10  N   UNL     1       2.925   5.033  19.298  0.00  0.00    +0.000 NA
ATOM     11  H   UNL     1       1.062   6.884  21.130  0.00  0.00    +0.000 HD
ENDROOT
BRANCH   8  12
ATOM     12  C   UNL     1       4.858   3.861  17.232  0.00  0.00    +0.000 A 
ATOM     13  C   UNL     1       6.056   4.284  17.827  0.00  0.00    +0.000 A 
ATOM     14  C   UNL     1       7.054   4.913  17.076  0.00  0.00    +0.000 A 
ATOM     15  C   UNL     1       6.846   5.142  15.722  0.00  0.00    +0.000 A 
ATOM     16  C   UNL     1       5.658   4.763  15.113  0.00  0.00    +0.000 A 
ATOM     17  C   UNL     1       4.667   4.128  15.866  0.00  0.00    +0.000 A 
BRANCH  15  18
ATOM     18  O   UNL     1       7.796   5.739  14.948  0.00  0.00    +0.000 OA
ATOM     19  H   UNL     1       7.352   6.321  14.310  0.00  0.00    +0.000 HD
ENDBRANCH  15  18
ENDBRANCH   8  12
BRANCH   1  20
ATOM     20  C   UNL     1       2.300   7.722  19.687  0.00  0.00    +0.000 C 
BRANCH  20  25
ATOM     21  C   UNL     1      -1.560  12.094  19.238  0.00  0.00    +0.000 C 
ATOM     22  C   UNL     1      -0.576  10.967  19.355  0.00  0.00    +0.000 A 
ATOM     23  C   UNL     1      -0.096  10.307  18.224  0.00  0.00    +0.000 A 
ATOM     24  C   UNL     1       0.812   9.253  18.355  0.00  0.00    +0.000 A 
ATOM     25  C   UNL     1       1.270   8.832  19.618  0.00  0.00    +0.000 A 
ATOM     26  C   UNL     1       0.800   9.504  20.764  0.00  0.00    +0.000 A 
ATOM     27  C   UNL     1       1.234   9.159  22.163  0.00  0.00    +0.000 C 
ATOM     28  C   UNL     1      -0.124  10.559  20.615  0.00  0.00    +0.000 A 
ENDBRANCH  20  25
ENDBRANCH   1  20
TORSDOF 4
ENDMDL
MODEL 5
REMARK VINA RESULT:      -8.5      1.154      1.687
REMARK  Name = 
REMARK  6 active torsions:
REMARK  status: ('A' for Active; 'I' for Inactive)
REMARK    1  A    between atoms: C_1  and  C_2
REMARK    2  A    between atoms: C_5  and  C_6
REMARK    3  A    between atoms: C_6  and  N_7
REMARK    4  A    between atoms: C_14  and  C_15
REMARK    5  A    between atoms: C_18  and  O_19
REMARK    6  A    between atoms: C_24  and  C_25
REMARK                            x       y       z     vdW  Elec       q    Type
REMARK                         _______ _______ _______ _____ _____    ______ ____
ROOT
ATOM      1  N   UNL     1       1.530   6.740  21.187  0.00  0.00    +0.000 N 
ATOM      2  C   UNL     1       1.722   5.597  20.439  0.00  0.00    +0.000 A 
ATOM      3  C   UNL     1       0.742   4.474  20.589  0.00  0.00    +0.000 A 
ATOM      4  C   UNL     1       0.882   3.390  19.815  0.00  0.00    +0.000 A 
ATOM      5  C   UNL     1       1.951   3.325  18.900  0.00  0.00    +0.000 A 
ATOM      6  N   UNL     1       2.286   2.394  18.037  0.00  0.00    +0.000 NA
ATOM      7  C   UNL     1       3.414   2.875  17.426  0.00  0.00    +0.000 A 
ATOM      8  C   UNL     1       3.786   4.119  17.913  0.00  0.00    +0.000 A 
ATOM      9  N   UNL     1       2.821   4.402  18.867  0.00  0.00    +0.000 N 
ATOM     10  N   UNL     1       2.734   5.542  19.617  0.00  0.00    +0.000 NA
ATOM     11  H   UNL     1       0.646   6.838  21.670  0.00  0.00    +0.000 HD
ENDROOT
BRANCH   8  12
ATOM     12  C   UNL     1       4.937   4.961  17.570  0.00  0.00    +0.000 A 
ATOM     13  C   UNL     1       4.856   5.977  16.607  0.00  0.00    +0.000 A 
ATOM     14  C   UNL     1       5.953   6.799  16.329  0.00  0.00    +0.000 A 
ATOM     15  C   UNL     1       7.149   6.591  17.004  0.00  0.00    +0.000 A 
ATOM     16  C   UNL     1       7.267   5.573  17.939  0.00  0.00    +0.000 A 
ATOM     17  C   UNL     1       6.166   4.760  18.219  0.00  0.00    +0.000 A 
BRANCH  15  18
ATOM     18  O   UNL     1       8.239   7.376  16.775  0.00  0.00    +0.000 OA
ATOM     19  H   UNL     1       9.020   6.804  16.701  0.00  0.00    +0.000 HD
ENDBRANCH  15  18
ENDBRANCH   8  12
BRANCH   1  20
ATOM     20  C   UNL     1       2.097   8.008  20.754  0.00  0.00    +0.000 C 
BRANCH  20  25
ATOM     21  C   UNL     1      -1.975  11.127  17.943  0.00  0.00    +0.000 C 
ATOM     22  C   UNL     1      -0.925  10.334  18.665  0.00  0.00    +0.000 A 
ATOM     23  C   UNL     1      -1.013  10.099  20.036  0.00  0.00    +0.000 A 
ATOM     24  C   UNL     1      -0.020   9.366  20.692  0.00  0.00    +0.000 A 
ATOM     25  C   UNL     1       1.086   8.843  19.995  0.00  0.00    +0.000 A 
ATOM     26  C   UNL     1       1.174   9.065  18.606  0.00  0.00    +0.000 A 
ATOM     27  C   UNL     1       2.296   8.539  17.752  0.00  0.00    +0.000 C 
ATOM     28  C   UNL     1       0.168   9.815  17.962  0.00  0.00    +0.000 A 
ENDBRANCH  20  25
ENDBRANCH   1  20
TORSDOF 4
ENDMDL
MODEL 6
REMARK VINA RESULT:      -8.5      1.343      2.113
REMARK  Name = 
REMARK  6 active torsions:
REMARK  status: ('A' for Active; 'I' for Inactive)
REMARK    1  A    between atoms: C_1  and  C_2
REMARK    2  A    between atoms: C_5  and  C_6
REMARK    3  A    between atoms: C_6  and  N_7
REMARK    4  A    between atoms: C_14  and  C_15
REMARK    5  A    between atoms: C_18  and  O_19
REMARK    6  A    between atoms: C_24  and  C_25
REMARK                            x       y       z     vdW  Elec       q    Type
REMARK                         _______ _______ _______ _____ _____    ______ ____
ROOT
ATOM      1  N   UNL     1       1.363   6.911  21.180  0.00  0.00    +0.000 N 
ATOM      2  C   UNL     1       1.769   5.816  20.446  0.00  0.00    +0.000 A 
ATOM      3  C   UNL     1       0.877   4.613  20.408  0.00  0.00    +0.000 A 
ATOM      4  C   UNL     1       1.231   3.573  19.641  0.00  0.00    +0.000 A 
ATOM      5  C   UNL     1       2.435   3.628  18.913  0.00  0.00    +0.000 A 
ATOM      6  N   UNL     1       2.982   2.760  18.094  0.00  0.00    +0.000 NA
ATOM      7  C   UNL     1       4.149   3.351  17.687  0.00  0.00    +0.000 A 
ATOM      8  C   UNL     1       4.330   4.603  18.257  0.00  0.00    +0.000 A 
ATOM      9  N   UNL     1       3.204   4.772  19.048  0.00  0.00    +0.000 N 
ATOM     10  N   UNL     1       2.902   5.873  19.800  0.00  0.00    +0.000 NA
ATOM     11  H   UNL     1       0.408   6.920  21.514  0.00  0.00    +0.000 HD
ENDROOT
BRANCH   8  12
ATOM     12  C   UNL     1       5.446   5.546  18.127  0.00  0.00    +0.000 A 
ATOM     13  C   UNL     1       6.638   5.394  18.852  0.00  0.00    +0.000 A 
ATOM     14  C   UNL     1       7.707   6.279  18.678  0.00  0.00    +0.000 A 
ATOM     15  C   UNL     1       7.579   7.337  17.788  0.00  0.00    +0.000 A 
ATOM     16  C   UNL     1       6.400   7.529  17.081  0.00  0.00    +0.000 A 
ATOM     17  C   UNL     1       5.338   6.639  17.252  0.00  0.00    +0.000 A 
BRANCH  15  18
ATOM     18  O   UNL     1       8.599   8.215  17.577  0.00  0.00    +0.000 OA
ATOM     19  H   UNL     1       9.220   8.151  18.320  0.00  0.00    +0.000 HD
ENDBRANCH  15  18
ENDBRANCH   8  12
BRANCH   1  20
ATOM     20  C   UNL     1       1.883   8.236  20.875  0.00  0.00    +0.000 C 
BRANCH  20  25
ATOM     21  C   UNL     1      -1.996  11.195  17.649  0.00  0.00    +0.000 C 
ATOM     22  C   UNL     1      -0.995  10.443  18.478  0.00  0.00    +0.000 A 
ATOM     23  C   UNL     1      -1.171  10.282  19.851  0.00  0.00    +0.000 A 
ATOM     24  C   UNL     1      -0.223   9.586  20.607  0.00  0.00    +0.000 A 
ATOM     25  C   UNL     1       0.924   9.028  20.011  0.00  0.00    +0.000 A 
ATOM     26  C   UNL     1       1.100   9.176  18.620  0.00  0.00    +0.000 A 
ATOM     27  C   UNL     1       2.273   8.606  17.869  0.00  0.00    +0.000 C 
ATOM     28  C   UNL     1       0.139   9.889  17.874  0.00  0.00    +0.000 A 
ENDBRANCH  20  25
ENDBRANCH   1  20
TORSDOF 4
ENDMDL
MODEL 7
REMARK VINA RESULT:      -8.4      1.150      2.035
REMARK  Name = 
REMARK  6 active torsions:
REMARK  status: ('A' for Active; 'I' for Inactive)
REMARK    1  A    between atoms: C_1  and  C_2
REMARK    2  A    between atoms: C_5  and  C_6
REMARK    3  A    between atoms: C_6  and  N_7
REMARK    4  A    between atoms: C_14  and  C_15
REMARK    5  A    between atoms: C_18  and  O_19
REMARK    6  A    between atoms: C_24  and  C_25
REMARK                            x       y       z     vdW  Elec       q    Type
REMARK                         _______ _______ _______ _____ _____    ______ ____
ROOT
ATOM      1  N   UNL     1       1.423   6.471  21.240  0.00  0.00    +0.000 N 
ATOM      2  C   UNL     1       1.813   5.465  20.381  0.00  0.00    +0.000 A 
ATOM      3  C   UNL     1       0.898   4.294  20.194  0.00  0.00    +0.000 A 
ATOM      4  C   UNL     1       1.237   3.347  19.308  0.00  0.00    +0.000 A 
ATOM      5  C   UNL     1       2.448   3.466  18.597  0.00  0.00    +0.000 A 
ATOM      6  N   UNL     1       2.984   2.692  17.681  0.00  0.00    +0.000 NA
ATOM      7  C   UNL     1       4.164   3.306  17.355  0.00  0.00    +0.000 A 
ATOM      8  C   UNL     1       4.366   4.475  18.073  0.00  0.00    +0.000 A 
ATOM      9  N   UNL     1       3.237   4.570  18.873  0.00  0.00    +0.000 N 
ATOM     10  N   UNL     1       2.951   5.577  19.752  0.00  0.00    +0.000 NA
ATOM     11  H   UNL     1       0.465   6.459  21.568  0.00  0.00    +0.000 HD
ENDROOT
BRANCH   8  12
ATOM     12  C   UNL     1       5.500   5.405  18.064  0.00  0.00    +0.000 A 
ATOM     13  C   UNL     1       5.550   6.510  17.202  0.00  0.00    +0.000 A 
ATOM     14  C   UNL     1       6.619   7.410  17.242  0.00  0.00    +0.000 A 
ATOM     15  C   UNL     1       7.659   7.194  18.136  0.00  0.00    +0.000 A 
ATOM     16  C   UNL     1       7.652   6.092  18.978  0.00  0.00    +0.000 A 
ATOM     17  C   UNL     1       6.578   5.199  18.941  0.00  0.00    +0.000 A 
BRANCH  15  18
ATOM     18  O   UNL     1       8.715   8.052  18.219  0.00  0.00    +0.000 OA
ATOM     19  H   UNL     1       8.422   8.857  18.675  0.00  0.00    +0.000 HD
ENDBRANCH  15  18
ENDBRANCH   8  12
BRANCH   1  20
ATOM     20  C   UNL     1       1.970   7.812  21.100  0.00  0.00    +0.000 C 
BRANCH  20  25
ATOM     21  C   UNL     1      -1.455  11.411  18.014  0.00  0.00    +0.000 C 
ATOM     22  C   UNL     1      -0.582  10.481  18.804  0.00  0.00    +0.000 A 
ATOM     23  C   UNL     1       0.493   9.821  18.211  0.00  0.00    +0.000 A 
ATOM     24  C   UNL     1       1.289   8.951  18.963  0.00  0.00    +0.000 A 
ATOM     25  C   UNL     1       1.035   8.721  20.328  0.00  0.00    +0.000 A 
ATOM     26  C   UNL     1      -0.042   9.396  20.937  0.00  0.00    +0.000 A 
ATOM     27  C   UNL     1      -0.397   9.247  22.392  0.00  0.00    +0.000 C 
ATOM     28  C   UNL     1      -0.840  10.263  20.162  0.00  0.00    +0.000 A 
ENDBRANCH  20  25
ENDBRANCH   1  20
TORSDOF 4
ENDMDL
MODEL 8
REMARK VINA RESULT:      -8.4      0.753      1.611
REMARK  Name = 
REMARK  6 active torsions:
REMARK  status: ('A' for Active; 'I' for Inactive)
REMARK    1  A    between atoms: C_1  and  C_2
REMARK    2  A    between atoms: C_5  and  C_6
REMARK    3  A    between atoms: C_6  and  N_7
REMARK    4  A    between atoms: C_14  and  C_15
REMARK    5  A    between atoms: C_18  and  O_19
REMARK    6  A    between atoms: C_24  and  C_25
REMARK                            x       y       z     vdW  Elec       q    Type
REMARK                         _______ _______ _______ _____ _____    ______ ____
ROOT
ATOM      1  N   UNL     1       1.463   6.747  20.882  0.00  0.00    +0.000 N 
ATOM      2  C   UNL     1       1.716   5.502  20.345  0.00  0.00    +0.000 A 
ATOM      3  C   UNL     1       0.797   4.373  20.697  0.00  0.00    +0.000 A 
ATOM      4  C   UNL     1       0.996   3.178  20.125  0.00  0.00    +0.000 A 
ATOM      5  C   UNL     1       2.070   3.009  19.229  0.00  0.00    +0.000 A 
ATOM      6  N   UNL     1       2.456   1.960  18.541  0.00  0.00    +0.000 NA
ATOM      7  C   UNL     1       3.559   2.384  17.847  0.00  0.00    +0.000 A 
ATOM      8  C   UNL     1       3.863   3.713  18.105  0.00  0.00    +0.000 A 
ATOM      9  N   UNL     1       2.882   4.109  19.001  0.00  0.00    +0.000 N 
ATOM     10  N   UNL     1       2.733   5.356  19.539  0.00  0.00    +0.000 NA
ATOM     11  H   UNL     1       0.573   6.881  21.346  0.00  0.00    +0.000 HD
ENDROOT
BRANCH   8  12
ATOM     12  C   UNL     1       4.969   4.541  17.612  0.00  0.00    +0.000 A 
ATOM     13  C   UNL     1       4.836   5.368  16.488  0.00  0.00    +0.000 A 
ATOM     14  C   UNL     1       5.889   6.185  16.063  0.00  0.00    +0.000 A 
ATOM     15  C   UNL     1       7.093   6.159  16.754  0.00  0.00    +0.000 A 
ATOM     16  C   UNL     1       7.263   5.327  17.851  0.00  0.00    +0.000 A 
ATOM     17  C   UNL     1       6.207   4.519  18.277  0.00  0.00    +0.000 A 
BRANCH  15  18
ATOM     18  O   UNL     1       8.142   6.948  16.384  0.00  0.00    +0.000 OA
ATOM     19  H   UNL     1       7.909   7.402  15.558  0.00  0.00    +0.000 HD
ENDBRANCH  15  18
ENDBRANCH   8  12
BRANCH   1  20
ATOM     20  C   UNL     1       1.963   7.947  20.228  0.00  0.00    +0.000 C 
BRANCH  20  25
ATOM     21  C   UNL     1      -2.046  12.167  19.652  0.00  0.00    +0.000 C 
ATOM     22  C   UNL     1      -1.024  11.078  19.801  0.00  0.00    +0.000 A 
ATOM     23  C   UNL     1      -0.468  10.451  18.686  0.00  0.00    +0.000 A 
ATOM     24  C   UNL     1       0.475   9.433  18.847  0.00  0.00    +0.000 A 
ATOM     25  C   UNL     1       0.894   9.015  20.124  0.00  0.00    +0.000 A 
ATOM     26  C   UNL     1       0.347   9.654  21.255  0.00  0.00    +0.000 A 
ATOM     27  C   UNL     1       0.732   9.310  22.669  0.00  0.00    +0.000 C 
ATOM     28  C   UNL     1      -0.612  10.673  21.076  0.00  0.00    +0.000 A 
ENDBRANCH  20  25
ENDBRANCH   1  20
TORSDOF 4
ENDMDL
MODEL 9
REMARK VINA RESULT:      -8.3      0.979      2.114
REMARK  Name = 
REMARK  6 active torsions:
REMARK  status: ('A' for Active; 'I' for Inactive)
REMARK    1  A    between atoms: C_1  and  C_2
REMARK    2  A    between atoms: C_5  and  C_6
REMARK    3  A    between atoms: C_6  and  N_7
REMARK    4  A    between atoms: C_14  and  C_15
REMARK    5  A    between atoms: C_18  and  O_19
REMARK    6  A    between atoms: C_24  and  C_25
REMARK                            x       y       z     vdW  Elec       q    Type
REMARK                         _______ _______ _______ _____ _____    ______ ____
ROOT
ATOM      1  N   UNL     1       1.473   6.597  21.264  0.00  0.00    +0.000 N 
ATOM      2  C   UNL     1       1.730   5.500  20.468  0.00  0.00    +0.000 A 
ATOM      3  C   UNL     1       0.767   4.353  20.503  0.00  0.00    +0.000 A 
ATOM      4  C   UNL     1       0.972   3.315  19.681  0.00  0.00    +0.000 A 
ATOM      5  C   UNL     1       2.092   3.319  18.827  0.00  0.00    +0.000 A 
ATOM      6  N   UNL     1       2.494   2.442  17.936  0.00  0.00    +0.000 NA
ATOM      7  C   UNL     1       3.645   2.975  17.417  0.00  0.00    +0.000 A 
ATOM      8  C   UNL     1       3.962   4.198  17.990  0.00  0.00    +0.000 A 
ATOM      9  N   UNL     1       2.940   4.412  18.901  0.00  0.00    +0.000 N 
ATOM     10  N   UNL     1       2.788   5.508  19.704  0.00  0.00    +0.000 NA
ATOM     11  H   UNL     1       0.561   6.653  21.700  0.00  0.00    +0.000 HD
ENDROOT
BRANCH   8  12
ATOM     12  C   UNL     1       5.114   5.077  17.759  0.00  0.00    +0.000 A 
ATOM     13  C   UNL     1       6.419   4.701  18.105  0.00  0.00    +0.000 A 
ATOM     14  C   UNL     1       7.508   5.535  17.833  0.00  0.00    +0.000 A 
ATOM     15  C   UNL     1       7.290   6.766  17.229  0.00  0.00    +0.000 A 
ATOM     16  C   UNL     1       6.006   7.177  16.903  0.00  0.00    +0.000 A 
ATOM     17  C   UNL     1       4.922   6.338  17.170  0.00  0.00    +0.000 A 
BRANCH  15  18
ATOM     18  O   UNL     1       8.323   7.605  16.933  0.00  0.00    +0.000 OA
ATOM     19  H   UNL     1       7.956   8.431  16.579  0.00  0.00    +0.000 HD
ENDBRANCH  15  18
ENDBRANCH   8  12
BRANCH   1  20
ATOM     20  C   UNL     1       2.037   7.896  20.932  0.00  0.00    +0.000 C 
BRANCH  20  25
ATOM     21  C   UNL     1      -1.617  11.338  17.931  0.00  0.00    +0.000 C 
ATOM     22  C   UNL     1      -0.685  10.448  18.700  0.00  0.00    +0.000 A 
ATOM     23  C   UNL     1       0.382   9.807  18.073  0.00  0.00    +0.000 A 
ATOM     24  C   UNL     1       1.233   8.974  18.805  0.00  0.00    +0.000 A 
ATOM     25  C   UNL     1       1.045   8.763  20.184  0.00  0.00    +0.000 A 
ATOM     26  C   UNL     1      -0.024   9.421  20.827  0.00  0.00    +0.000 A 
ATOM     27  C   UNL     1      -0.311   9.291  22.298  0.00  0.00    +0.000 C 
ATOM     28  C   UNL     1      -0.879  10.250  20.071  0.00  0.00    +0.000 A 
ENDBRANCH  20  25
ENDBRANCH   1  20
TORSDOF 4
ENDMDL
