MODEL 1
REMARK VINA RESULT:      -8.0      0.000      0.000
REMARK  Name = 
REMARK  9 active torsions:
REMARK  status: ('A' for Active; 'I' for Inactive)
REMARK    1  A    between atoms: C_1  and  O_2
REMARK    2  A    between atoms: O_2  and  C_3
REMARK    3  A    between atoms: C_8  and  C_9
REMARK    4  A    between atoms: C_9  and  N_10
REMARK    5  A    between atoms: C_11  and  C_13
REMARK    6  A    between atoms: C_13  and  C_14
REMARK    7  A    between atoms: C_14  and  C_15
REMARK    8  A    between atoms: C_15  and  N_16
REMARK    9  A    between atoms: C_18  and  C_19
REMARK                            x       y       z     vdW  Elec       q    Type
REMARK                         _______ _______ _______ _____ _____    ______ ____
ROOT
ATOM      1  C   UNL     1       1.189   8.497  19.805  0.00  0.00    +0.000 C 
ENDROOT
BRANCH   1   2
ATOM      2  N   UNL     1       2.091   7.366  19.551  0.00  0.00    +0.000 N 
ATOM      3  N   UNL     1       1.935   6.314  20.458  0.00  0.00    +0.000 NA
ATOM      4  C   UNL     1       2.480   5.170  20.187  0.00  0.00    +0.000 A 
ATOM      5  C   UNL     1       2.393   4.051  21.193  0.00  0.00    +0.000 C 
ATOM      6  C   UNL     1       3.198   4.980  18.955  0.00  0.00    +0.000 A 
ATOM      7  S   UNL     1       3.607   3.465  18.344  0.00  0.00    +0.000 S 
ATOM      8  C   UNL     1       4.412   4.155  17.001  0.00  0.00    +0.000 A 
ATOM      9  C   UNL     1       5.018   3.436  15.950  0.00  0.00    +0.000 A 
ATOM     10  C   UNL     1       5.774   4.125  15.008  0.00  0.00    +0.000 A 
ATOM     11  C   UNL     1       5.917   5.502  15.111  0.00  0.00    +0.000 A 
ATOM     12  C   UNL     1       5.230   6.226  16.105  0.00  0.00    +0.000 A 
ATOM     13  C   UNL     1       4.429   5.559  17.070  0.00  0.00    +0.000 A 
ATOM     14  C   UNL     1       3.551   6.022  18.133  0.00  0.00    +0.000 A 
ATOM     15  C   UNL     1       2.993   7.354  18.446  0.00  0.00    +0.000 A 
ATOM     16  O   UNL     1       3.227   8.339  17.756  0.00  0.00    +0.000 OA
ENDBRANCH   1   2
BRANCH   1  17
ATOM     17  C   UNL     1       0.607   8.507  21.219  0.00  0.00    +0.000 C 
BRANCH  17  18
ATOM     18  C   UNL     1       0.993   9.772  21.999  0.00  0.00    +0.000 C 
BRANCH  18  20
ATOM     19  N   UNL     1      -0.832  10.770  20.731  0.00  0.00    +0.000 N 
ATOM     20  C   UNL     1       0.330  11.017  21.428  0.00  0.00    +0.000 C 
ATOM     21  O   UNL     1       0.810  12.135  21.579  0.00  0.00    +0.000 OA
ATOM     22  H   UNL     1      -1.230   9.842  20.725  0.00  0.00    +0.000 HD
BRANCH  19  23
ATOM     23  C   UNL     1      -1.562  11.807  20.029  0.00  0.00    +0.000 C 
BRANCH  23  29
ATOM     24  C   UNL     1      -3.579  11.611  18.462  0.00  0.00    +0.000 A 
ATOM     25  C   UNL     1      -4.159  11.060  17.311  0.00  0.00    +0.000 A 
ATOM     26  C   UNL     1      -3.415  10.246  16.455  0.00  0.00    +0.000 A 
ATOM     27  C   UNL     1      -2.081   9.979  16.738  0.00  0.00    +0.000 A 
ATOM     28  C   UNL     1      -1.498  10.509  17.887  0.00  0.00    +0.000 A 
ATOM     29  C   UNL     1      -2.238  11.313  18.774  0.00  0.00    +0.000 A 
BRANCH  24  31
ATOM     30  C   UNL     1      -5.651  12.586  19.091  0.00  0.00    +0.000 C 
ATOM     31  O   UNL     1      -4.261  12.405  19.350  0.00  0.00    +0.000 OA
ENDBRANCH  24  31
ENDBRANCH  23  29
ENDBRANCH  19  23
ENDBRANCH  18  20
ENDBRANCH  17  18
ENDBRANCH   1  17
TORSDOF 7
ENDMDL
MODEL 2
REMARK VINA RESULT:      -7.8      6.238      8.948
REMARK  Name = 
REMARK  9 active torsions:
REMARK  status: ('A' for Active; 'I' for Inactive)
REMARK    1  A    between atoms: C_1  and  O_2
REMARK    2  A    between atoms: O_2  and  C_3
REMARK    3  A    between atoms: C_8  and  C_9
REMARK    4  A    between atoms: C_9  and  N_10
REMARK    5  A    between atoms: C_11  and  C_13
REMARK    6  A    between atoms: C_13  and  C_14
REMARK    7  A    between atoms: C_14  and  C_15
REMARK    8  A    between atoms: C_15  and  N_16
REMARK    9  A    between atoms: C_18  and  C_19
REMARK                            x       y       z     vdW  Elec       q    Type
REMARK                         _______ _______ _______ _____ _____    ______ ____
ROOT
ATOM      1  C   UNL     1       7.902   5.459  18.249  0.00  0.00    +0.000 C 
ENDROOT
BRANCH   1   2
ATOM      2  N   UNL     1       6.523   5.135  17.857  0.00  0.00    +0.000 N 
ATOM      3  N   UNL     1       6.385   4.843  16.498  0.00  0.00    +0.000 NA
ATOM      4  C   UNL     1       5.285   4.296  16.086  0.00  0.00    +0.000 A 
ATOM      5  C   UNL     1       5.085   4.053  14.612  0.00  0.00    +0.000 C 
ATOM      6  C   UNL     1       4.245   3.959  17.021  0.00  0.00    +0.000 A 
ATOM      7  S   UNL     1       2.968   2.924  16.656  0.00  0.00    +0.000 S 
ATOM      8  C   UNL     1       2.270   3.139  18.204  0.00  0.00    +0.000 A 
ATOM      9  C   UNL     1       1.106   2.496  18.675  0.00  0.00    +0.000 A 
ATOM     10  C   UNL     1       0.565   2.888  19.894  0.00  0.00    +0.000 A 
ATOM     11  C   UNL     1       1.175   3.895  20.629  0.00  0.00    +0.000 A 
ATOM     12  C   UNL     1       2.390   4.465  20.200  0.00  0.00    +0.000 A 
ATOM     13  C   UNL     1       2.986   4.073  18.972  0.00  0.00    +0.000 A 
ATOM     14  C   UNL     1       4.244   4.403  18.321  0.00  0.00    +0.000 A 
ATOM     15  C   UNL     1       5.462   5.084  18.808  0.00  0.00    +0.000 A 
ATOM     16  O   UNL     1       5.568   5.489  19.960  0.00  0.00    +0.000 OA
ENDBRANCH   1   2
BRANCH   1  17
ATOM     17  C   UNL     1       8.072   6.892  18.755  0.00  0.00    +0.000 C 
BRANCH  17  18
ATOM     18  C   UNL     1       8.060   7.918  17.613  0.00  0.00    +0.000 C 
BRANCH  18  20
ATOM     19  N   UNL     1       9.188   9.449  19.135  0.00  0.00    +0.000 N 
ATOM     20  C   UNL     1       8.261   9.338  18.121  0.00  0.00    +0.000 C 
ATOM     21  O   UNL     1       7.637  10.287  17.662  0.00  0.00    +0.000 OA
ATOM     22  H   UNL     1       9.742   8.648  19.403  0.00  0.00    +0.000 HD
BRANCH  19  23
ATOM     23  C   UNL     1       9.455  10.697  19.821  0.00  0.00    +0.000 C 
BRANCH  23  29
ATOM     24  C   UNL     1       9.480  13.044  18.796  0.00  0.00    +0.000 A 
ATOM     25  C   UNL     1      10.038  13.955  17.887  0.00  0.00    +0.000 A 
ATOM     26  C   UNL     1      11.160  13.612  17.130  0.00  0.00    +0.000 A 
ATOM     27  C   UNL     1      11.738  12.357  17.276  0.00  0.00    +0.000 A 
ATOM     28  C   UNL     1      11.183  11.439  18.165  0.00  0.00    +0.000 A 
ATOM     29  C   UNL     1      10.040  11.758  18.921  0.00  0.00    +0.000 A 
BRANCH  24  31
ATOM     30  C   UNL     1       8.432  14.492  20.360  0.00  0.00    +0.000 C 
ATOM     31  O   UNL     1       8.371  13.316  19.557  0.00  0.00    +0.000 OA
ENDBRANCH  24  31
ENDBRANCH  23  29
ENDBRANCH  19  23
ENDBRANCH  18  20
ENDBRANCH  17  18
ENDBRANCH   1  17
TORSDOF 7
ENDMDL
MODEL 3
REMARK VINA RESULT:      -7.8      1.201      2.076
REMARK  Name = 
REMARK  9 active torsions:
REMARK  status: ('A' for Active; 'I' for Inactive)
REMARK    1  A    between atoms: C_1  and  O_2
REMARK    2  A    between atoms: O_2  and  C_3
REMARK    3  A    between atoms: C_8  and  C_9
REMARK    4  A    between atoms: C_9  and  N_10
REMARK    5  A    between atoms: C_11  and  C_13
REMARK    6  A    between atoms: C_13  and  C_14
REMARK    7  A    between atoms: C_14  and  C_15
REMARK    8  A    between atoms: C_15  and  N_16
REMARK    9  A    between atoms: C_18  and  C_19
REMARK                            x       y       z     vdW  Elec       q    Type
REMARK                         _______ _______ _______ _____ _____    ______ ____
ROOT
ATOM      1  C   UNL     1       0.795   8.412  20.257  0.00  0.00    +0.000 C 
ENDROOT
BRANCH   1   2
ATOM      2  N   UNL     1       1.746   7.331  19.966  0.00  0.00    +0.000 N 
ATOM      3  N   UNL     1       1.640   6.246  20.841  0.00  0.00    +0.000 NA
ATOM      4  C   UNL     1       2.235   5.137  20.534  0.00  0.00    +0.000 A 
ATOM      5  C   UNL     1       2.203   3.985  21.505  0.00  0.00    +0.000 C 
ATOM      6  C   UNL     1       2.955   5.017  19.294  0.00  0.00    +0.000 A 
ATOM      7  S   UNL     1       3.429   3.541  18.636  0.00  0.00    +0.000 S 
ATOM      8  C   UNL     1       4.197   4.307  17.312  0.00  0.00    +0.000 A 
ATOM      9  C   UNL     1       4.830   3.648  16.237  0.00  0.00    +0.000 A 
ATOM     10  C   UNL     1       5.550   4.400  15.315  0.00  0.00    +0.000 A 
ATOM     11  C   UNL     1       5.631   5.778  15.460  0.00  0.00    +0.000 A 
ATOM     12  C   UNL     1       4.917   6.439  16.477  0.00  0.00    +0.000 A 
ATOM     13  C   UNL     1       4.151   5.708  17.424  0.00  0.00    +0.000 A 
ATOM     14  C   UNL     1       3.258   6.098  18.504  0.00  0.00    +0.000 A 
ATOM     15  C   UNL     1       2.642   7.394  18.859  0.00  0.00    +0.000 A 
ATOM     16  O   UNL     1       2.828   8.409  18.198  0.00  0.00    +0.000 OA
ENDBRANCH   1   2
BRANCH   1  17
ATOM     17  C   UNL     1       0.188   8.330  21.658  0.00  0.00    +0.000 C 
BRANCH  17  18
ATOM     18  C   UNL     1       0.615   9.505  22.549  0.00  0.00    +0.000 C 
BRANCH  18  20
ATOM     19  N   UNL     1      -0.216  11.524  21.469  0.00  0.00    +0.000 N 
ATOM     20  C   UNL     1      -0.394  10.643  22.513  0.00  0.00    +0.000 C 
ATOM     21  O   UNL     1      -1.277  10.755  23.356  0.00  0.00    +0.000 OA
ATOM     22  H   UNL     1       0.466  11.325  20.751  0.00  0.00    +0.000 HD
BRANCH  19  23
ATOM     23  C   UNL     1      -1.009  12.727  21.312  0.00  0.00    +0.000 C 
BRANCH  23  29
ATOM     24  C   UNL     1      -2.332  11.897  19.282  0.00  0.00    +0.000 A 
ATOM     25  C   UNL     1      -3.557  11.780  18.610  0.00  0.00    +0.000 A 
ATOM     26  C   UNL     1      -4.742  12.221  19.202  0.00  0.00    +0.000 A 
ATOM     27  C   UNL     1      -4.715  12.780  20.474  0.00  0.00    +0.000 A 
ATOM     28  C   UNL     1      -3.502  12.915  21.145  0.00  0.00    +0.000 A 
ATOM     29  C   UNL     1      -2.294  12.497  20.556  0.00  0.00    +0.000 A 
BRANCH  24  31
ATOM     30  C   UNL     1      -1.184  10.401  17.838  0.00  0.00    +0.000 C 
ATOM     31  O   UNL     1      -1.132  11.497  18.747  0.00  0.00    +0.000 OA
ENDBRANCH  24  31
ENDBRANCH  23  29
ENDBRANCH  19  23
ENDBRANCH  18  20
ENDBRANCH  17  18
ENDBRANCH   1  17
TORSDOF 7
ENDMDL
MODEL 4
REMARK VINA RESULT:      -7.8      0.910      1.795
REMARK  Name = 
REMARK  9 active torsions:
REMARK  status: ('A' for Active; 'I' for Inactive)
REMARK    1  A    between atoms: C_1  and  O_2
REMARK    2  A    between atoms: O_2  and  C_3
REMARK    3  A    between atoms: C_8  and  C_9
REMARK    4  A    between atoms: C_9  and  N_10
REMARK    5  A    between atoms: C_11  and  C_13
REMARK    6  A    between atoms: C_13  and  C_14
REMARK    7  A    between atoms: C_14  and  C_15
REMARK    8  A    between atoms: C_15  and  N_16
REMARK    9  A    between atoms: C_18  and  C_19
REMARK                            x       y       z     vdW  Elec       q    Type
REMARK                         _______ _______ _______ _____ _____    ______ ____
ROOT
ATOM      1  C   UNL     1       1.036   9.121  19.384  0.00  0.00    +0.000 C 
ENDROOT
BRANCH   1   2
ATOM      2  N   UNL     1       1.927   7.959  19.263  0.00  0.00    +0.000 N 
ATOM      3  N   UNL     1       1.734   7.003  20.264  0.00  0.00    +0.000 NA
ATOM      4  C   UNL     1       2.269   5.831  20.119  0.00  0.00    +0.000 A 
ATOM      5  C   UNL     1       2.142   4.817  21.226  0.00  0.00    +0.000 C 
ATOM      6  C   UNL     1       3.013   5.513  18.929  0.00  0.00    +0.000 A 
ATOM      7  S   UNL     1       3.413   3.941  18.479  0.00  0.00    +0.000 S 
ATOM      8  C   UNL     1       4.260   4.488  17.095  0.00  0.00    +0.000 A 
ATOM      9  C   UNL     1       4.880   3.662  16.134  0.00  0.00    +0.000 A 
ATOM     10  C   UNL     1       5.667   4.247  15.149  0.00  0.00    +0.000 A 
ATOM     11  C   UNL     1       5.827   5.626  15.121  0.00  0.00    +0.000 A 
ATOM     12  C   UNL     1       5.128   6.451  16.023  0.00  0.00    +0.000 A 
ATOM     13  C   UNL     1       4.295   5.891  17.028  0.00  0.00    +0.000 A 
ATOM     14  C   UNL     1       3.399   6.467  18.019  0.00  0.00    +0.000 A 
ATOM     15  C   UNL     1       2.854   7.829  18.188  0.00  0.00    +0.000 A 
ATOM     16  O   UNL     1       3.118   8.740  17.411  0.00  0.00    +0.000 OA
ENDBRANCH   1   2
BRANCH   1  17
ATOM     17  C   UNL     1       0.267   9.165  20.705  0.00  0.00    +0.000 C 
BRANCH  17  18
ATOM     18  C   UNL     1       0.762  10.285  21.631  0.00  0.00    +0.000 C 
BRANCH  18  20
ATOM     19  N   UNL     1      -1.153  11.430  20.653  0.00  0.00    +0.000 N 
ATOM     20  C   UNL     1      -0.040  11.566  21.453  0.00  0.00    +0.000 C 
ATOM     21  O   UNL     1       0.297  12.621  21.978  0.00  0.00    +0.000 OA
ATOM     22  H   UNL     1      -1.434  10.516  20.329  0.00  0.00    +0.000 HD
BRANCH  19  23
ATOM     23  C   UNL     1      -1.994  12.550  20.281  0.00  0.00    +0.000 C 
BRANCH  23  29
ATOM     24  C   UNL     1      -3.103  11.336  18.317  0.00  0.00    +0.000 A 
ATOM     25  C   UNL     1      -4.258  11.058  17.572  0.00  0.00    +0.000 A 
ATOM     26  C   UNL     1      -5.503  11.548  17.973  0.00  0.00    +0.000 A 
ATOM     27  C   UNL     1      -5.607  12.316  19.125  0.00  0.00    +0.000 A 
ATOM     28  C   UNL     1      -4.464  12.611  19.866  0.00  0.00    +0.000 A 
ATOM     29  C   UNL     1      -3.198  12.146  19.466  0.00  0.00    +0.000 A 
BRANCH  24  31
ATOM     30  C   UNL     1      -1.799   9.858  16.993  0.00  0.00    +0.000 C 
ATOM     31  O   UNL     1      -1.851  10.897  17.967  0.00  0.00    +0.000 OA
ENDBRANCH  24  31
ENDBRANCH  23  29
ENDBRANCH  19  23
ENDBRANCH  18  20
ENDBRANCH  17  18
ENDBRANCH   1  17
TORSDOF 7
ENDMDL
MODEL 5
REMARK VINA RESULT:      -7.7      2.990     10.298
REMARK  Name = 
REMARK  9 active torsions:
REMARK  status: ('A' for Active; 'I' for Inactive)
REMARK    1  A    between atoms: C_1  and  O_2
REMARK    2  A    between atoms: O_2  and  C_3
REMARK    3  A    between atoms: C_8  and  C_9
REMARK    4  A    between atoms: C_9  and  N_10
REMARK    5  A    between atoms: C_11  and  C_13
REMARK    6  A    between atoms: C_13  and  C_14
REMARK    7  A    between atoms: C_14  and  C_15
REMARK    8  A    between atoms: C_15  and  N_16
REMARK    9  A    between atoms: C_18  and  C_19
REMARK                            x       y       z     vdW  Elec       q    Type
REMARK                         _______ _______ _______ _____ _____    ______ ____
ROOT
ATOM      1  C   UNL     1      -0.382  10.380  19.758  0.00  0.00    +0.000 C 
ENDROOT
BRANCH   1   2
ATOM      2  N   UNL     1      -1.534  11.022  19.111  0.00  0.00    +0.000 N 
ATOM      3  N   UNL     1      -1.627  10.751  17.743  0.00  0.00    +0.000 NA
ATOM      4  C   UNL     1      -2.727  11.040  17.123  0.00  0.00    +0.000 A 
ATOM      5  C   UNL     1      -2.813  10.834  15.632  0.00  0.00    +0.000 C 
ATOM      6  C   UNL     1      -3.844  11.592  17.842  0.00  0.00    +0.000 A 
ATOM      7  S   UNL     1      -5.410  11.646  17.224  0.00  0.00    +0.000 S 
ATOM      8  C   UNL     1      -5.999  12.442  18.620  0.00  0.00    +0.000 A 
ATOM      9  C   UNL     1      -7.344  12.800  18.853  0.00  0.00    +0.000 A 
ATOM     10  C   UNL     1      -7.650  13.584  19.959  0.00  0.00    +0.000 A 
ATOM     11  C   UNL     1      -6.639  13.996  20.816  0.00  0.00    +0.000 A 
ATOM     12  C   UNL     1      -5.315  13.555  20.633  0.00  0.00    +0.000 A 
ATOM     13  C   UNL     1      -4.966  12.733  19.528  0.00  0.00    +0.000 A 
ATOM     14  C   UNL     1      -3.739  12.061  19.128  0.00  0.00    +0.000 A 
ATOM     15  C   UNL     1      -2.476  11.799  19.847  0.00  0.00    +0.000 A 
ATOM     16  O   UNL     1      -2.298  12.152  21.008  0.00  0.00    +0.000 OA
ENDBRANCH   1   2
BRANCH   1  17
ATOM     17  C   UNL     1       0.737  10.009  18.784  0.00  0.00    +0.000 C 
BRANCH  17  18
ATOM     18  C   UNL     1       1.563   8.812  19.273  0.00  0.00    +0.000 C 
BRANCH  18  20
ATOM     19  N   UNL     1       2.735   6.866  18.395  0.00  0.00    +0.000 N 
ATOM     20  C   UNL     1       2.353   8.166  18.145  0.00  0.00    +0.000 C 
ATOM     21  O   UNL     1       2.623   8.769  17.112  0.00  0.00    +0.000 OA
ATOM     22  H   UNL     1       2.399   6.390  19.219  0.00  0.00    +0.000 HD
BRANCH  19  23
ATOM     23  C   UNL     1       3.575   6.107  17.490  0.00  0.00    +0.000 C 
BRANCH  23  29
ATOM     24  C   UNL     1       5.513   5.367  18.993  0.00  0.00    +0.000 A 
ATOM     25  C   UNL     1       6.867   5.465  19.346  0.00  0.00    +0.000 A 
ATOM     26  C   UNL     1       7.745   6.255  18.601  0.00  0.00    +0.000 A 
ATOM     27  C   UNL     1       7.280   6.951  17.492  0.00  0.00    +0.000 A 
ATOM     28  C   UNL     1       5.934   6.873  17.140  0.00  0.00    +0.000 A 
ATOM     29  C   UNL     1       5.030   6.101  17.891  0.00  0.00    +0.000 A 
BRANCH  24  31
ATOM     30  C   UNL     1       4.579   3.224  19.410  0.00  0.00    +0.000 C 
ATOM     31  O   UNL     1       4.599   4.621  19.693  0.00  0.00    +0.000 OA
ENDBRANCH  24  31
ENDBRANCH  23  29
ENDBRANCH  19  23
ENDBRANCH  18  20
ENDBRANCH  17  18
ENDBRANCH   1  17
TORSDOF 7
ENDMDL
MODEL 6
REMARK VINA RESULT:      -7.7      2.514      3.606
REMARK  Name = 
REMARK  9 active torsions:
REMARK  status: ('A' for Active; 'I' for Inactive)
REMARK    1  A    between atoms: C_1  and  O_2
REMARK    2  A    between atoms: O_2  and  C_3
REMARK    3  A    between atoms: C_8  and  C_9
REMARK    4  A    between atoms: C_9  and  N_10
REMARK    5  A    between atoms: C_11  and  C_13
REMARK    6  A    between atoms: C_13  and  C_14
REMARK    7  A    between atoms: C_14  and  C_15
REMARK    8  A    between atoms: C_15  and  N_16
REMARK    9  A    between atoms: C_18  and  C_19
REMARK                            x       y       z     vdW  Elec       q    Type
REMARK                         _______ _______ _______ _____ _____    ______ ____
ROOT
ATOM      1  C   UNL     1       0.851   8.519  20.241  0.00  0.00    +0.000 C 
ENDROOT
BRANCH   1   2
ATOM      2  N   UNL     1       1.773   7.420  19.923  0.00  0.00    +0.000 N 
ATOM      3  N   UNL     1       1.658   6.328  20.787  0.00  0.00    +0.000 NA
ATOM      4  C   UNL     1       2.224   5.210  20.458  0.00  0.00    +0.000 A 
ATOM      5  C   UNL     1       2.181   4.048  21.417  0.00  0.00    +0.000 C 
ATOM      6  C   UNL     1       2.921   5.088  19.206  0.00  0.00    +0.000 A 
ATOM      7  S   UNL     1       3.352   3.610  18.524  0.00  0.00    +0.000 S 
ATOM      8  C   UNL     1       4.116   4.375  17.196  0.00  0.00    +0.000 A 
ATOM      9  C   UNL     1       4.717   3.715  16.105  0.00  0.00    +0.000 A 
ATOM     10  C   UNL     1       5.439   4.461  15.180  0.00  0.00    +0.000 A 
ATOM     11  C   UNL     1       5.552   5.835  15.338  0.00  0.00    +0.000 A 
ATOM     12  C   UNL     1       4.869   6.500  16.374  0.00  0.00    +0.000 A 
ATOM     13  C   UNL     1       4.102   5.775  17.325  0.00  0.00    +0.000 A 
ATOM     14  C   UNL     1       3.235   6.172  18.423  0.00  0.00    +0.000 A 
ATOM     15  C   UNL     1       2.653   7.476  18.802  0.00  0.00    +0.000 A 
ATOM     16  O   UNL     1       2.851   8.495  18.150  0.00  0.00    +0.000 OA
ENDBRANCH   1   2
BRANCH   1  17
ATOM     17  C   UNL     1       0.185   8.379  21.611  0.00  0.00    +0.000 C 
BRANCH  17  18
ATOM     18  C   UNL     1       0.613   9.487  22.583  0.00  0.00    +0.000 C 
BRANCH  18  20
ATOM     19  N   UNL     1      -1.207  11.096  22.401  0.00  0.00    +0.000 N 
ATOM     20  C   UNL     1       0.124  10.856  22.136  0.00  0.00    +0.000 C 
ATOM     21  O   UNL     1       0.864  11.661  21.581  0.00  0.00    +0.000 OA
ATOM     22  H   UNL     1      -1.740  10.436  22.949  0.00  0.00    +0.000 HD
BRANCH  19  23
ATOM     23  C   UNL     1      -1.889  12.299  21.970  0.00  0.00    +0.000 C 
BRANCH  23  29
ATOM     24  C   UNL     1      -3.544  13.258  23.674  0.00  0.00    +0.000 A 
ATOM     25  C   UNL     1      -3.827  14.187  24.685  0.00  0.00    +0.000 A 
ATOM     26  C   UNL     1      -2.837  15.049  25.161  0.00  0.00    +0.000 A 
ATOM     27  C   UNL     1      -1.553  14.988  24.634  0.00  0.00    +0.000 A 
ATOM     28  C   UNL     1      -1.264  14.080  23.618  0.00  0.00    +0.000 A 
ATOM     29  C   UNL     1      -2.254  13.218  23.110  0.00  0.00    +0.000 A 
BRANCH  24  31
ATOM     30  C   UNL     1      -5.747  12.958  22.840  0.00  0.00    +0.000 C 
ATOM     31  O   UNL     1      -4.476  12.395  23.154  0.00  0.00    +0.000 OA
ENDBRANCH  24  31
ENDBRANCH  23  29
ENDBRANCH  19  23
ENDBRANCH  18  20
ENDBRANCH  17  18
ENDBRANCH   1  17
TORSDOF 7
ENDMDL
MODEL 7
REMARK VINA RESULT:      -7.7      1.722      2.634
REMARK  Name = 
REMARK  9 active torsions:
REMARK  status: ('A' for Active; 'I' for Inactive)
REMARK    1  A    between atoms: C_1  and  O_2
REMARK    2  A    between atoms: O_2  and  C_3
REMARK    3  A    between atoms: C_8  and  C_9
REMARK    4  A    between atoms: C_9  and  N_10
REMARK    5  A    between atoms: C_11  and  C_13
REMARK    6  A    between atoms: C_13  and  C_14
REMARK    7  A    between atoms: C_14  and  C_15
REMARK    8  A    between atoms: C_15  and  N_16
REMARK    9  A    between atoms: C_18  and  C_19
REMARK                            x       y       z     vdW  Elec       q    Type
REMARK                         _______ _______ _______ _____ _____    ______ ____
ROOT
ATOM      1  C   UNL     1       0.988   8.375  22.151  0.00  0.00    +0.000 C 
ENDROOT
BRANCH   1   2
ATOM      2  N   UNL     1       1.382   8.007  20.785  0.00  0.00    +0.000 N 
ATOM      3  N   UNL     1       1.400   9.088  19.899  0.00  0.00    +0.000 NA
ATOM      4  C   UNL     1       1.974   8.941  18.747  0.00  0.00    +0.000 A 
ATOM      5  C   UNL     1       1.929  10.068  17.748  0.00  0.00    +0.000 C 
ATOM      6  C   UNL     1       2.616   7.699  18.407  0.00  0.00    +0.000 A 
ATOM      7  S   UNL     1       3.696   7.534  17.125  0.00  0.00    +0.000 S 
ATOM      8  C   UNL     1       3.888   5.859  17.423  0.00  0.00    +0.000 A 
ATOM      9  C   UNL     1       4.747   4.994  16.713  0.00  0.00    +0.000 A 
ATOM     10  C   UNL     1       4.681   3.627  16.960  0.00  0.00    +0.000 A 
ATOM     11  C   UNL     1       3.784   3.137  17.898  0.00  0.00    +0.000 A 
ATOM     12  C   UNL     1       3.000   4.013  18.673  0.00  0.00    +0.000 A 
ATOM     13  C   UNL     1       3.057   5.418  18.467  0.00  0.00    +0.000 A 
ATOM     14  C   UNL     1       2.455   6.554  19.147  0.00  0.00    +0.000 A 
ATOM     15  C   UNL     1       1.753   6.673  20.441  0.00  0.00    +0.000 A 
ATOM     16  O   UNL     1       1.585   5.714  21.185  0.00  0.00    +0.000 OA
ENDBRANCH   1   2
BRANCH   1  17
ATOM     17  C   UNL     1      -0.482   8.779  22.275  0.00  0.00    +0.000 C 
BRANCH  17  18
ATOM     18  C   UNL     1      -0.659  10.125  22.990  0.00  0.00    +0.000 C 
BRANCH  18  20
ATOM     19  N   UNL     1      -0.788  11.011  20.725  0.00  0.00    +0.000 N 
ATOM     20  C   UNL     1      -1.136  11.216  22.043  0.00  0.00    +0.000 C 
ATOM     21  O   UNL     1      -1.766  12.190  22.437  0.00  0.00    +0.000 OA
ATOM     22  H   UNL     1      -0.356  10.142  20.445  0.00  0.00    +0.000 HD
BRANCH  19  23
ATOM     23  C   UNL     1      -1.063  11.978  19.681  0.00  0.00    +0.000 C 
BRANCH  23  29
ATOM     24  C   UNL     1      -3.447  11.902  18.749  0.00  0.00    +0.000 A 
ATOM     25  C   UNL     1      -4.365  11.367  17.833  0.00  0.00    +0.000 A 
ATOM     26  C   UNL     1      -3.949  10.473  16.844  0.00  0.00    +0.000 A 
ATOM     27  C   UNL     1      -2.612  10.108  16.758  0.00  0.00    +0.000 A 
ATOM     28  C   UNL     1      -1.693  10.621  17.672  0.00  0.00    +0.000 A 
ATOM     29  C   UNL     1      -2.097  11.506  18.689  0.00  0.00    +0.000 A 
BRANCH  24  31
ATOM     30  C   UNL     1      -4.964  12.437  20.497  0.00  0.00    +0.000 C 
ATOM     31  O   UNL     1      -3.796  12.773  19.751  0.00  0.00    +0.000 OA
ENDBRANCH  24  31
ENDBRANCH  23  29
ENDBRANCH  19  23
ENDBRANCH  18  20
ENDBRANCH  17  18
ENDBRANCH   1  17
TORSDOF 7
ENDMDL
MODEL 8
REMARK VINA RESULT:      -7.6      2.976      9.672
REMARK  Name = 
REMARK  9 active torsions:
REMARK  status: ('A' for Active; 'I' for Inactive)
REMARK    1  A    between atoms: C_1  and  O_2
REMARK    2  A    between atoms: O_2  and  C_3
REMARK    3  A    between atoms: C_8  and  C_9
REMARK    4  A    between atoms: C_9  and  N_10
REMARK    5  A    between atoms: C_11  and  C_13
REMARK    6  A    between atoms: C_13  and  C_14
REMARK    7  A    between atoms: C_14  and  C_15
REMARK    8  A    between atoms: C_15  and  N_16
REMARK    9  A    between atoms: C_18  and  C_19
REMARK                            x       y       z     vdW  Elec       q    Type
REMARK                         _______ _______ _______ _____ _____    ______ ____
ROOT
ATOM      1  C   UNL     1       0.464   9.995  18.804  0.00  0.00    +0.000 C 
ENDROOT
BRANCH   1   2
ATOM      2  N   UNL     1      -0.834  10.603  18.480  0.00  0.00    +0.000 N 
ATOM      3  N   UNL     1      -1.376  10.150  17.274  0.00  0.00    +0.000 NA
ATOM      4  C   UNL     1      -2.618  10.411  17.012  0.00  0.00    +0.000 A 
ATOM      5  C   UNL     1      -3.194  10.004  15.680  0.00  0.00    +0.000 C 
ATOM      6  C   UNL     1      -3.430  11.117  17.966  0.00  0.00    +0.000 A 
ATOM      7  S   UNL     1      -5.112  11.170  17.893  0.00  0.00    +0.000 S 
ATOM      8  C   UNL     1      -5.201  12.183  19.270  0.00  0.00    +0.000 A 
ATOM      9  C   UNL     1      -6.390  12.643  19.874  0.00  0.00    +0.000 A 
ATOM     10  C   UNL     1      -6.308  13.589  20.890  0.00  0.00    +0.000 A 
ATOM     11  C   UNL     1      -5.068  14.060  21.297  0.00  0.00    +0.000 A 
ATOM     12  C   UNL     1      -3.882  13.525  20.759  0.00  0.00    +0.000 A 
ATOM     13  C   UNL     1      -3.924  12.540  19.737  0.00  0.00    +0.000 A 
ATOM     14  C   UNL     1      -2.902  11.753  19.063  0.00  0.00    +0.000 A 
ATOM     15  C   UNL     1      -1.473  11.525  19.360  0.00  0.00    +0.000 A 
ATOM     16  O   UNL     1      -0.920  12.026  20.332  0.00  0.00    +0.000 OA
ENDBRANCH   1   2
BRANCH   1  17
ATOM     17  C   UNL     1       1.007   9.091  17.696  0.00  0.00    +0.000 C 
BRANCH  17  18
ATOM     18  C   UNL     1       2.430   8.597  17.991  0.00  0.00    +0.000 C 
BRANCH  18  20
ATOM     19  N   UNL     1       3.388   6.571  18.946  0.00  0.00    +0.000 N 
ATOM     20  C   UNL     1       2.455   7.572  19.115  0.00  0.00    +0.000 C 
ATOM     21  O   UNL     1       1.697   7.641  20.075  0.00  0.00    +0.000 OA
ATOM     22  H   UNL     1       4.051   6.622  18.187  0.00  0.00    +0.000 HD
BRANCH  19  23
ATOM     23  C   UNL     1       3.506   5.447  19.853  0.00  0.00    +0.000 C 
BRANCH  23  29
ATOM     24  C   UNL     1       3.156   3.338  18.442  0.00  0.00    +0.000 A 
ATOM     25  C   UNL     1       2.324   2.283  18.041  0.00  0.00    +0.000 A 
ATOM     26  C   UNL     1       1.067   2.104  18.621  0.00  0.00    +0.000 A 
ATOM     27  C   UNL     1       0.630   2.975  19.612  0.00  0.00    +0.000 A 
ATOM     28  C   UNL     1       1.442   4.036  20.008  0.00  0.00    +0.000 A 
ATOM     29  C   UNL     1       2.702   4.246  19.419  0.00  0.00    +0.000 A 
BRANCH  24  31
ATOM     30  C   UNL     1       4.417   3.945  16.524  0.00  0.00    +0.000 C 
ATOM     31  O   UNL     1       4.394   3.576  17.900  0.00  0.00    +0.000 OA
ENDBRANCH  24  31
ENDBRANCH  23  29
ENDBRANCH  19  23
ENDBRANCH  18  20
ENDBRANCH  17  18
ENDBRANCH   1  17
TORSDOF 7
ENDMDL
MODEL 9
REMARK VINA RESULT:      -7.6      1.233      1.937
REMARK  Name = 
REMARK  9 active torsions:
REMARK  status: ('A' for Active; 'I' for Inactive)
REMARK    1  A    between atoms: C_1  and  O_2
REMARK    2  A    between atoms: O_2  and  C_3
REMARK    3  A    between atoms: C_8  and  C_9
REMARK    4  A    between atoms: C_9  and  N_10
REMARK    5  A    between atoms: C_11  and  C_13
REMARK    6  A    between atoms: C_13  and  C_14
REMARK    7  A    between atoms: C_14  and  C_15
REMARK    8  A    between atoms: C_15  and  N_16
REMARK    9  A    between atoms: C_18  and  C_19
REMARK                            x       y       z     vdW  Elec       q    Type
REMARK                         _______ _______ _______ _____ _____    ______ ____
ROOT
ATOM      1  C   UNL     1       0.581   7.715  20.969  0.00  0.00    +0.000 C 
ENDROOT
BRANCH   1   2
ATOM      2  N   UNL     1       1.616   6.781  20.505  0.00  0.00    +0.000 N 
ATOM      3  N   UNL     1       1.653   5.586  21.228  0.00  0.00    +0.000 NA
ATOM      4  C   UNL     1       2.336   4.591  20.756  0.00  0.00    +0.000 A 
ATOM      5  C   UNL     1       2.455   3.325  21.563  0.00  0.00    +0.000 C 
ATOM      6  C   UNL     1       3.008   4.707  19.489  0.00  0.00    +0.000 A 
ATOM      7  S   UNL     1       3.590   3.385  18.624  0.00  0.00    +0.000 S 
ATOM      8  C   UNL     1       4.222   4.391  17.392  0.00  0.00    +0.000 A 
ATOM      9  C   UNL     1       4.866   3.945  16.219  0.00  0.00    +0.000 A 
ATOM     10  C   UNL     1       5.470   4.879  15.384  0.00  0.00    +0.000 A 
ATOM     11  C   UNL     1       5.427   6.227  15.711  0.00  0.00    +0.000 A 
ATOM     12  C   UNL     1       4.700   6.675  16.830  0.00  0.00    +0.000 A 
ATOM     13  C   UNL     1       4.049   5.753  17.693  0.00  0.00    +0.000 A 
ATOM     14  C   UNL     1       3.172   5.908  18.843  0.00  0.00    +0.000 A 
ATOM     15  C   UNL     1       2.453   7.077  19.389  0.00  0.00    +0.000 A 
ATOM     16  O   UNL     1       2.513   8.184  18.866  0.00  0.00    +0.000 OA
ENDBRANCH   1   2
BRANCH   1  17
ATOM     17  C   UNL     1       1.133   8.871  21.806  0.00  0.00    +0.000 C 
BRANCH  17  18
ATOM     18  C   UNL     1       0.118   9.379  22.839  0.00  0.00    +0.000 C 
BRANCH  18  20
ATOM     19  N   UNL     1      -1.063  10.782  21.236  0.00  0.00    +0.000 N 
ATOM     20  C   UNL     1      -0.441  10.743  22.465  0.00  0.00    +0.000 C 
ATOM     21  O   UNL     1      -0.329  11.716  23.203  0.00  0.00    +0.000 OA
ATOM     22  H   UNL     1      -1.212   9.928  20.718  0.00  0.00    +0.000 HD
BRANCH  19  23
ATOM     23  C   UNL     1      -1.576  12.006  20.654  0.00  0.00    +0.000 C 
BRANCH  23  29
ATOM     24  C   UNL     1      -1.893  11.209  18.240  0.00  0.00    +0.000 A 
ATOM     25  C   UNL     1      -2.717  11.087  17.112  0.00  0.00    +0.000 A 
ATOM     26  C   UNL     1      -4.054  11.487  17.156  0.00  0.00    +0.000 A 
ATOM     27  C   UNL     1      -4.583  12.009  18.330  0.00  0.00    +0.000 A 
ATOM     28  C   UNL     1      -3.770  12.150  19.453  0.00  0.00    +0.000 A 
ATOM     29  C   UNL     1      -2.414  11.773  19.421  0.00  0.00    +0.000 A 
BRANCH  24  31
ATOM     30  C   UNL     1      -0.251   9.598  17.650  0.00  0.00    +0.000 C 
ATOM     31  O   UNL     1      -0.569  10.849  18.255  0.00  0.00    +0.000 OA
ENDBRANCH  24  31
ENDBRANCH  23  29
ENDBRANCH  19  23
ENDBRANCH  18  20
ENDBRANCH  17  18
ENDBRANCH   1  17
TORSDOF 7
ENDMDL
