MODEL 1
REMARK VINA RESULT:      -8.5      0.000      0.000
REMARK  Name = 
REMARK  8 active torsions:
REMARK  status: ('A' for Active; 'I' for Inactive)
REMARK    1  A    between atoms: C_1  and  O_2
REMARK    2  A    between atoms: O_2  and  C_3
REMARK    3  A    between atoms: C_3  and  C_5
REMARK    4  A    between atoms: C_5  and  C_6
REMARK    5  A    between atoms: C_5  and  N_14
REMARK    6  A    between atoms: C_6  and  C_7
REMARK    7  A    between atoms: C_10  and  O_11
REMARK    8  A    between atoms: C_15  and  C_17
REMARK                            x       y       z     vdW  Elec       q    Type
REMARK                         _______ _______ _______ _____ _____    ______ ____
ROOT
ATOM      1  N   UNL     1       1.936   7.159  19.055  0.00  0.00    +0.000 N 
ATOM      2  C   UNL     1       1.761   8.431  18.559  0.00  0.00    +0.000 C 
ATOM      3  O   UNL     1       2.178   8.783  17.459  0.00  0.00    +0.000 OA
ATOM      4  H   UNL     1       1.423   6.845  19.873  0.00  0.00    +0.000 HD
ENDROOT
BRANCH   2   5
ATOM      5  C   UNL     1       1.012   9.390  19.411  0.00  0.00    +0.000 A 
ATOM      6  C   UNL     1       1.458   9.683  20.712  0.00  0.00    +0.000 A 
ATOM      7  C   UNL     1       0.731  10.552  21.525  0.00  0.00    +0.000 A 
ATOM      8  C   UNL     1      -0.441  11.130  21.046  0.00  0.00    +0.000 A 
ATOM      9  C   UNL     1      -0.878  10.854  19.744  0.00  0.00    +0.000 A 
ATOM     10  C   UNL     1      -2.146  11.442  19.247  0.00  0.00    +0.000 A 
ATOM     11  O   UNL     1      -2.798  12.202  19.958  0.00  0.00    +0.000 OA
ATOM     12  C   UNL     1      -2.621  11.090  17.885  0.00  0.00    +0.000 A 
ATOM     13  C   UNL     1      -3.851  11.563  17.420  0.00  0.00    +0.000 A 
ATOM     14  C   UNL     1      -4.294  11.196  16.151  0.00  0.00    +0.000 A 
ATOM     15  C   UNL     1      -3.508  10.371  15.352  0.00  0.00    +0.000 A 
ATOM     16  C   UNL     1      -2.276   9.902  15.816  0.00  0.00    +0.000 A 
ATOM     17  C   UNL     1      -1.816  10.265  17.086  0.00  0.00    +0.000 A 
ATOM     18  N   UNL     1      -0.641   9.718  17.611  0.00  0.00    +0.000 N 
ATOM     19  C   UNL     1      -0.143  10.011  18.896  0.00  0.00    +0.000 A 
ATOM     20  H   UNL     1       0.046   9.333  16.957  0.00  0.00    +0.000 HD
ENDBRANCH   2   5
BRANCH   1  21
ATOM     21  C   UNL     1       2.640   6.130  18.286  0.00  0.00    +0.000 C 
BRANCH  21  22
ATOM     22  C   UNL     1       1.837   4.825  18.300  0.00  0.00    +0.000 C 
ATOM     23  O   UNL     1       1.081   4.461  17.404  0.00  0.00    +0.000 OA
BRANCH  22  25
ATOM     24  C   UNL     1       1.054   4.105  20.399  0.00  0.00    +0.000 C 
ATOM     25  O   UNL     1       2.108   4.120  19.435  0.00  0.00    +0.000 OA
ENDBRANCH  22  25
ENDBRANCH  21  22
BRANCH  21  26
ATOM     26  C   UNL     1       4.087   5.886  18.762  0.00  0.00    +0.000 C 
BRANCH  26  27
ATOM     27  C   UNL     1       5.088   5.652  17.652  0.00  0.00    +0.000 A 
ATOM     28  C   UNL     1       6.288   4.970  17.897  0.00  0.00    +0.000 A 
ATOM     29  C   UNL     1       7.220   4.779  16.873  0.00  0.00    +0.000 A 
ATOM     30  C   UNL     1       6.947   5.266  15.600  0.00  0.00    +0.000 A 
ATOM     31  C   UNL     1       5.757   5.928  15.332  0.00  0.00    +0.000 A 
ATOM     32  C   UNL     1       4.830   6.123  16.356  0.00  0.00    +0.000 A 
BRANCH  30  33
ATOM     33  O   UNL     1       7.834   5.111  14.576  0.00  0.00    +0.000 OA
ATOM     34  H   UNL     1       7.340   4.880  13.772  0.00  0.00    +0.000 HD
ENDBRANCH  30  33
ENDBRANCH  26  27
ENDBRANCH  21  26
ENDBRANCH   1  21
TORSDOF 7
ENDMDL
MODEL 2
REMARK VINA RESULT:      -8.4      0.565      1.035
REMARK  Name = 
REMARK  8 active torsions:
REMARK  status: ('A' for Active; 'I' for Inactive)
REMARK    1  A    between atoms: C_1  and  O_2
REMARK    2  A    between atoms: O_2  and  C_3
REMARK    3  A    between atoms: C_3  and  C_5
REMARK    4  A    between atoms: C_5  and  C_6
REMARK    5  A    between atoms: C_5  and  N_14
REMARK    6  A    between atoms: C_6  and  C_7
REMARK    7  A    between atoms: C_10  and  O_11
REMARK    8  A    between atoms: C_15  and  C_17
REMARK                            x       y       z     vdW  Elec       q    Type
REMARK                         _______ _______ _______ _____ _____    ______ ____
ROOT
ATOM      1  N   UNL     1       1.851   7.206  19.595  0.00  0.00    +0.000 N 
ATOM      2  C   UNL     1       1.644   8.401  18.946  0.00  0.00    +0.000 C 
ATOM      3  O   UNL     1       2.021   8.612  17.797  0.00  0.00    +0.000 OA
ATOM      4  H   UNL     1       1.368   6.994  20.463  0.00  0.00    +0.000 HD
ENDROOT
BRANCH   2   5
ATOM      5  C   UNL     1       0.910   9.455  19.693  0.00  0.00    +0.000 A 
ATOM      6  C   UNL     1       1.331   9.839  20.978  0.00  0.00    +0.000 A 
ATOM      7  C   UNL     1       0.617  10.800  21.694  0.00  0.00    +0.000 A 
ATOM      8  C   UNL     1      -0.518  11.380  21.132  0.00  0.00    +0.000 A 
ATOM      9  C   UNL     1      -0.928  11.012  19.844  0.00  0.00    +0.000 A 
ATOM     10  C   UNL     1      -2.158  11.603  19.261  0.00  0.00    +0.000 A 
ATOM     11  O   UNL     1      -2.799  12.444  19.887  0.00  0.00    +0.000 OA
ATOM     12  C   UNL     1      -2.609  11.156  17.919  0.00  0.00    +0.000 A 
ATOM     13  C   UNL     1      -3.805  11.634  17.379  0.00  0.00    +0.000 A 
ATOM     14  C   UNL     1      -4.227  11.179  16.131  0.00  0.00    +0.000 A 
ATOM     15  C   UNL     1      -3.453  10.261  15.428  0.00  0.00    +0.000 A 
ATOM     16  C   UNL     1      -2.253   9.788  15.967  0.00  0.00    +0.000 A 
ATOM     17  C   UNL     1      -1.815  10.238  17.217  0.00  0.00    +0.000 A 
ATOM     18  N   UNL     1      -0.678   9.693  17.821  0.00  0.00    +0.000 N 
ATOM     19  C   UNL     1      -0.204  10.074  19.092  0.00  0.00    +0.000 A 
ATOM     20  H   UNL     1       0.012   9.230  17.222  0.00  0.00    +0.000 HD
ENDBRANCH   2   5
BRANCH   1  21
ATOM     21  C   UNL     1       2.543   6.091  18.942  0.00  0.00    +0.000 C 
BRANCH  21  22
ATOM     22  C   UNL     1       1.794   4.782  19.207  0.00  0.00    +0.000 C 
ATOM     23  O   UNL     1       1.592   3.911  18.366  0.00  0.00    +0.000 OA
BRANCH  22  25
ATOM     24  C   UNL     1       1.718   3.482  21.167  0.00  0.00    +0.000 C 
ATOM     25  O   UNL     1       1.412   4.715  20.513  0.00  0.00    +0.000 OA
ENDBRANCH  22  25
ENDBRANCH  21  22
BRANCH  21  26
ATOM     26  C   UNL     1       4.026   5.964  19.347  0.00  0.00    +0.000 C 
BRANCH  26  27
ATOM     27  C   UNL     1       4.986   5.790  18.190  0.00  0.00    +0.000 A 
ATOM     28  C   UNL     1       4.638   6.208  16.898  0.00  0.00    +0.000 A 
ATOM     29  C   UNL     1       5.520   6.022  15.829  0.00  0.00    +0.000 A 
ATOM     30  C   UNL     1       6.754   5.425  16.056  0.00  0.00    +0.000 A 
ATOM     31  C   UNL     1       7.125   5.023  17.332  0.00  0.00    +0.000 A 
ATOM     32  C   UNL     1       6.243   5.202  18.397  0.00  0.00    +0.000 A 
BRANCH  30  33
ATOM     33  O   UNL     1       7.639   5.216  15.040  0.00  0.00    +0.000 OA
ATOM     34  H   UNL     1       8.165   6.023  14.918  0.00  0.00    +0.000 HD
ENDBRANCH  30  33
ENDBRANCH  26  27
ENDBRANCH  21  26
ENDBRANCH   1  21
TORSDOF 7
ENDMDL
MODEL 3
REMARK VINA RESULT:      -8.3      0.811      1.091
REMARK  Name = 
REMARK  8 active torsions:
REMARK  status: ('A' for Active; 'I' for Inactive)
REMARK    1  A    between atoms: C_1  and  O_2
REMARK    2  A    between atoms: O_2  and  C_3
REMARK    3  A    between atoms: C_3  and  C_5
REMARK    4  A    between atoms: C_5  and  C_6
REMARK    5  A    between atoms: C_5  and  N_14
REMARK    6  A    between atoms: C_6  and  C_7
REMARK    7  A    between atoms: C_10  and  O_11
REMARK    8  A    between atoms: C_15  and  C_17
REMARK                            x       y       z     vdW  Elec       q    Type
REMARK                         _______ _______ _______ _____ _____    ______ ____
ROOT
ATOM      1  N   UNL     1       1.867   7.262  18.830  0.00  0.00    +0.000 N 
ATOM      2  C   UNL     1       1.678   8.552  18.389  0.00  0.00    +0.000 C 
ATOM      3  O   UNL     1       2.031   8.938  17.278  0.00  0.00    +0.000 OA
ATOM      4  H   UNL     1       1.401   6.925  19.666  0.00  0.00    +0.000 HD
ENDROOT
BRANCH   2   5
ATOM      5  C   UNL     1       0.995   9.488  19.319  0.00  0.00    +0.000 A 
ATOM      6  C   UNL     1       1.528   9.736  20.596  0.00  0.00    +0.000 A 
ATOM      7  C   UNL     1       0.864  10.584  21.482  0.00  0.00    +0.000 A 
ATOM      8  C   UNL     1      -0.331  11.187  21.099  0.00  0.00    +0.000 A 
ATOM      9  C   UNL     1      -0.854  10.956  19.820  0.00  0.00    +0.000 A 
ATOM     10  C   UNL     1      -2.146  11.569  19.425  0.00  0.00    +0.000 A 
ATOM     11  O   UNL     1      -2.743  12.312  20.202  0.00  0.00    +0.000 OA
ATOM     12  C   UNL     1      -2.712  11.265  18.087  0.00  0.00    +0.000 A 
ATOM     13  C   UNL     1      -3.965  11.763  17.719  0.00  0.00    +0.000 A 
ATOM     14  C   UNL     1      -4.493  11.441  16.470  0.00  0.00    +0.000 A 
ATOM     15  C   UNL     1      -3.769  10.636  15.596  0.00  0.00    +0.000 A 
ATOM     16  C   UNL     1      -2.513  10.143  15.964  0.00  0.00    +0.000 A 
ATOM     17  C   UNL     1      -1.969  10.461  17.212  0.00  0.00    +0.000 A 
ATOM     18  N   UNL     1      -0.768   9.888  17.641  0.00  0.00    +0.000 N 
ATOM     19  C   UNL     1      -0.184  10.135  18.900  0.00  0.00    +0.000 A 
ATOM     20  H   UNL     1      -0.128   9.519  16.932  0.00  0.00    +0.000 HD
ENDBRANCH   2   5
BRANCH   1  21
ATOM     21  C   UNL     1       2.508   6.252  17.984  0.00  0.00    +0.000 C 
BRANCH  21  22
ATOM     22  C   UNL     1       1.894   4.875  18.254  0.00  0.00    +0.000 C 
ATOM     23  O   UNL     1       1.226   4.237  17.446  0.00  0.00    +0.000 OA
BRANCH  22  25
ATOM     24  C   UNL     1       2.191   3.037  19.694  0.00  0.00    +0.000 C 
ATOM     25  O   UNL     1       2.222   4.453  19.508  0.00  0.00    +0.000 OA
ENDBRANCH  22  25
ENDBRANCH  21  22
BRANCH  21  26
ATOM     26  C   UNL     1       4.043   6.205  18.135  0.00  0.00    +0.000 C 
BRANCH  26  27
ATOM     27  C   UNL     1       4.770   5.509  17.006  0.00  0.00    +0.000 A 
ATOM     28  C   UNL     1       5.183   6.220  15.869  0.00  0.00    +0.000 A 
ATOM     29  C   UNL     1       5.832   5.566  14.818  0.00  0.00    +0.000 A 
ATOM     30  C   UNL     1       6.075   4.200  14.909  0.00  0.00    +0.000 A 
ATOM     31  C   UNL     1       5.691   3.482  16.033  0.00  0.00    +0.000 A 
ATOM     32  C   UNL     1       5.038   4.134  17.079  0.00  0.00    +0.000 A 
BRANCH  30  33
ATOM     33  O   UNL     1       6.696   3.522  13.902  0.00  0.00    +0.000 OA
ATOM     34  H   UNL     1       6.563   4.010  13.073  0.00  0.00    +0.000 HD
ENDBRANCH  30  33
ENDBRANCH  26  27
ENDBRANCH  21  26
ENDBRANCH   1  21
TORSDOF 7
ENDMDL
MODEL 4
REMARK VINA RESULT:      -8.3      3.106      8.299
REMARK  Name = 
REMARK  8 active torsions:
REMARK  status: ('A' for Active; 'I' for Inactive)
REMARK    1  A    between atoms: C_1  and  O_2
REMARK    2  A    between atoms: O_2  and  C_3
REMARK    3  A    between atoms: C_3  and  C_5
REMARK    4  A    between atoms: C_5  and  C_6
REMARK    5  A    between atoms: C_5  and  N_14
REMARK    6  A    between atoms: C_6  and  C_7
REMARK    7  A    between atoms: C_10  and  O_11
REMARK    8  A    between atoms: C_15  and  C_17
REMARK                            x       y       z     vdW  Elec       q    Type
REMARK                         _______ _______ _______ _____ _____    ______ ____
ROOT
ATOM      1  N   UNL     1       1.308   7.691  20.914  0.00  0.00    +0.000 N 
ATOM      2  C   UNL     1       1.999   7.144  19.858  0.00  0.00    +0.000 C 
ATOM      3  O   UNL     1       2.553   7.822  18.997  0.00  0.00    +0.000 OA
ATOM      4  H   UNL     1       1.028   7.120  21.704  0.00  0.00    +0.000 HD
ENDROOT
BRANCH   2   5
ATOM      5  C   UNL     1       2.077   5.661  19.799  0.00  0.00    +0.000 A 
ATOM      6  C   UNL     1       1.382   4.876  20.736  0.00  0.00    +0.000 A 
ATOM      7  C   UNL     1       1.488   3.486  20.704  0.00  0.00    +0.000 A 
ATOM      8  C   UNL     1       2.285   2.875  19.740  0.00  0.00    +0.000 A 
ATOM      9  C   UNL     1       2.963   3.654  18.794  0.00  0.00    +0.000 A 
ATOM     10  C   UNL     1       3.841   3.004  17.791  0.00  0.00    +0.000 A 
ATOM     11  O   UNL     1       3.948   1.780  17.759  0.00  0.00    +0.000 OA
ATOM     12  C   UNL     1       4.597   3.851  16.834  0.00  0.00    +0.000 A 
ATOM     13  C   UNL     1       5.493   3.273  15.932  0.00  0.00    +0.000 A 
ATOM     14  C   UNL     1       6.216   4.089  15.062  0.00  0.00    +0.000 A 
ATOM     15  C   UNL     1       6.036   5.468  15.092  0.00  0.00    +0.000 A 
ATOM     16  C   UNL     1       5.136   6.044  15.993  0.00  0.00    +0.000 A 
ATOM     17  C   UNL     1       4.400   5.239  16.868  0.00  0.00    +0.000 A 
ATOM     18  N   UNL     1       3.580   5.804  17.849  0.00  0.00    +0.000 N 
ATOM     19  C   UNL     1       2.842   5.052  18.785  0.00  0.00    +0.000 A 
ATOM     20  H   UNL     1       3.254   6.765  17.711  0.00  0.00    +0.000 HD
ENDBRANCH   2   5
BRANCH   1  21
ATOM     21  C   UNL     1       1.192   9.142  21.080  0.00  0.00    +0.000 C 
BRANCH  21  22
ATOM     22  C   UNL     1       0.630   9.468  22.468  0.00  0.00    +0.000 C 
ATOM     23  O   UNL     1       1.300   9.537  23.494  0.00  0.00    +0.000 OA
BRANCH  22  25
ATOM     24  C   UNL     1      -1.186  10.780  23.188  0.00  0.00    +0.000 C 
ATOM     25  O   UNL     1      -0.712   9.695  22.389  0.00  0.00    +0.000 OA
ENDBRANCH  22  25
ENDBRANCH  21  22
BRANCH  21  26
ATOM     26  C   UNL     1       0.355   9.824  19.978  0.00  0.00    +0.000 C 
BRANCH  26  27
ATOM     27  C   UNL     1       0.868  11.178  19.538  0.00  0.00    +0.000 A 
ATOM     28  C   UNL     1       1.858  11.285  18.551  0.00  0.00    +0.000 A 
ATOM     29  C   UNL     1       2.345  12.538  18.167  0.00  0.00    +0.000 A 
ATOM     30  C   UNL     1       1.835  13.684  18.766  0.00  0.00    +0.000 A 
ATOM     31  C   UNL     1       0.842  13.599  19.732  0.00  0.00    +0.000 A 
ATOM     32  C   UNL     1       0.360  12.349  20.120  0.00  0.00    +0.000 A 
BRANCH  30  33
ATOM     33  O   UNL     1       2.291  14.924  18.428  0.00  0.00    +0.000 OA
ATOM     34  H   UNL     1       1.527  15.495  18.249  0.00  0.00    +0.000 HD
ENDBRANCH  30  33
ENDBRANCH  26  27
ENDBRANCH  21  26
ENDBRANCH   1  21
TORSDOF 7
ENDMDL
MODEL 5
REMARK VINA RESULT:      -8.2      1.109      1.627
REMARK  Name = 
REMARK  8 active torsions:
REMARK  status: ('A' for Active; 'I' for Inactive)
REMARK    1  A    between atoms: C_1  and  O_2
REMARK    2  A    between atoms: O_2  and  C_3
REMARK    3  A    between atoms: C_3  and  C_5
REMARK    4  A    between atoms: C_5  and  C_6
REMARK    5  A    between atoms: C_5  and  N_14
REMARK    6  A    between atoms: C_6  and  C_7
REMARK    7  A    between atoms: C_10  and  O_11
REMARK    8  A    between atoms: C_15  and  C_17
REMARK                            x       y       z     vdW  Elec       q    Type
REMARK                         _______ _______ _______ _____ _____    ______ ____
ROOT
ATOM      1  N   UNL     1       2.152   6.568  20.206  0.00  0.00    +0.000 N 
ATOM      2  C   UNL     1       1.887   7.822  19.705  0.00  0.00    +0.000 C 
ATOM      3  O   UNL     1       2.183   8.162  18.563  0.00  0.00    +0.000 OA
ATOM      4  H   UNL     1       1.731   6.257  21.076  0.00  0.00    +0.000 HD
ENDROOT
BRANCH   2   5
ATOM      5  C   UNL     1       1.192   8.776  20.607  0.00  0.00    +0.000 A 
ATOM      6  C   UNL     1       1.558   8.868  21.961  0.00  0.00    +0.000 A 
ATOM      7  C   UNL     1       0.878   9.735  22.816  0.00  0.00    +0.000 A 
ATOM      8  C   UNL     1      -0.169  10.511  22.324  0.00  0.00    +0.000 A 
ATOM      9  C   UNL     1      -0.523  10.434  20.972  0.00  0.00    +0.000 A 
ATOM     10  C   UNL     1      -1.662  11.234  20.457  0.00  0.00    +0.000 A 
ATOM     11  O   UNL     1      -2.274  11.995  21.204  0.00  0.00    +0.000 OA
ATOM     12  C   UNL     1      -2.059  11.094  19.034  0.00  0.00    +0.000 A 
ATOM     13  C   UNL     1      -3.177  11.772  18.541  0.00  0.00    +0.000 A 
ATOM     14  C   UNL     1      -3.552  11.603  17.209  0.00  0.00    +0.000 A 
ATOM     15  C   UNL     1      -2.809  10.770  16.378  0.00  0.00    +0.000 A 
ATOM     16  C   UNL     1      -1.688  10.096  16.871  0.00  0.00    +0.000 A 
ATOM     17  C   UNL     1      -1.297  10.259  18.204  0.00  0.00    +0.000 A 
ATOM     18  N   UNL     1      -0.248   9.509  18.744  0.00  0.00    +0.000 N 
ATOM     19  C   UNL     1       0.172   9.596  20.086  0.00  0.00    +0.000 A 
ATOM     20  H   UNL     1       0.440   9.108  18.100  0.00  0.00    +0.000 HD
ENDBRANCH   2   5
BRANCH   1  21
ATOM     21  C   UNL     1       2.812   5.544  19.393  0.00  0.00    +0.000 C 
BRANCH  21  22
ATOM     22  C   UNL     1       2.180   4.174  19.660  0.00  0.00    +0.000 C 
ATOM     23  O   UNL     1       2.217   3.586  20.737  0.00  0.00    +0.000 OA
BRANCH  22  25
ATOM     24  C   UNL     1       0.808   2.513  18.713  0.00  0.00    +0.000 C 
ATOM     25  O   UNL     1       1.550   3.722  18.539  0.00  0.00    +0.000 OA
ENDBRANCH  22  25
ENDBRANCH  21  22
BRANCH  21  26
ATOM     26  C   UNL     1       4.341   5.488  19.592  0.00  0.00    +0.000 C 
BRANCH  26  27
ATOM     27  C   UNL     1       5.147   5.467  18.312  0.00  0.00    +0.000 A 
ATOM     28  C   UNL     1       4.649   6.054  17.140  0.00  0.00    +0.000 A 
ATOM     29  C   UNL     1       5.388   6.010  15.954  0.00  0.00    +0.000 A 
ATOM     30  C   UNL     1       6.629   5.384  15.944  0.00  0.00    +0.000 A 
ATOM     31  C   UNL     1       7.148   4.815  17.099  0.00  0.00    +0.000 A 
ATOM     32  C   UNL     1       6.408   4.853  18.281  0.00  0.00    +0.000 A 
BRANCH  30  33
ATOM     33  O   UNL     1       7.377   5.310  14.806  0.00  0.00    +0.000 OA
ATOM     34  H   UNL     1       7.900   4.492  14.834  0.00  0.00    +0.000 HD
ENDBRANCH  30  33
ENDBRANCH  26  27
ENDBRANCH  21  26
ENDBRANCH   1  21
TORSDOF 7
ENDMDL
MODEL 6
REMARK VINA RESULT:      -8.1      2.940      3.168
REMARK  Name = 
REMARK  8 active torsions:
REMARK  status: ('A' for Active; 'I' for Inactive)
REMARK    1  A    between atoms: C_1  and  O_2
REMARK    2  A    between atoms: O_2  and  C_3
REMARK    3  A    between atoms: C_3  and  C_5
REMARK    4  A    between atoms: C_5  and  C_6
REMARK    5  A    between atoms: C_5  and  N_14
REMARK    6  A    between atoms: C_6  and  C_7
REMARK    7  A    between atoms: C_10  and  O_11
REMARK    8  A    between atoms: C_15  and  C_17
REMARK                            x       y       z     vdW  Elec       q    Type
REMARK                         _______ _______ _______ _____ _____    ______ ____
ROOT
ATOM      1  N   UNL     1       1.871   6.839  20.210  0.00  0.00    +0.000 N 
ATOM      2  C   UNL     1       1.552   8.110  19.791  0.00  0.00    +0.000 C 
ATOM      3  O   UNL     1       1.789   8.520  18.658  0.00  0.00    +0.000 OA
ATOM      4  H   UNL     1       1.496   6.468  21.078  0.00  0.00    +0.000 HD
ENDROOT
BRANCH   2   5
ATOM      5  C   UNL     1       0.873   8.993  20.773  0.00  0.00    +0.000 A 
ATOM      6  C   UNL     1       0.148   8.440  21.844  0.00  0.00    +0.000 A 
ATOM      7  C   UNL     1      -0.522   9.270  22.742  0.00  0.00    +0.000 A 
ATOM      8  C   UNL     1      -0.474  10.652  22.576  0.00  0.00    +0.000 A 
ATOM      9  C   UNL     1       0.262  11.205  21.521  0.00  0.00    +0.000 A 
ATOM     10  C   UNL     1       0.283  12.675  21.323  0.00  0.00    +0.000 A 
ATOM     11  O   UNL     1      -0.311  13.415  22.104  0.00  0.00    +0.000 OA
ATOM     12  C   UNL     1       1.020  13.239  20.164  0.00  0.00    +0.000 A 
ATOM     13  C   UNL     1       0.991  14.612  19.906  0.00  0.00    +0.000 A 
ATOM     14  C   UNL     1       1.665  15.117  18.795  0.00  0.00    +0.000 A 
ATOM     15  C   UNL     1       2.368  14.257  17.957  0.00  0.00    +0.000 A 
ATOM     16  C   UNL     1       2.400  12.884  18.220  0.00  0.00    +0.000 A 
ATOM     17  C   UNL     1       1.733  12.363  19.333  0.00  0.00    +0.000 A 
ATOM     18  N   UNL     1       1.661  10.983  19.548  0.00  0.00    +0.000 N 
ATOM     19  C   UNL     1       0.974  10.390  20.627  0.00  0.00    +0.000 A 
ATOM     20  H   UNL     1       2.366  10.388  19.104  0.00  0.00    +0.000 HD
ENDBRANCH   2   5
BRANCH   1  21
ATOM     21  C   UNL     1       2.520   5.879  19.314  0.00  0.00    +0.000 C 
BRANCH  21  22
ATOM     22  C   UNL     1       1.699   4.588  19.244  0.00  0.00    +0.000 C 
ATOM     23  O   UNL     1       1.662   3.835  18.275  0.00  0.00    +0.000 OA
BRANCH  22  25
ATOM     24  C   UNL     1       1.318   3.135  21.056  0.00  0.00    +0.000 C 
ATOM     25  O   UNL     1       1.043   4.385  20.421  0.00  0.00    +0.000 OA
ENDBRANCH  22  25
ENDBRANCH  21  22
BRANCH  21  26
ATOM     26  C   UNL     1       3.985   5.575  19.692  0.00  0.00    +0.000 C 
BRANCH  26  27
ATOM     27  C   UNL     1       4.954   5.580  18.530  0.00  0.00    +0.000 A 
ATOM     28  C   UNL     1       6.303   5.246  18.717  0.00  0.00    +0.000 A 
ATOM     29  C   UNL     1       7.198   5.276  17.644  0.00  0.00    +0.000 A 
ATOM     30  C   UNL     1       6.741   5.635  16.382  0.00  0.00    +0.000 A 
ATOM     31  C   UNL     1       5.406   5.952  16.172  0.00  0.00    +0.000 A 
ATOM     32  C   UNL     1       4.514   5.927  17.244  0.00  0.00    +0.000 A 
BRANCH  30  33
ATOM     33  O   UNL     1       7.584   5.688  15.311  0.00  0.00    +0.000 OA
ATOM     34  H   UNL     1       8.171   4.915  15.342  0.00  0.00    +0.000 HD
ENDBRANCH  30  33
ENDBRANCH  26  27
ENDBRANCH  21  26
ENDBRANCH   1  21
TORSDOF 7
ENDMDL
MODEL 7
REMARK VINA RESULT:      -8.0      2.911      3.359
REMARK  Name = 
REMARK  8 active torsions:
REMARK  status: ('A' for Active; 'I' for Inactive)
REMARK    1  A    between atoms: C_1  and  O_2
REMARK    2  A    between atoms: O_2  and  C_3
REMARK    3  A    between atoms: C_3  and  C_5
REMARK    4  A    between atoms: C_5  and  C_6
REMARK    5  A    between atoms: C_5  and  N_14
REMARK    6  A    between atoms: C_6  and  C_7
REMARK    7  A    between atoms: C_10  and  O_11
REMARK    8  A    between atoms: C_15  and  C_17
REMARK                            x       y       z     vdW  Elec       q    Type
REMARK                         _______ _______ _______ _____ _____    ______ ____
ROOT
ATOM      1  N   UNL     1       2.024   6.951  20.076  0.00  0.00    +0.000 N 
ATOM      2  C   UNL     1       1.580   8.186  19.664  0.00  0.00    +0.000 C 
ATOM      3  O   UNL     1       1.709   8.595  18.513  0.00  0.00    +0.000 OA
ATOM      4  H   UNL     1       1.738   6.567  20.970  0.00  0.00    +0.000 HD
ENDROOT
BRANCH   2   5
ATOM      5  C   UNL     1       0.898   9.030  20.679  0.00  0.00    +0.000 A 
ATOM      6  C   UNL     1       0.181   8.435  21.732  0.00  0.00    +0.000 A 
ATOM      7  C   UNL     1      -0.492   9.228  22.661  0.00  0.00    +0.000 A 
ATOM      8  C   UNL     1      -0.453  10.615  22.544  0.00  0.00    +0.000 A 
ATOM      9  C   UNL     1       0.276  11.211  21.507  0.00  0.00    +0.000 A 
ATOM     10  C   UNL     1       0.288  12.687  21.361  0.00  0.00    +0.000 A 
ATOM     11  O   UNL     1      -0.309  13.394  22.170  0.00  0.00    +0.000 OA
ATOM     12  C   UNL     1       1.018  13.295  20.221  0.00  0.00    +0.000 A 
ATOM     13  C   UNL     1       0.979  14.676  20.012  0.00  0.00    +0.000 A 
ATOM     14  C   UNL     1       1.646  15.225  18.918  0.00  0.00    +0.000 A 
ATOM     15  C   UNL     1       2.352  14.400  18.048  0.00  0.00    +0.000 A 
ATOM     16  C   UNL     1       2.394  13.019  18.262  0.00  0.00    +0.000 A 
ATOM     17  C   UNL     1       1.733  12.454  19.357  0.00  0.00    +0.000 A 
ATOM     18  N   UNL     1       1.671  11.067  19.524  0.00  0.00    +0.000 N 
ATOM     19  C   UNL     1       0.990  10.432  20.583  0.00  0.00    +0.000 A 
ATOM     20  H   UNL     1       2.377  10.492  19.056  0.00  0.00    +0.000 HD
ENDBRANCH   2   5
BRANCH   1  21
ATOM     21  C   UNL     1       2.688   6.031  19.149  0.00  0.00    +0.000 C 
BRANCH  21  22
ATOM     22  C   UNL     1       1.910   4.714  19.070  0.00  0.00    +0.000 C 
ATOM     23  O   UNL     1       1.349   4.176  20.021  0.00  0.00    +0.000 OA
BRANCH  22  25
ATOM     24  C   UNL     1       2.469   2.942  17.626  0.00  0.00    +0.000 C 
ATOM     25  O   UNL     1       1.908   4.245  17.790  0.00  0.00    +0.000 OA
ENDBRANCH  22  25
ENDBRANCH  21  22
BRANCH  21  26
ATOM     26  C   UNL     1       4.169   5.770  19.493  0.00  0.00    +0.000 C 
BRANCH  26  27
ATOM     27  C   UNL     1       5.089   5.662  18.297  0.00  0.00    +0.000 A 
ATOM     28  C   UNL     1       4.713   6.185  17.051  0.00  0.00    +0.000 A 
ATOM     29  C   UNL     1       5.556   6.060  15.944  0.00  0.00    +0.000 A 
ATOM     30  C   UNL     1       6.781   5.417  16.086  0.00  0.00    +0.000 A 
ATOM     31  C   UNL     1       7.179   4.910  17.314  0.00  0.00    +0.000 A 
ATOM     32  C   UNL     1       6.335   5.029  18.418  0.00  0.00    +0.000 A 
BRANCH  30  33
ATOM     33  O   UNL     1       7.628   5.265  15.028  0.00  0.00    +0.000 OA
ATOM     34  H   UNL     1       8.528   5.484  15.320  0.00  0.00    +0.000 HD
ENDBRANCH  30  33
ENDBRANCH  26  27
ENDBRANCH  21  26
ENDBRANCH   1  21
TORSDOF 7
ENDMDL
MODEL 8
REMARK VINA RESULT:      -7.9      2.107      8.560
REMARK  Name = 
REMARK  8 active torsions:
REMARK  status: ('A' for Active; 'I' for Inactive)
REMARK    1  A    between atoms: C_1  and  O_2
REMARK    2  A    between atoms: O_2  and  C_3
REMARK    3  A    between atoms: C_3  and  C_5
REMARK    4  A    between atoms: C_5  and  C_6
REMARK    5  A    between atoms: C_5  and  N_14
REMARK    6  A    between atoms: C_6  and  C_7
REMARK    7  A    between atoms: C_10  and  O_11
REMARK    8  A    between atoms: C_15  and  C_17
REMARK                            x       y       z     vdW  Elec       q    Type
REMARK                         _______ _______ _______ _____ _____    ______ ____
ROOT
ATOM      1  N   UNL     1       0.970   9.358  19.508  0.00  0.00    +0.000 N 
ATOM      2  C   UNL     1       1.782   8.545  18.751  0.00  0.00    +0.000 C 
ATOM      3  O   UNL     1       2.229   8.879  17.657  0.00  0.00    +0.000 OA
ATOM      4  H   UNL     1       0.774   9.137  20.480  0.00  0.00    +0.000 HD
ENDROOT
BRANCH   2   5
ATOM      5  C   UNL     1       2.128   7.218  19.322  0.00  0.00    +0.000 A 
ATOM      6  C   UNL     1       1.548   6.791  20.529  0.00  0.00    +0.000 A 
ATOM      7  C   UNL     1       1.904   5.562  21.084  0.00  0.00    +0.000 A 
ATOM      8  C   UNL     1       2.840   4.757  20.439  0.00  0.00    +0.000 A 
ATOM      9  C   UNL     1       3.405   5.172  19.228  0.00  0.00    +0.000 A 
ATOM     10  C   UNL     1       4.429   4.331  18.560  0.00  0.00    +0.000 A 
ATOM     11  O   UNL     1       4.756   3.250  19.045  0.00  0.00    +0.000 OA
ATOM     12  C   UNL     1       5.059   4.817  17.307  0.00  0.00    +0.000 A 
ATOM     13  C   UNL     1       6.083   4.085  16.700  0.00  0.00    +0.000 A 
ATOM     14  C   UNL     1       6.683   4.573  15.540  0.00  0.00    +0.000 A 
ATOM     15  C   UNL     1       6.256   5.777  14.990  0.00  0.00    +0.000 A 
ATOM     16  C   UNL     1       5.228   6.506  15.596  0.00  0.00    +0.000 A 
ATOM     17  C   UNL     1       4.613   6.027  16.758  0.00  0.00    +0.000 A 
ATOM     18  N   UNL     1       3.663   6.794  17.438  0.00  0.00    +0.000 N 
ATOM     19  C   UNL     1       3.034   6.388  18.633  0.00  0.00    +0.000 A 
ATOM     20  H   UNL     1       3.174   7.530  16.920  0.00  0.00    +0.000 HD
ENDBRANCH   2   5
BRANCH   1  21
ATOM     21  C   UNL     1       0.587  10.696  19.050  0.00  0.00    +0.000 C 
BRANCH  21  22
ATOM     22  C   UNL     1       1.529  11.745  19.648  0.00  0.00    +0.000 C 
ATOM     23  O   UNL     1       1.578  12.043  20.838  0.00  0.00    +0.000 OA
BRANCH  22  25
ATOM     24  C   UNL     1       2.736  13.622  18.902  0.00  0.00    +0.000 C 
ATOM     25  O   UNL     1       2.321  12.275  18.673  0.00  0.00    +0.000 OA
ENDBRANCH  22  25
ENDBRANCH  21  22
BRANCH  21  26
ATOM     26  C   UNL     1      -0.885  11.051  19.346  0.00  0.00    +0.000 C 
BRANCH  26  27
ATOM     27  C   UNL     1      -1.831  10.852  18.182  0.00  0.00    +0.000 A 
ATOM     28  C   UNL     1      -1.541   9.926  17.170  0.00  0.00    +0.000 A 
ATOM     29  C   UNL     1      -2.408   9.765  16.085  0.00  0.00    +0.000 A 
ATOM     30  C   UNL     1      -3.569  10.526  16.018  0.00  0.00    +0.000 A 
ATOM     31  C   UNL     1      -3.883  11.434  17.019  0.00  0.00    +0.000 A 
ATOM     32  C   UNL     1      -3.015  11.600  18.098  0.00  0.00    +0.000 A 
BRANCH  30  33
ATOM     33  O   UNL     1      -4.436  10.407  14.971  0.00  0.00    +0.000 OA
ATOM     34  H   UNL     1      -5.339  10.358  15.323  0.00  0.00    +0.000 HD
ENDBRANCH  30  33
ENDBRANCH  26  27
ENDBRANCH  21  26
ENDBRANCH   1  21
TORSDOF 7
ENDMDL
MODEL 9
REMARK VINA RESULT:      -7.6      2.057      8.783
REMARK  Name = 
REMARK  8 active torsions:
REMARK  status: ('A' for Active; 'I' for Inactive)
REMARK    1  A    between atoms: C_1  and  O_2
REMARK    2  A    between atoms: O_2  and  C_3
REMARK    3  A    between atoms: C_3  and  C_5
REMARK    4  A    between atoms: C_5  and  C_6
REMARK    5  A    between atoms: C_5  and  N_14
REMARK    6  A    between atoms: C_6  and  C_7
REMARK    7  A    between atoms: C_10  and  O_11
REMARK    8  A    between atoms: C_15  and  C_17
REMARK                            x       y       z     vdW  Elec       q    Type
REMARK                         _______ _______ _______ _____ _____    ______ ____
ROOT
ATOM      1  N   UNL     1       1.126   9.468  19.327  0.00  0.00    +0.000 N 
ATOM      2  C   UNL     1       1.800   8.554  18.550  0.00  0.00    +0.000 C 
ATOM      3  O   UNL     1       2.100   8.764  17.378  0.00  0.00    +0.000 OA
ATOM      4  H   UNL     1       1.061   9.348  20.333  0.00  0.00    +0.000 HD
ENDROOT
BRANCH   2   5
ATOM      5  C   UNL     1       2.184   7.273  19.197  0.00  0.00    +0.000 A 
ATOM      6  C   UNL     1       1.614   6.899  20.427  0.00  0.00    +0.000 A 
ATOM      7  C   UNL     1       2.005   5.716  21.053  0.00  0.00    +0.000 A 
ATOM      8  C   UNL     1       2.965   4.903  20.456  0.00  0.00    +0.000 A 
ATOM      9  C   UNL     1       3.521   5.264  19.222  0.00  0.00    +0.000 A 
ATOM     10  C   UNL     1       4.570   4.416  18.605  0.00  0.00    +0.000 A 
ATOM     11  O   UNL     1       4.928   3.375  19.152  0.00  0.00    +0.000 OA
ATOM     12  C   UNL     1       5.189   4.846  17.326  0.00  0.00    +0.000 A 
ATOM     13  C   UNL     1       6.235   4.111  16.763  0.00  0.00    +0.000 A 
ATOM     14  C   UNL     1       6.823   4.549  15.577  0.00  0.00    +0.000 A 
ATOM     15  C   UNL     1       6.362   5.706  14.959  0.00  0.00    +0.000 A 
ATOM     16  C   UNL     1       5.311   6.438  15.521  0.00  0.00    +0.000 A 
ATOM     17  C   UNL     1       4.709   6.009  16.707  0.00  0.00    +0.000 A 
ATOM     18  N   UNL     1       3.735   6.786  17.342  0.00  0.00    +0.000 N 
ATOM     19  C   UNL     1       3.115   6.432  18.558  0.00  0.00    +0.000 A 
ATOM     20  H   UNL     1       3.226   7.476  16.782  0.00  0.00    +0.000 HD
ENDBRANCH   2   5
BRANCH   1  21
ATOM     21  C   UNL     1       0.722  10.772  18.795  0.00  0.00    +0.000 C 
BRANCH  21  22
ATOM     22  C   UNL     1       1.901  11.749  18.848  0.00  0.00    +0.000 C 
ATOM     23  O   UNL     1       2.716  11.910  17.944  0.00  0.00    +0.000 OA
BRANCH  22  25
ATOM     24  C   UNL     1       2.682  13.620  20.042  0.00  0.00    +0.000 C 
ATOM     25  O   UNL     1       1.894  12.428  20.029  0.00  0.00    +0.000 OA
ENDBRANCH  22  25
ENDBRANCH  21  22
BRANCH  21  26
ATOM     26  C   UNL     1      -0.514  11.369  19.499  0.00  0.00    +0.000 C 
BRANCH  26  27
ATOM     27  C   UNL     1      -1.787  11.337  18.681  0.00  0.00    +0.000 A 
ATOM     28  C   UNL     1      -2.955  11.961  19.144  0.00  0.00    +0.000 A 
ATOM     29  C   UNL     1      -4.134  11.906  18.395  0.00  0.00    +0.000 A 
ATOM     30  C   UNL     1      -4.141  11.234  17.179  0.00  0.00    +0.000 A 
ATOM     31  C   UNL     1      -2.991  10.626  16.695  0.00  0.00    +0.000 A 
ATOM     32  C   UNL     1      -1.816  10.675  17.445  0.00  0.00    +0.000 A 
BRANCH  30  33
ATOM     33  O   UNL     1      -5.273  11.148  16.423  0.00  0.00    +0.000 OA
ATOM     34  H   UNL     1      -5.618  12.044  16.281  0.00  0.00    +0.000 HD
ENDBRANCH  30  33
ENDBRANCH  26  27
ENDBRANCH  21  26
ENDBRANCH   1  21
TORSDOF 7
ENDMDL
