MODEL 1
REMARK VINA RESULT:      -7.1      0.000      0.000
REMARK  Name = 
REMARK  7 active torsions:
REMARK  status: ('A' for Active; 'I' for Inactive)
REMARK    1  A    between atoms: C_1  and  S_2
REMARK    2  A    between atoms: S_2  and  C_3
REMARK    3  A    between atoms: C_6  and  C_7
REMARK    4  A    between atoms: C_10  and  S_11
REMARK    5  A    between atoms: S_11  and  C_12
REMARK    6  A    between atoms: C_12  and  C_13
REMARK    7  A    between atoms: C_13  and  O_15
REMARK                            x       y       z     vdW  Elec       q    Type
REMARK                         _______ _______ _______ _____ _____    ______ ____
ROOT
ATOM      1  C   UNL     1       2.561   7.078  18.589  0.00  0.00    +0.000 A 
ATOM      2  C   UNL     1       2.305   5.718  18.627  0.00  0.00    +0.000 A 
ATOM      3  C   UNL     1       3.232   4.930  17.862  0.00  0.00    +0.000 A 
ATOM      4  C   UNL     1       3.402   3.557  17.659  0.00  0.00    +0.000 A 
ATOM      5  N   UNL     1       4.428   3.091  16.912  0.00  0.00    +0.000 NA
ATOM      6  C   UNL     1       5.225   4.011  16.332  0.00  0.00    +0.000 A 
ATOM      7  N   UNL     1       5.150   5.342  16.429  0.00  0.00    +0.000 NA
ATOM      8  C   UNL     1       4.142   5.748  17.219  0.00  0.00    +0.000 A 
ATOM      9  S   UNL     1       3.870   7.401  17.521  0.00  0.00    +0.000 S 
ENDROOT
BRANCH   1  13
ATOM     10  C   UNL     1       0.394  10.157  20.674  0.00  0.00    +0.000 A 
ATOM     11  C   UNL     1       0.829   9.020  21.359  0.00  0.00    +0.000 A 
ATOM     12  C   UNL     1       1.562   8.029  20.696  0.00  0.00    +0.000 A 
ATOM     13  C   UNL     1       1.874   8.149  19.333  0.00  0.00    +0.000 A 
ATOM     14  C   UNL     1       1.435   9.302  18.661  0.00  0.00    +0.000 A 
ATOM     15  C   UNL     1       0.696  10.291  19.321  0.00  0.00    +0.000 A 
BRANCH  10  17
ATOM     16  C   UNL     1      -0.943  10.551  23.034  0.00  0.00    +0.000 C 
ATOM     17  S   UNL     1      -0.578  11.412  21.483  0.00  0.00    +0.000 S 
ENDBRANCH  10  17
ENDBRANCH   1  13
BRANCH   4  18
ATOM     18  S   UNL     1       2.244   2.441  18.397  0.00  0.00    +0.000 S 
BRANCH  18  19
ATOM     19  C   UNL     1       2.709   2.523  20.144  0.00  0.00    +0.000 C 
BRANCH  19  20
ATOM     20  C   UNL     1       1.513   2.743  21.041  0.00  0.00    +0.000 C 
ATOM     21  O   UNL     1       1.483   2.463  22.231  0.00  0.00    +0.000 OA
BRANCH  20  22
ATOM     22  O   UNL     1       0.449   3.287  20.403  0.00  0.00    +0.000 OA
ATOM     23  H   UNL     1       0.366   2.959  19.480  0.00  0.00    +0.000 HD
ENDBRANCH  20  22
ENDBRANCH  19  20
ENDBRANCH  18  19
ENDBRANCH   4  18
TORSDOF 6
ENDMDL
MODEL 2
REMARK VINA RESULT:      -7.0      2.869      3.861
REMARK  Name = 
REMARK  7 active torsions:
REMARK  status: ('A' for Active; 'I' for Inactive)
REMARK    1  A    between atoms: C_1  and  S_2
REMARK    2  A    between atoms: S_2  and  C_3
REMARK    3  A    between atoms: C_6  and  C_7
REMARK    4  A    between atoms: C_10  and  S_11
REMARK    5  A    between atoms: S_11  and  C_12
REMARK    6  A    between atoms: C_12  and  C_13
REMARK    7  A    between atoms: C_13  and  O_15
REMARK                            x       y       z     vdW  Elec       q    Type
REMARK                         _______ _______ _______ _____ _____    ______ ____
ROOT
ATOM      1  C   UNL     1       2.243   6.817  19.703  0.00  0.00    +0.000 A 
ATOM      2  C   UNL     1       3.157   6.631  18.681  0.00  0.00    +0.000 A 
ATOM      3  C   UNL     1       3.531   5.258  18.478  0.00  0.00    +0.000 A 
ATOM      4  C   UNL     1       4.349   4.601  17.553  0.00  0.00    +0.000 A 
ATOM      5  N   UNL     1       4.468   3.254  17.571  0.00  0.00    +0.000 NA
ATOM      6  C   UNL     1       3.816   2.599  18.552  0.00  0.00    +0.000 A 
ATOM      7  N   UNL     1       3.029   3.113  19.502  0.00  0.00    +0.000 NA
ATOM      8  C   UNL     1       2.908   4.448  19.410  0.00  0.00    +0.000 A 
ATOM      9  S   UNL     1       1.928   5.322  20.492  0.00  0.00    +0.000 S 
ENDROOT
BRANCH   1  13
ATOM     10  C   UNL     1       0.465  10.525  20.977  0.00  0.00    +0.000 A 
ATOM     11  C   UNL     1       0.856  10.356  19.647  0.00  0.00    +0.000 A 
ATOM     12  C   UNL     1       1.406   9.142  19.217  0.00  0.00    +0.000 A 
ATOM     13  C   UNL     1       1.580   8.071  20.107  0.00  0.00    +0.000 A 
ATOM     14  C   UNL     1       1.175   8.255  21.439  0.00  0.00    +0.000 A 
ATOM     15  C   UNL     1       0.632   9.470  21.872  0.00  0.00    +0.000 A 
BRANCH  10  17
ATOM     16  C   UNL     1      -1.209  11.464  22.933  0.00  0.00    +0.000 C 
ATOM     17  S   UNL     1      -0.196  12.072  21.561  0.00  0.00    +0.000 S 
ENDBRANCH  10  17
ENDBRANCH   1  13
BRANCH   4  18
ATOM     18  S   UNL     1       5.230   5.569  16.363  0.00  0.00    +0.000 S 
BRANCH  18  19
ATOM     19  C   UNL     1       6.614   6.198  17.344  0.00  0.00    +0.000 C 
BRANCH  19  20
ATOM     20  C   UNL     1       7.529   5.090  17.811  0.00  0.00    +0.000 C 
ATOM     21  O   UNL     1       8.006   4.236  17.078  0.00  0.00    +0.000 OA
BRANCH  20  22
ATOM     22  O   UNL     1       7.784   5.120  19.141  0.00  0.00    +0.000 OA
ATOM     23  H   UNL     1       8.654   5.535  19.340  0.00  0.00    +0.000 HD
ENDBRANCH  20  22
ENDBRANCH  19  20
ENDBRANCH  18  19
ENDBRANCH   4  18
TORSDOF 6
ENDMDL
MODEL 3
REMARK VINA RESULT:      -7.0      3.406      4.444
REMARK  Name = 
REMARK  7 active torsions:
REMARK  status: ('A' for Active; 'I' for Inactive)
REMARK    1  A    between atoms: C_1  and  S_2
REMARK    2  A    between atoms: S_2  and  C_3
REMARK    3  A    between atoms: C_6  and  C_7
REMARK    4  A    between atoms: C_10  and  S_11
REMARK    5  A    between atoms: S_11  and  C_12
REMARK    6  A    between atoms: C_12  and  C_13
REMARK    7  A    between atoms: C_13  and  O_15
REMARK                            x       y       z     vdW  Elec       q    Type
REMARK                         _______ _______ _______ _____ _____    ______ ____
ROOT
ATOM      1  C   UNL     1       2.502   6.718  19.546  0.00  0.00    +0.000 A 
ATOM      2  C   UNL     1       3.682   6.262  18.985  0.00  0.00    +0.000 A 
ATOM      3  C   UNL     1       3.984   4.893  19.302  0.00  0.00    +0.000 A 
ATOM      4  C   UNL     1       5.003   4.012  18.924  0.00  0.00    +0.000 A 
ATOM      5  N   UNL     1       4.995   2.727  19.346  0.00  0.00    +0.000 NA
ATOM      6  C   UNL     1       4.005   2.368  20.187  0.00  0.00    +0.000 A 
ATOM      7  N   UNL     1       2.995   3.120  20.636  0.00  0.00    +0.000 NA
ATOM      8  C   UNL     1       3.025   4.372  20.150  0.00  0.00    +0.000 A 
ATOM      9  S   UNL     1       1.820   5.505  20.556  0.00  0.00    +0.000 S 
ENDROOT
BRANCH   1  13
ATOM     10  C   UNL     1       0.740  10.616  19.063  0.00  0.00    +0.000 A 
ATOM     11  C   UNL     1       1.380   9.998  17.987  0.00  0.00    +0.000 A 
ATOM     12  C   UNL     1       1.927   8.718  18.126  0.00  0.00    +0.000 A 
ATOM     13  C   UNL     1       1.851   8.027  19.345  0.00  0.00    +0.000 A 
ATOM     14  C   UNL     1       1.199   8.659  20.416  0.00  0.00    +0.000 A 
ATOM     15  C   UNL     1       0.657   9.943  20.280  0.00  0.00    +0.000 A 
BRANCH  10  17
ATOM     16  C   UNL     1      -1.507  11.878  18.129  0.00  0.00    +0.000 C 
ATOM     17  S   UNL     1       0.074  12.263  18.927  0.00  0.00    +0.000 S 
ENDBRANCH  10  17
ENDBRANCH   1  13
BRANCH   4  18
ATOM     18  S   UNL     1       6.304   4.613  17.887  0.00  0.00    +0.000 S 
BRANCH  18  19
ATOM     19  C   UNL     1       5.552   4.501  16.245  0.00  0.00    +0.000 C 
BRANCH  19  20
ATOM     20  C   UNL     1       6.588   4.489  15.145  0.00  0.00    +0.000 C 
ATOM     21  O   UNL     1       7.515   5.281  15.062  0.00  0.00    +0.000 OA
BRANCH  20  22
ATOM     22  O   UNL     1       6.402   3.504  14.234  0.00  0.00    +0.000 OA
ATOM     23  H   UNL     1       7.182   3.394  13.645  0.00  0.00    +0.000 HD
ENDBRANCH  20  22
ENDBRANCH  19  20
ENDBRANCH  18  19
ENDBRANCH   4  18
TORSDOF 6
ENDMDL
MODEL 4
REMARK VINA RESULT:      -7.0      0.207      1.046
REMARK  Name = 
REMARK  7 active torsions:
REMARK  status: ('A' for Active; 'I' for Inactive)
REMARK    1  A    between atoms: C_1  and  S_2
REMARK    2  A    between atoms: S_2  and  C_3
REMARK    3  A    between atoms: C_6  and  C_7
REMARK    4  A    between atoms: C_10  and  S_11
REMARK    5  A    between atoms: S_11  and  C_12
REMARK    6  A    between atoms: C_12  and  C_13
REMARK    7  A    between atoms: C_13  and  O_15
REMARK                            x       y       z     vdW  Elec       q    Type
REMARK                         _______ _______ _______ _____ _____    ______ ____
ROOT
ATOM      1  C   UNL     1       2.521   7.118  18.526  0.00  0.00    +0.000 A 
ATOM      2  C   UNL     1       2.293   5.753  18.550  0.00  0.00    +0.000 A 
ATOM      3  C   UNL     1       3.269   4.988  17.824  0.00  0.00    +0.000 A 
ATOM      4  C   UNL     1       3.478   3.619  17.627  0.00  0.00    +0.000 A 
ATOM      5  N   UNL     1       4.546   3.178  16.924  0.00  0.00    +0.000 NA
ATOM      6  C   UNL     1       5.346   4.116  16.381  0.00  0.00    +0.000 A 
ATOM      7  N   UNL     1       5.238   5.445  16.477  0.00  0.00    +0.000 NA
ATOM      8  C   UNL     1       4.189   5.827  17.223  0.00  0.00    +0.000 A 
ATOM      9  S   UNL     1       3.867   7.473  17.517  0.00  0.00    +0.000 S 
ENDROOT
BRANCH   1  13
ATOM     10  C   UNL     1       0.515  10.245  20.701  0.00  0.00    +0.000 A 
ATOM     11  C   UNL     1       0.753  10.384  19.331  0.00  0.00    +0.000 A 
ATOM     12  C   UNL     1       1.376   9.359  18.610  0.00  0.00    +0.000 A 
ATOM     13  C   UNL     1       1.779   8.172  19.241  0.00  0.00    +0.000 A 
ATOM     14  C   UNL     1       1.527   8.044  20.617  0.00  0.00    +0.000 A 
ATOM     15  C   UNL     1       0.910   9.072  21.341  0.00  0.00    +0.000 A 
BRANCH  10  17
ATOM     16  C   UNL     1      -0.909  10.574  23.019  0.00  0.00    +0.000 C 
ATOM     17  S   UNL     1      -0.235  11.551  21.651  0.00  0.00    +0.000 S 
ENDBRANCH  10  17
ENDBRANCH   1  13
BRANCH   4  18
ATOM     18  S   UNL     1       2.313   2.476  18.311  0.00  0.00    +0.000 S 
BRANCH  18  19
ATOM     19  C   UNL     1       2.843   2.396  20.040  0.00  0.00    +0.000 C 
BRANCH  19  20
ATOM     20  C   UNL     1       1.747   2.820  20.989  0.00  0.00    +0.000 C 
ATOM     21  O   UNL     1       1.890   2.942  22.197  0.00  0.00    +0.000 OA
BRANCH  20  22
ATOM     22  O   UNL     1       0.561   3.059  20.379  0.00  0.00    +0.000 OA
ATOM     23  H   UNL     1       0.674   3.546  19.532  0.00  0.00    +0.000 HD
ENDBRANCH  20  22
ENDBRANCH  19  20
ENDBRANCH  18  19
ENDBRANCH   4  18
TORSDOF 6
ENDMDL
MODEL 5
REMARK VINA RESULT:      -7.0      2.837      3.710
REMARK  Name = 
REMARK  7 active torsions:
REMARK  status: ('A' for Active; 'I' for Inactive)
REMARK    1  A    between atoms: C_1  and  S_2
REMARK    2  A    between atoms: S_2  and  C_3
REMARK    3  A    between atoms: C_6  and  C_7
REMARK    4  A    between atoms: C_10  and  S_11
REMARK    5  A    between atoms: S_11  and  C_12
REMARK    6  A    between atoms: C_12  and  C_13
REMARK    7  A    between atoms: C_13  and  O_15
REMARK                            x       y       z     vdW  Elec       q    Type
REMARK                         _______ _______ _______ _____ _____    ______ ____
ROOT
ATOM      1  C   UNL     1       2.426   6.848  19.251  0.00  0.00    +0.000 A 
ATOM      2  C   UNL     1       3.388   6.723  18.265  0.00  0.00    +0.000 A 
ATOM      3  C   UNL     1       3.736   5.362  17.961  0.00  0.00    +0.000 A 
ATOM      4  C   UNL     1       4.586   4.764  17.025  0.00  0.00    +0.000 A 
ATOM      5  N   UNL     1       4.669   3.417  16.930  0.00  0.00    +0.000 NA
ATOM      6  C   UNL     1       3.950   2.699  17.816  0.00  0.00    +0.000 A 
ATOM      7  N   UNL     1       3.126   3.153  18.766  0.00  0.00    +0.000 NA
ATOM      8  C   UNL     1       3.045   4.494  18.785  0.00  0.00    +0.000 A 
ATOM      9  S   UNL     1       2.031   5.301  19.889  0.00  0.00    +0.000 S 
ENDROOT
BRANCH   1  13
ATOM     10  C   UNL     1       0.370  10.399  20.554  0.00  0.00    +0.000 A 
ATOM     11  C   UNL     1       0.626   9.365  21.458  0.00  0.00    +0.000 A 
ATOM     12  C   UNL     1       1.321   8.221  21.051  0.00  0.00    +0.000 A 
ATOM     13  C   UNL     1       1.775   8.082  19.730  0.00  0.00    +0.000 A 
ATOM     14  C   UNL     1       1.515   9.132  18.835  0.00  0.00    +0.000 A 
ATOM     15  C   UNL     1       0.813  10.274  19.239  0.00  0.00    +0.000 A 
BRANCH  10  17
ATOM     16  C   UNL     1       0.782  13.070  21.009  0.00  0.00    +0.000 C 
ATOM     17  S   UNL     1      -0.552  11.845  21.034  0.00  0.00    +0.000 S 
ENDBRANCH  10  17
ENDBRANCH   1  13
BRANCH   4  18
ATOM     18  S   UNL     1       5.553   5.804  15.970  0.00  0.00    +0.000 S 
BRANCH  18  19
ATOM     19  C   UNL     1       6.914   6.280  17.063  0.00  0.00    +0.000 C 
BRANCH  19  20
ATOM     20  C   UNL     1       7.486   5.095  17.808  0.00  0.00    +0.000 C 
ATOM     21  O   UNL     1       7.527   5.001  19.026  0.00  0.00    +0.000 OA
BRANCH  20  22
ATOM     22  O   UNL     1       7.963   4.121  16.995  0.00  0.00    +0.000 OA
ATOM     23  H   UNL     1       8.199   3.308  17.496  0.00  0.00    +0.000 HD
ENDBRANCH  20  22
ENDBRANCH  19  20
ENDBRANCH  18  19
ENDBRANCH   4  18
TORSDOF 6
ENDMDL
MODEL 6
REMARK VINA RESULT:      -7.0      3.258      4.090
REMARK  Name = 
REMARK  7 active torsions:
REMARK  status: ('A' for Active; 'I' for Inactive)
REMARK    1  A    between atoms: C_1  and  S_2
REMARK    2  A    between atoms: S_2  and  C_3
REMARK    3  A    between atoms: C_6  and  C_7
REMARK    4  A    between atoms: C_10  and  S_11
REMARK    5  A    between atoms: S_11  and  C_12
REMARK    6  A    between atoms: C_12  and  C_13
REMARK    7  A    between atoms: C_13  and  O_15
REMARK                            x       y       z     vdW  Elec       q    Type
REMARK                         _______ _______ _______ _____ _____    ______ ____
ROOT
ATOM      1  C   UNL     1       2.400   6.413  19.240  0.00  0.00    +0.000 A 
ATOM      2  C   UNL     1       3.229   5.877  18.271  0.00  0.00    +0.000 A 
ATOM      3  C   UNL     1       3.379   4.450  18.359  0.00  0.00    +0.000 A 
ATOM      4  C   UNL     1       4.046   3.495  17.585  0.00  0.00    +0.000 A 
ATOM      5  N   UNL     1       3.958   2.180  17.885  0.00  0.00    +0.000 NA
ATOM      6  C   UNL     1       3.257   1.853  18.989  0.00  0.00    +0.000 A 
ATOM      7  N   UNL     1       2.600   2.671  19.818  0.00  0.00    +0.000 NA
ATOM      8  C   UNL     1       2.682   3.960  19.447  0.00  0.00    +0.000 A 
ATOM      9  S   UNL     1       1.895   5.184  20.330  0.00  0.00    +0.000 S 
ENDROOT
BRANCH   1  13
ATOM     10  C   UNL     1       0.950  10.456  19.535  0.00  0.00    +0.000 A 
ATOM     11  C   UNL     1       0.898   9.610  20.645  0.00  0.00    +0.000 A 
ATOM     12  C   UNL     1       1.396   8.304  20.567  0.00  0.00    +0.000 A 
ATOM     13  C   UNL     1       1.955   7.813  19.377  0.00  0.00    +0.000 A 
ATOM     14  C   UNL     1       2.007   8.678  18.272  0.00  0.00    +0.000 A 
ATOM     15  C   UNL     1       1.502   9.983  18.346  0.00  0.00    +0.000 A 
BRANCH  10  17
ATOM     16  C   UNL     1      -1.196  11.794  20.591  0.00  0.00    +0.000 C 
ATOM     17  S   UNL     1       0.283  12.107  19.593  0.00  0.00    +0.000 S 
ENDBRANCH  10  17
ENDBRANCH   1  13
BRANCH   4  18
ATOM     18  S   UNL     1       5.012   4.043  16.207  0.00  0.00    +0.000 S 
BRANCH  18  19
ATOM     19  C   UNL     1       6.535   4.592  17.015  0.00  0.00    +0.000 C 
BRANCH  19  20
ATOM     20  C   UNL     1       7.237   5.675  16.229  0.00  0.00    +0.000 C 
ATOM     21  O   UNL     1       7.590   6.747  16.697  0.00  0.00    +0.000 OA
BRANCH  20  22
ATOM     22  O   UNL     1       7.447   5.354  14.929  0.00  0.00    +0.000 OA
ATOM     23  H   UNL     1       6.614   5.372  14.406  0.00  0.00    +0.000 HD
ENDBRANCH  20  22
ENDBRANCH  19  20
ENDBRANCH  18  19
ENDBRANCH   4  18
TORSDOF 6
ENDMDL
MODEL 7
REMARK VINA RESULT:      -7.0      2.860      3.877
REMARK  Name = 
REMARK  7 active torsions:
REMARK  status: ('A' for Active; 'I' for Inactive)
REMARK    1  A    between atoms: C_1  and  S_2
REMARK    2  A    between atoms: S_2  and  C_3
REMARK    3  A    between atoms: C_6  and  C_7
REMARK    4  A    between atoms: C_10  and  S_11
REMARK    5  A    between atoms: S_11  and  C_12
REMARK    6  A    between atoms: C_12  and  C_13
REMARK    7  A    between atoms: C_13  and  O_15
REMARK                            x       y       z     vdW  Elec       q    Type
REMARK                         _______ _______ _______ _____ _____    ______ ____
ROOT
ATOM      1  C   UNL     1       2.343   6.853  19.416  0.00  0.00    +0.000 A 
ATOM      2  C   UNL     1       3.286   6.723  18.411  0.00  0.00    +0.000 A 
ATOM      3  C   UNL     1       3.658   5.363  18.137  0.00  0.00    +0.000 A 
ATOM      4  C   UNL     1       4.501   4.758  17.198  0.00  0.00    +0.000 A 
ATOM      5  N   UNL     1       4.613   3.412  17.137  0.00  0.00    +0.000 NA
ATOM      6  C   UNL     1       3.930   2.702  18.058  0.00  0.00    +0.000 A 
ATOM      7  N   UNL     1       3.118   3.163  19.014  0.00  0.00    +0.000 NA
ATOM      8  C   UNL     1       3.006   4.502  18.999  0.00  0.00    +0.000 A 
ATOM      9  S   UNL     1       1.998   5.316  20.104  0.00  0.00    +0.000 S 
ENDROOT
BRANCH   1  13
ATOM     10  C   UNL     1       0.551  10.496  20.848  0.00  0.00    +0.000 A 
ATOM     11  C   UNL     1       0.887  10.363  19.499  0.00  0.00    +0.000 A 
ATOM     12  C   UNL     1       1.441   9.171  19.019  0.00  0.00    +0.000 A 
ATOM     13  C   UNL     1       1.674   8.085  19.876  0.00  0.00    +0.000 A 
ATOM     14  C   UNL     1       1.324   8.232  21.228  0.00  0.00    +0.000 A 
ATOM     15  C   UNL     1       0.777   9.427  21.712  0.00  0.00    +0.000 A 
BRANCH  10  17
ATOM     16  C   UNL     1      -0.437  12.885  19.936  0.00  0.00    +0.000 C 
ATOM     17  S   UNL     1      -0.113  12.018  21.493  0.00  0.00    +0.000 S 
ENDBRANCH  10  17
ENDBRANCH   1  13
BRANCH   4  18
ATOM     18  S   UNL     1       5.420   5.791  16.094  0.00  0.00    +0.000 S 
BRANCH  18  19
ATOM     19  C   UNL     1       6.822   6.284  17.125  0.00  0.00    +0.000 C 
BRANCH  19  20
ATOM     20  C   UNL     1       7.488   5.098  17.783  0.00  0.00    +0.000 C 
ATOM     21  O   UNL     1       7.674   4.991  18.987  0.00  0.00    +0.000 OA
BRANCH  20  22
ATOM     22  O   UNL     1       7.875   4.138  16.909  0.00  0.00    +0.000 OA
ATOM     23  H   UNL     1       8.192   3.328  17.368  0.00  0.00    +0.000 HD
ENDBRANCH  20  22
ENDBRANCH  19  20
ENDBRANCH  18  19
ENDBRANCH   4  18
TORSDOF 6
ENDMDL
MODEL 8
REMARK VINA RESULT:      -7.0      3.317      4.214
REMARK  Name = 
REMARK  7 active torsions:
REMARK  status: ('A' for Active; 'I' for Inactive)
REMARK    1  A    between atoms: C_1  and  S_2
REMARK    2  A    between atoms: S_2  and  C_3
REMARK    3  A    between atoms: C_6  and  C_7
REMARK    4  A    between atoms: C_10  and  S_11
REMARK    5  A    between atoms: S_11  and  C_12
REMARK    6  A    between atoms: C_12  and  C_13
REMARK    7  A    between atoms: C_13  and  O_15
REMARK                            x       y       z     vdW  Elec       q    Type
REMARK                         _______ _______ _______ _____ _____    ______ ____
ROOT
ATOM      1  C   UNL     1       2.236   6.666  19.749  0.00  0.00    +0.000 A 
ATOM      2  C   UNL     1       3.117   6.405  18.714  0.00  0.00    +0.000 A 
ATOM      3  C   UNL     1       3.391   5.008  18.522  0.00  0.00    +0.000 A 
ATOM      4  C   UNL     1       4.146   4.286  17.592  0.00  0.00    +0.000 A 
ATOM      5  N   UNL     1       4.171   2.934  17.624  0.00  0.00    +0.000 NA
ATOM      6  C   UNL     1       3.492   2.336  18.623  0.00  0.00    +0.000 A 
ATOM      7  N   UNL     1       2.759   2.914  19.580  0.00  0.00    +0.000 NA
ATOM      8  C   UNL     1       2.730   4.253  19.474  0.00  0.00    +0.000 A 
ATOM      9  S   UNL     1       1.831   5.206  20.561  0.00  0.00    +0.000 S 
ENDROOT
BRANCH   1  13
ATOM     10  C   UNL     1       0.424  10.421  20.821  0.00  0.00    +0.000 A 
ATOM     11  C   UNL     1       0.592   9.423  21.784  0.00  0.00    +0.000 A 
ATOM     12  C   UNL     1       1.209   8.212  21.452  0.00  0.00    +0.000 A 
ATOM     13  C   UNL     1       1.669   7.968  20.149  0.00  0.00    +0.000 A 
ATOM     14  C   UNL     1       1.498   8.983  19.194  0.00  0.00    +0.000 A 
ATOM     15  C   UNL     1       0.874  10.193  19.523  0.00  0.00    +0.000 A 
BRANCH  10  17
ATOM     16  C   UNL     1      -1.031  11.546  22.854  0.00  0.00    +0.000 C 
ATOM     17  S   UNL     1      -0.398  11.954  21.206  0.00  0.00    +0.000 S 
ENDBRANCH  10  17
ENDBRANCH   1  13
BRANCH   4  18
ATOM     18  S   UNL     1       5.071   5.177  16.376  0.00  0.00    +0.000 S 
BRANCH  18  19
ATOM     19  C   UNL     1       6.070   3.864  15.633  0.00  0.00    +0.000 C 
BRANCH  19  20
ATOM     20  C   UNL     1       6.759   4.321  14.368  0.00  0.00    +0.000 C 
ATOM     21  O   UNL     1       7.484   5.303  14.293  0.00  0.00    +0.000 OA
BRANCH  20  22
ATOM     22  O   UNL     1       6.500   3.536  13.294  0.00  0.00    +0.000 OA
ATOM     23  H   UNL     1       6.660   2.585  13.487  0.00  0.00    +0.000 HD
ENDBRANCH  20  22
ENDBRANCH  19  20
ENDBRANCH  18  19
ENDBRANCH   4  18
TORSDOF 6
ENDMDL
MODEL 9
REMARK VINA RESULT:      -6.9      3.550      4.482
REMARK  Name = 
REMARK  7 active torsions:
REMARK  status: ('A' for Active; 'I' for Inactive)
REMARK    1  A    between atoms: C_1  and  S_2
REMARK    2  A    between atoms: S_2  and  C_3
REMARK    3  A    between atoms: C_6  and  C_7
REMARK    4  A    between atoms: C_10  and  S_11
REMARK    5  A    between atoms: S_11  and  C_12
REMARK    6  A    between atoms: C_12  and  C_13
REMARK    7  A    between atoms: C_13  and  O_15
REMARK                            x       y       z     vdW  Elec       q    Type
REMARK                         _______ _______ _______ _____ _____    ______ ____
ROOT
ATOM      1  C   UNL     1       2.487   6.738  19.537  0.00  0.00    +0.000 A 
ATOM      2  C   UNL     1       3.643   6.248  18.956  0.00  0.00    +0.000 A 
ATOM      3  C   UNL     1       3.933   4.883  19.299  0.00  0.00    +0.000 A 
ATOM      4  C   UNL     1       4.926   3.975  18.916  0.00  0.00    +0.000 A 
ATOM      5  N   UNL     1       4.910   2.702  19.371  0.00  0.00    +0.000 NA
ATOM      6  C   UNL     1       3.938   2.381  20.248  0.00  0.00    +0.000 A 
ATOM      7  N   UNL     1       2.954   3.161  20.706  0.00  0.00    +0.000 NA
ATOM      8  C   UNL     1       2.989   4.400  20.187  0.00  0.00    +0.000 A 
ATOM      9  S   UNL     1       1.815   5.562  20.597  0.00  0.00    +0.000 S 
ENDROOT
BRANCH   1  13
ATOM     10  C   UNL     1       0.766  10.649  19.014  0.00  0.00    +0.000 A 
ATOM     11  C   UNL     1       1.440  10.033  17.957  0.00  0.00    +0.000 A 
ATOM     12  C   UNL     1       1.975   8.748  18.109  0.00  0.00    +0.000 A 
ATOM     13  C   UNL     1       1.852   8.051  19.320  0.00  0.00    +0.000 A 
ATOM     14  C   UNL     1       1.166   8.682  20.371  0.00  0.00    +0.000 A 
ATOM     15  C   UNL     1       0.637   9.970  20.223  0.00  0.00    +0.000 A 
BRANCH  10  17
ATOM     16  C   UNL     1      -1.555  11.909  18.282  0.00  0.00    +0.000 C 
ATOM     17  S   UNL     1       0.116  12.300  18.862  0.00  0.00    +0.000 S 
ENDBRANCH  10  17
ENDBRANCH   1  13
BRANCH   4  18
ATOM     18  S   UNL     1       6.207   4.529  17.828  0.00  0.00    +0.000 S 
BRANCH  18  19
ATOM     19  C   UNL     1       7.144   5.648  18.896  0.00  0.00    +0.000 C 
BRANCH  19  20
ATOM     20  C   UNL     1       7.788   6.771  18.117  0.00  0.00    +0.000 C 
ATOM     21  O   UNL     1       7.657   6.938  16.912  0.00  0.00    +0.000 OA
BRANCH  20  22
ATOM     22  O   UNL     1       8.543   7.599  18.879  0.00  0.00    +0.000 OA
ATOM     23  H   UNL     1       9.445   7.721  18.507  0.00  0.00    +0.000 HD
ENDBRANCH  20  22
ENDBRANCH  19  20
ENDBRANCH  18  19
ENDBRANCH   4  18
TORSDOF 6
ENDMDL
