MODEL 1
REMARK VINA RESULT:      -7.4      0.000      0.000
REMARK  Name = 
REMARK  6 active torsions:
REMARK  status: ('A' for Active; 'I' for Inactive)
REMARK    1  A    between atoms: C_2  and  C_3
REMARK    2  A    between atoms: C_3  and  C_16
REMARK    3  A    between atoms: C_4  and  C_5
REMARK    4  A    between atoms: C_7  and  O_8
REMARK    5  A    between atoms: C_9  and  O_10
REMARK    6  A    between atoms: C_11  and  N_12
REMARK                            x       y       z     vdW  Elec       q    Type
REMARK                         _______ _______ _______ _____ _____    ______ ____
ROOT
ATOM      1  C   UNL     1       1.704   7.979  19.937  0.00  0.00    +0.000 C 
ATOM      2  C   UNL     1       2.099   6.738  20.295  0.00  0.00    +0.000 C 
ENDROOT
BRANCH   1   3
ATOM      3  C   UNL     1       0.908   8.835  20.868  0.00  0.00    +0.000 C 
ATOM      4  O   UNL     1       0.913   8.559  22.064  0.00  0.00    +0.000 OA
ATOM      5  N   UNL     1       0.191   9.855  20.265  0.00  0.00    +0.000 N 
ATOM      6  C   UNL     1      -0.582  10.799  20.960  0.00  0.00    +0.000 A 
ATOM      7  C   UNL     1      -1.402  11.632  20.224  0.00  0.00    +0.000 A 
ATOM      8  C   UNL     1      -2.158  12.531  20.943  0.00  0.00    +0.000 A 
ATOM      9  N   UNL     1      -2.106  12.639  22.280  0.00  0.00    +0.000 NA
ATOM     10  C   UNL     1      -1.264  11.797  22.893  0.00  0.00    +0.000 A 
ATOM     11  N   UNL     1      -0.498  10.880  22.294  0.00  0.00    +0.000 NA
ATOM     12  H   UNL     1       0.164   9.931  19.256  0.00  0.00    +0.000 HD
ENDBRANCH   1   3
BRANCH   2  13
ATOM     13  C   UNL     1       2.830   5.820  19.401  0.00  0.00    +0.000 A 
ATOM     14  C   UNL     1       2.136   4.932  18.560  0.00  0.00    +0.000 A 
ATOM     15  C   UNL     1       2.848   4.031  17.765  0.00  0.00    +0.000 A 
ATOM     16  C   UNL     1       4.242   3.997  17.778  0.00  0.00    +0.000 A 
ATOM     17  C   UNL     1       4.922   4.882  18.604  0.00  0.00    +0.000 A 
ATOM     18  C   UNL     1       4.232   5.792  19.425  0.00  0.00    +0.000 A 
BRANCH  17  19
ATOM     19  N   UNL     1       6.369   4.867  18.654  0.00  0.00    +0.000 N 
ATOM     20  O   UNL     1       6.907   5.035  19.756  0.00  0.00    +0.000 OA
ATOM     21  O   UNL     1       6.958   4.601  17.596  0.00  0.00    +0.000 OA
ENDBRANCH  17  19
BRANCH  15  22
ATOM     22  O   UNL     1       2.214   3.129  16.953  0.00  0.00    +0.000 OA
ATOM     23  H   UNL     1       2.538   3.236  16.041  0.00  0.00    +0.000 HD
ENDBRANCH  15  22
BRANCH  16  24
ATOM     24  O   UNL     1       4.886   3.075  17.004  0.00  0.00    +0.000 OA
ATOM     25  H   UNL     1       5.769   3.451  16.818  0.00  0.00    +0.000 HD
ENDBRANCH  16  24
ENDBRANCH   2  13
BRANCH   1  27
ATOM     26  N   UNL     1       2.317   8.910  17.389  0.00  0.00    +0.000 NA
ATOM     27  C   UNL     1       2.039   8.488  18.544  0.00  0.00    +0.000 C 
ENDBRANCH   1  27
TORSDOF 6
ENDMDL
MODEL 2
REMARK VINA RESULT:      -7.3      2.389      3.519
REMARK  Name = 
REMARK  6 active torsions:
REMARK  status: ('A' for Active; 'I' for Inactive)
REMARK    1  A    between atoms: C_2  and  C_3
REMARK    2  A    between atoms: C_3  and  C_16
REMARK    3  A    between atoms: C_4  and  C_5
REMARK    4  A    between atoms: C_7  and  O_8
REMARK    5  A    between atoms: C_9  and  O_10
REMARK    6  A    between atoms: C_11  and  N_12
REMARK                            x       y       z     vdW  Elec       q    Type
REMARK                         _______ _______ _______ _____ _____    ______ ____
ROOT
ATOM      1  C   UNL     1       2.804   7.550  18.257  0.00  0.00    +0.000 C 
ATOM      2  C   UNL     1       3.900   7.720  17.487  0.00  0.00    +0.000 C 
ENDROOT
BRANCH   1   3
ATOM      3  C   UNL     1       1.787   8.637  18.404  0.00  0.00    +0.000 C 
ATOM      4  O   UNL     1       1.427   9.240  17.398  0.00  0.00    +0.000 OA
ATOM      5  N   UNL     1       1.376   8.887  19.703  0.00  0.00    +0.000 N 
ATOM      6  C   UNL     1       0.397   9.830  20.056  0.00  0.00    +0.000 A 
ATOM      7  C   UNL     1       0.230  10.119  21.396  0.00  0.00    +0.000 A 
ATOM      8  C   UNL     1      -0.726  11.063  21.700  0.00  0.00    +0.000 A 
ATOM      9  N   UNL     1      -1.489  11.667  20.776  0.00  0.00    +0.000 NA
ATOM     10  C   UNL     1      -1.259  11.299  19.509  0.00  0.00    +0.000 A 
ATOM     11  N   UNL     1      -0.350  10.408  19.105  0.00  0.00    +0.000 NA
ATOM     12  H   UNL     1       1.816   8.410  20.478  0.00  0.00    +0.000 HD
ENDBRANCH   1   3
BRANCH   2  13
ATOM     13  C   UNL     1       4.970   6.714  17.352  0.00  0.00    +0.000 A 
ATOM     14  C   UNL     1       5.687   6.271  18.477  0.00  0.00    +0.000 A 
ATOM     15  C   UNL     1       6.736   5.362  18.318  0.00  0.00    +0.000 A 
ATOM     16  C   UNL     1       7.085   4.873  17.061  0.00  0.00    +0.000 A 
ATOM     17  C   UNL     1       6.369   5.307  15.953  0.00  0.00    +0.000 A 
ATOM     18  C   UNL     1       5.316   6.230  16.081  0.00  0.00    +0.000 A 
BRANCH  17  19
ATOM     19  N   UNL     1       6.712   4.829  14.630  0.00  0.00    +0.000 N 
ATOM     20  O   UNL     1       5.895   4.100  14.053  0.00  0.00    +0.000 OA
ATOM     21  O   UNL     1       7.767   5.259  14.141  0.00  0.00    +0.000 OA
ENDBRANCH  17  19
BRANCH  15  22
ATOM     22  O   UNL     1       7.480   4.927  19.383  0.00  0.00    +0.000 OA
ATOM     23  H   UNL     1       8.414   5.160  19.237  0.00  0.00    +0.000 HD
ENDBRANCH  15  22
BRANCH  16  24
ATOM     24  O   UNL     1       8.139   4.010  16.960  0.00  0.00    +0.000 OA
ATOM     25  H   UNL     1       8.879   4.434  17.439  0.00  0.00    +0.000 HD
ENDBRANCH  16  24
ENDBRANCH   2  13
BRANCH   1  27
ATOM     26  N   UNL     1       2.488   5.167  19.655  0.00  0.00    +0.000 NA
ATOM     27  C   UNL     1       2.631   6.247  19.021  0.00  0.00    +0.000 C 
ENDBRANCH   1  27
TORSDOF 6
ENDMDL
MODEL 3
REMARK VINA RESULT:      -7.3      1.719      1.850
REMARK  Name = 
REMARK  6 active torsions:
REMARK  status: ('A' for Active; 'I' for Inactive)
REMARK    1  A    between atoms: C_2  and  C_3
REMARK    2  A    between atoms: C_3  and  C_16
REMARK    3  A    between atoms: C_4  and  C_5
REMARK    4  A    between atoms: C_7  and  O_8
REMARK    5  A    between atoms: C_9  and  O_10
REMARK    6  A    between atoms: C_11  and  N_12
REMARK                            x       y       z     vdW  Elec       q    Type
REMARK                         _______ _______ _______ _____ _____    ______ ____
ROOT
ATOM      1  C   UNL     1       1.609   7.510  20.335  0.00  0.00    +0.000 C 
ATOM      2  C   UNL     1       1.385   6.297  20.886  0.00  0.00    +0.000 C 
ENDROOT
BRANCH   1   3
ATOM      3  C   UNL     1       1.131   8.760  21.000  0.00  0.00    +0.000 C 
ATOM      4  O   UNL     1       1.479   8.977  22.157  0.00  0.00    +0.000 OA
ATOM      5  N   UNL     1       0.285   9.548  20.236  0.00  0.00    +0.000 N 
ATOM      6  C   UNL     1      -0.238  10.783  20.652  0.00  0.00    +0.000 A 
ATOM      7  C   UNL     1      -1.223  11.362  19.877  0.00  0.00    +0.000 A 
ATOM      8  C   UNL     1      -1.724  12.564  20.329  0.00  0.00    +0.000 A 
ATOM      9  N   UNL     1      -1.285  13.178  21.437  0.00  0.00    +0.000 NA
ATOM     10  C   UNL     1      -0.314  12.540  22.103  0.00  0.00    +0.000 A 
ATOM     11  N   UNL     1       0.231  11.369  21.762  0.00  0.00    +0.000 NA
ATOM     12  H   UNL     1      -0.033   9.226  19.332  0.00  0.00    +0.000 HD
ENDBRANCH   1   3
BRANCH   2  13
ATOM     13  C   UNL     1       1.773   5.024  20.250  0.00  0.00    +0.000 A 
ATOM     14  C   UNL     1       0.810   4.203  19.640  0.00  0.00    +0.000 A 
ATOM     15  C   UNL     1       1.191   2.973  19.096  0.00  0.00    +0.000 A 
ATOM     16  C   UNL     1       2.516   2.543  19.137  0.00  0.00    +0.000 A 
ATOM     17  C   UNL     1       3.465   3.362  19.734  0.00  0.00    +0.000 A 
ATOM     18  C   UNL     1       3.109   4.598  20.300  0.00  0.00    +0.000 A 
BRANCH  17  19
ATOM     19  N   UNL     1       4.849   2.942  19.806  0.00  0.00    +0.000 N 
ATOM     20  O   UNL     1       5.094   1.868  20.371  0.00  0.00    +0.000 OA
ATOM     21  O   UNL     1       5.677   3.653  19.218  0.00  0.00    +0.000 OA
ENDBRANCH  17  19
BRANCH  15  22
ATOM     22  O   UNL     1       0.281   2.128  18.518  0.00  0.00    +0.000 OA
ATOM     23  H   UNL     1       0.751   1.502  17.938  0.00  0.00    +0.000 HD
ENDBRANCH  15  22
BRANCH  16  24
ATOM     24  O   UNL     1       2.827   1.319  18.618  0.00  0.00    +0.000 OA
ATOM     25  H   UNL     1       3.804   1.278  18.594  0.00  0.00    +0.000 HD
ENDBRANCH  16  24
ENDBRANCH   2  13
BRANCH   1  27
ATOM     26  N   UNL     1       2.908   7.662  17.881  0.00  0.00    +0.000 NA
ATOM     27  C   UNL     1       2.319   7.593  18.994  0.00  0.00    +0.000 C 
ENDBRANCH   1  27
TORSDOF 6
ENDMDL
MODEL 4
REMARK VINA RESULT:      -7.2      1.983      2.362
REMARK  Name = 
REMARK  6 active torsions:
REMARK  status: ('A' for Active; 'I' for Inactive)
REMARK    1  A    between atoms: C_2  and  C_3
REMARK    2  A    between atoms: C_3  and  C_16
REMARK    3  A    between atoms: C_4  and  C_5
REMARK    4  A    between atoms: C_7  and  O_8
REMARK    5  A    between atoms: C_9  and  O_10
REMARK    6  A    between atoms: C_11  and  N_12
REMARK                            x       y       z     vdW  Elec       q    Type
REMARK                         _______ _______ _______ _____ _____    ______ ____
ROOT
ATOM      1  C   UNL     1       2.110   7.727  19.144  0.00  0.00    +0.000 C 
ATOM      2  C   UNL     1       2.787   7.708  17.976  0.00  0.00    +0.000 C 
ENDROOT
BRANCH   1   3
ATOM      3  C   UNL     1       1.352   8.941  19.578  0.00  0.00    +0.000 C 
ATOM      4  O   UNL     1       1.350   9.923  18.841  0.00  0.00    +0.000 OA
ATOM      5  N   UNL     1       0.747   8.846  20.820  0.00  0.00    +0.000 N 
ATOM      6  C   UNL     1      -0.050   9.851  21.392  0.00  0.00    +0.000 A 
ATOM      7  C   UNL     1      -0.422   9.707  22.715  0.00  0.00    +0.000 A 
ATOM      8  C   UNL     1      -1.186  10.723  23.245  0.00  0.00    +0.000 A 
ATOM      9  N   UNL     1      -1.589  11.791  22.539  0.00  0.00    +0.000 NA
ATOM     10  C   UNL     1      -1.189  11.822  21.261  0.00  0.00    +0.000 A 
ATOM     11  N   UNL     1      -0.436  10.900  20.654  0.00  0.00    +0.000 NA
ATOM     12  H   UNL     1       0.901   8.032  21.401  0.00  0.00    +0.000 HD
ENDBRANCH   1   3
BRANCH   2  13
ATOM     13  C   UNL     1       3.605   6.568  17.522  0.00  0.00    +0.000 A 
ATOM     14  C   UNL     1       3.119   5.252  17.617  0.00  0.00    +0.000 A 
ATOM     15  C   UNL     1       3.935   4.182  17.237  0.00  0.00    +0.000 A 
ATOM     16  C   UNL     1       5.225   4.392  16.753  0.00  0.00    +0.000 A 
ATOM     17  C   UNL     1       5.697   5.694  16.653  0.00  0.00    +0.000 A 
ATOM     18  C   UNL     1       4.904   6.789  17.040  0.00  0.00    +0.000 A 
BRANCH  17  19
ATOM     19  N   UNL     1       7.036   5.948  16.167  0.00  0.00    +0.000 N 
ATOM     20  O   UNL     1       7.735   6.750  16.801  0.00  0.00    +0.000 OA
ATOM     21  O   UNL     1       7.412   5.275  15.196  0.00  0.00    +0.000 OA
ENDBRANCH  17  19
BRANCH  15  22
ATOM     22  O   UNL     1       3.513   2.883  17.339  0.00  0.00    +0.000 OA
ATOM     23  H   UNL     1       3.161   2.593  16.479  0.00  0.00    +0.000 HD
ENDBRANCH  15  22
BRANCH  16  24
ATOM     24  O   UNL     1       5.988   3.309  16.425  0.00  0.00    +0.000 OA
ATOM     25  H   UNL     1       6.207   2.869  17.271  0.00  0.00    +0.000 HD
ENDBRANCH  16  24
ENDBRANCH   2  13
BRANCH   1  27
ATOM     26  N   UNL     1       2.210   5.497  20.803  0.00  0.00    +0.000 NA
ATOM     27  C   UNL     1       2.165   6.508  20.051  0.00  0.00    +0.000 C 
ENDBRANCH   1  27
TORSDOF 6
ENDMDL
MODEL 5
REMARK VINA RESULT:      -7.1      1.685      2.037
REMARK  Name = 
REMARK  6 active torsions:
REMARK  status: ('A' for Active; 'I' for Inactive)
REMARK    1  A    between atoms: C_2  and  C_3
REMARK    2  A    between atoms: C_3  and  C_16
REMARK    3  A    between atoms: C_4  and  C_5
REMARK    4  A    between atoms: C_7  and  O_8
REMARK    5  A    between atoms: C_9  and  O_10
REMARK    6  A    between atoms: C_11  and  N_12
REMARK                            x       y       z     vdW  Elec       q    Type
REMARK                         _______ _______ _______ _____ _____    ______ ____
ROOT
ATOM      1  C   UNL     1       2.168   7.161  19.817  0.00  0.00    +0.000 C 
ATOM      2  C   UNL     1       2.801   7.290  18.631  0.00  0.00    +0.000 C 
ENDROOT
BRANCH   1   3
ATOM      3  C   UNL     1       1.497   8.330  20.464  0.00  0.00    +0.000 C 
ATOM      4  O   UNL     1       1.366   8.326  21.685  0.00  0.00    +0.000 OA
ATOM      5  N   UNL     1       1.040   9.305  19.593  0.00  0.00    +0.000 N 
ATOM      6  C   UNL     1       0.426  10.502  19.996  0.00  0.00    +0.000 A 
ATOM      7  C   UNL     1      -0.160  11.288  19.022  0.00  0.00    +0.000 A 
ATOM      8  C   UNL     1      -0.769  12.444  19.459  0.00  0.00    +0.000 A 
ATOM      9  N   UNL     1      -0.786  12.830  20.744  0.00  0.00    +0.000 NA
ATOM     10  C   UNL     1      -0.172  12.006  21.602  0.00  0.00    +0.000 A 
ATOM     11  N   UNL     1       0.433  10.857  21.288  0.00  0.00    +0.000 NA
ATOM     12  H   UNL     1       1.097   9.163  18.593  0.00  0.00    +0.000 HD
ENDBRANCH   1   3
BRANCH   2  13
ATOM     13  C   UNL     1       3.536   6.194  17.972  0.00  0.00    +0.000 A 
ATOM     14  C   UNL     1       2.895   4.981  17.667  0.00  0.00    +0.000 A 
ATOM     15  C   UNL     1       3.625   3.934  17.097  0.00  0.00    +0.000 A 
ATOM     16  C   UNL     1       4.983   4.070  16.813  0.00  0.00    +0.000 A 
ATOM     17  C   UNL     1       5.610   5.273  17.109  0.00  0.00    +0.000 A 
ATOM     18  C   UNL     1       4.903   6.338  17.694  0.00  0.00    +0.000 A 
BRANCH  17  19
ATOM     19  N   UNL     1       7.021   5.444  16.839  0.00  0.00    +0.000 N 
ATOM     20  O   UNL     1       7.805   4.624  17.336  0.00  0.00    +0.000 OA
ATOM     21  O   UNL     1       7.331   6.356  16.058  0.00  0.00    +0.000 OA
ENDBRANCH  17  19
BRANCH  15  22
ATOM     22  O   UNL     1       3.048   2.726  16.810  0.00  0.00    +0.000 OA
ATOM     23  H   UNL     1       3.063   2.586  15.846  0.00  0.00    +0.000 HD
ENDBRANCH  15  22
BRANCH  16  24
ATOM     24  O   UNL     1       5.654   3.004  16.284  0.00  0.00    +0.000 OA
ATOM     25  H   UNL     1       5.888   2.433  17.043  0.00  0.00    +0.000 HD
ENDBRANCH  16  24
ENDBRANCH   2  13
BRANCH   1  27
ATOM     26  N   UNL     1       2.196   4.697  21.106  0.00  0.00    +0.000 NA
ATOM     27  C   UNL     1       2.183   5.815  20.521  0.00  0.00    +0.000 C 
ENDBRANCH   1  27
TORSDOF 6
ENDMDL
MODEL 6
REMARK VINA RESULT:      -6.9      3.613      8.549
REMARK  Name = 
REMARK  6 active torsions:
REMARK  status: ('A' for Active; 'I' for Inactive)
REMARK    1  A    between atoms: C_2  and  C_3
REMARK    2  A    between atoms: C_3  and  C_16
REMARK    3  A    between atoms: C_4  and  C_5
REMARK    4  A    between atoms: C_7  and  O_8
REMARK    5  A    between atoms: C_9  and  O_10
REMARK    6  A    between atoms: C_11  and  N_12
REMARK                            x       y       z     vdW  Elec       q    Type
REMARK                         _______ _______ _______ _____ _____    ______ ____
ROOT
ATOM      1  C   UNL     1       1.773   8.341  19.466  0.00  0.00    +0.000 C 
ATOM      2  C   UNL     1       1.572   9.144  18.399  0.00  0.00    +0.000 C 
ENDROOT
BRANCH   1   3
ATOM      3  C   UNL     1       2.427   7.005  19.316  0.00  0.00    +0.000 C 
ATOM      4  O   UNL     1       3.123   6.804  18.325  0.00  0.00    +0.000 OA
ATOM      5  N   UNL     1       2.138   6.091  20.315  0.00  0.00    +0.000 N 
ATOM      6  C   UNL     1       2.684   4.799  20.389  0.00  0.00    +0.000 A 
ATOM      7  C   UNL     1       2.157   3.926  21.321  0.00  0.00    +0.000 A 
ATOM      8  C   UNL     1       2.706   2.663  21.349  0.00  0.00    +0.000 A 
ATOM      9  N   UNL     1       3.714   2.277  20.553  0.00  0.00    +0.000 NA
ATOM     10  C   UNL     1       4.163   3.207  19.700  0.00  0.00    +0.000 A 
ATOM     11  N   UNL     1       3.694   4.452  19.580  0.00  0.00    +0.000 NA
ATOM     12  H   UNL     1       1.461   6.317  21.033  0.00  0.00    +0.000 HD
ENDBRANCH   1   3
BRANCH   2  13
ATOM     13  C   UNL     1       0.877  10.443  18.471  0.00  0.00    +0.000 A 
ATOM     14  C   UNL     1       1.596  11.632  18.686  0.00  0.00    +0.000 A 
ATOM     15  C   UNL     1       0.911  12.844  18.810  0.00  0.00    +0.000 A 
ATOM     16  C   UNL     1      -0.478  12.904  18.715  0.00  0.00    +0.000 A 
ATOM     17  C   UNL     1      -1.183  11.728  18.494  0.00  0.00    +0.000 A 
ATOM     18  C   UNL     1      -0.522  10.492  18.378  0.00  0.00    +0.000 A 
BRANCH  17  19
ATOM     19  N   UNL     1      -2.627  11.750  18.403  0.00  0.00    +0.000 N 
ATOM     20  O   UNL     1      -3.259  12.145  19.392  0.00  0.00    +0.000 OA
ATOM     21  O   UNL     1      -3.120  11.449  17.306  0.00  0.00    +0.000 OA
ENDBRANCH  17  19
BRANCH  15  22
ATOM     22  O   UNL     1       1.568  14.022  19.048  0.00  0.00    +0.000 OA
ATOM     23  H   UNL     1       2.326  13.851  19.636  0.00  0.00    +0.000 HD
ENDBRANCH  15  22
BRANCH  16  24
ATOM     24  O   UNL     1      -1.097  14.110  18.874  0.00  0.00    +0.000 OA
ATOM     25  H   UNL     1      -1.993  14.003  18.497  0.00  0.00    +0.000 HD
ENDBRANCH  16  24
ENDBRANCH   2  13
BRANCH   1  27
ATOM     26  N   UNL     1       0.870   9.162  21.966  0.00  0.00    +0.000 NA
ATOM     27  C   UNL     1       1.280   8.790  20.832  0.00  0.00    +0.000 C 
ENDBRANCH   1  27
TORSDOF 6
ENDMDL
MODEL 7
REMARK VINA RESULT:      -6.9      1.959      2.981
REMARK  Name = 
REMARK  6 active torsions:
REMARK  status: ('A' for Active; 'I' for Inactive)
REMARK    1  A    between atoms: C_2  and  C_3
REMARK    2  A    between atoms: C_3  and  C_16
REMARK    3  A    between atoms: C_4  and  C_5
REMARK    4  A    between atoms: C_7  and  O_8
REMARK    5  A    between atoms: C_9  and  O_10
REMARK    6  A    between atoms: C_11  and  N_12
REMARK                            x       y       z     vdW  Elec       q    Type
REMARK                         _______ _______ _______ _____ _____    ______ ____
ROOT
ATOM      1  C   UNL     1       2.063   7.828  19.174  0.00  0.00    +0.000 C 
ATOM      2  C   UNL     1       2.777   7.784  18.028  0.00  0.00    +0.000 C 
ENDROOT
BRANCH   1   3
ATOM      3  C   UNL     1       1.316   9.061  19.572  0.00  0.00    +0.000 C 
ATOM      4  O   UNL     1       1.343  10.029  18.818  0.00  0.00    +0.000 OA
ATOM      5  N   UNL     1       0.687   8.997  20.805  0.00  0.00    +0.000 N 
ATOM      6  C   UNL     1      -0.104  10.025  21.344  0.00  0.00    +0.000 A 
ATOM      7  C   UNL     1      -0.502   9.910  22.662  0.00  0.00    +0.000 A 
ATOM      8  C   UNL     1      -1.259  10.948  23.160  0.00  0.00    +0.000 A 
ATOM      9  N   UNL     1      -1.632  12.009  22.428  0.00  0.00    +0.000 NA
ATOM     10  C   UNL     1      -1.209  12.010  21.158  0.00  0.00    +0.000 A 
ATOM     11  N   UNL     1      -0.460  11.066  20.581  0.00  0.00    +0.000 NA
ATOM     12  H   UNL     1       0.818   8.192  21.402  0.00  0.00    +0.000 HD
ENDBRANCH   1   3
BRANCH   2  13
ATOM     13  C   UNL     1       3.586   6.623  17.611  0.00  0.00    +0.000 A 
ATOM     14  C   UNL     1       4.846   6.803  17.015  0.00  0.00    +0.000 A 
ATOM     15  C   UNL     1       5.569   5.692  16.573  0.00  0.00    +0.000 A 
ATOM     16  C   UNL     1       5.070   4.399  16.719  0.00  0.00    +0.000 A 
ATOM     17  C   UNL     1       3.829   4.226  17.317  0.00  0.00    +0.000 A 
ATOM     18  C   UNL     1       3.073   5.326  17.760  0.00  0.00    +0.000 A 
BRANCH  17  19
ATOM     19  N   UNL     1       3.274   2.898  17.474  0.00  0.00    +0.000 N 
ATOM     20  O   UNL     1       2.133   2.698  17.038  0.00  0.00    +0.000 OA
ATOM     21  O   UNL     1       4.022   2.037  17.960  0.00  0.00    +0.000 OA
ENDBRANCH  17  19
BRANCH  15  22
ATOM     22  O   UNL     1       6.787   5.823  15.961  0.00  0.00    +0.000 OA
ATOM     23  H   UNL     1       7.409   5.180  16.346  0.00  0.00    +0.000 HD
ENDBRANCH  15  22
BRANCH  16  24
ATOM     24  O   UNL     1       5.806   3.352  16.242  0.00  0.00    +0.000 OA
ATOM     25  H   UNL     1       5.532   3.235  15.310  0.00  0.00    +0.000 HD
ENDBRANCH  16  24
ENDBRANCH   2  13
BRANCH   1  27
ATOM     26  N   UNL     1       2.062   5.612  20.854  0.00  0.00    +0.000 NA
ATOM     27  C   UNL     1       2.063   6.617  20.092  0.00  0.00    +0.000 C 
ENDBRANCH   1  27
TORSDOF 6
ENDMDL
MODEL 8
REMARK VINA RESULT:      -6.9      2.503      2.944
REMARK  Name = 
REMARK  6 active torsions:
REMARK  status: ('A' for Active; 'I' for Inactive)
REMARK    1  A    between atoms: C_2  and  C_3
REMARK    2  A    between atoms: C_3  and  C_16
REMARK    3  A    between atoms: C_4  and  C_5
REMARK    4  A    between atoms: C_7  and  O_8
REMARK    5  A    between atoms: C_9  and  O_10
REMARK    6  A    between atoms: C_11  and  N_12
REMARK                            x       y       z     vdW  Elec       q    Type
REMARK                         _______ _______ _______ _____ _____    ______ ____
ROOT
ATOM      1  C   UNL     1       2.533   7.435  18.283  0.00  0.00    +0.000 C 
ATOM      2  C   UNL     1       1.859   6.409  18.847  0.00  0.00    +0.000 C 
ENDROOT
BRANCH   1   3
ATOM      3  C   UNL     1       1.997   8.830  18.332  0.00  0.00    +0.000 C 
ATOM      4  O   UNL     1       2.237   9.582  17.392  0.00  0.00    +0.000 OA
ATOM      5  N   UNL     1       1.302   9.155  19.485  0.00  0.00    +0.000 N 
ATOM      6  C   UNL     1       0.679  10.393  19.712  0.00  0.00    +0.000 A 
ATOM      7  C   UNL     1       0.196  10.652  20.980  0.00  0.00    +0.000 A 
ATOM      8  C   UNL     1      -0.390  11.884  21.168  0.00  0.00    +0.000 A 
ATOM      9  N   UNL     1      -0.528  12.794  20.191  0.00  0.00    +0.000 NA
ATOM     10  C   UNL     1      -0.044  12.434  18.996  0.00  0.00    +0.000 A 
ATOM     11  N   UNL     1       0.555  11.274  18.710  0.00  0.00    +0.000 NA
ATOM     12  H   UNL     1       1.254   8.499  20.254  0.00  0.00    +0.000 HD
ENDBRANCH   1   3
BRANCH   2  13
ATOM     13  C   UNL     1       2.300   5.004  18.778  0.00  0.00    +0.000 A 
ATOM     14  C   UNL     1       2.144   4.259  17.596  0.00  0.00    +0.000 A 
ATOM     15  C   UNL     1       2.514   2.912  17.571  0.00  0.00    +0.000 A 
ATOM     16  C   UNL     1       3.047   2.286  18.697  0.00  0.00    +0.000 A 
ATOM     17  C   UNL     1       3.206   3.028  19.860  0.00  0.00    +0.000 A 
ATOM     18  C   UNL     1       2.831   4.382  19.918  0.00  0.00    +0.000 A 
BRANCH  17  19
ATOM     19  N   UNL     1       3.744   2.408  21.052  0.00  0.00    +0.000 N 
ATOM     20  O   UNL     1       2.995   2.301  22.032  0.00  0.00    +0.000 OA
ATOM     21  O   UNL     1       4.894   1.953  20.971  0.00  0.00    +0.000 OA
ENDBRANCH  17  19
BRANCH  15  22
ATOM     22  O   UNL     1       2.353   2.141  16.450  0.00  0.00    +0.000 OA
ATOM     23  H   UNL     1       2.802   1.287  16.583  0.00  0.00    +0.000 HD
ENDBRANCH  15  22
BRANCH  16  24
ATOM     24  O   UNL     1       3.362   0.959  18.625  0.00  0.00    +0.000 OA
ATOM     25  H   UNL     1       4.333   0.920  18.513  0.00  0.00    +0.000 HD
ENDBRANCH  16  24
ENDBRANCH   2  13
BRANCH   1  27
ATOM     26  N   UNL     1       4.909   6.915  16.936  0.00  0.00    +0.000 NA
ATOM     27  C   UNL     1       3.832   7.151  17.547  0.00  0.00    +0.000 C 
ENDBRANCH   1  27
TORSDOF 6
ENDMDL
MODEL 9
REMARK VINA RESULT:      -6.9      3.780      8.239
REMARK  Name = 
REMARK  6 active torsions:
REMARK  status: ('A' for Active; 'I' for Inactive)
REMARK    1  A    between atoms: C_2  and  C_3
REMARK    2  A    between atoms: C_3  and  C_16
REMARK    3  A    between atoms: C_4  and  C_5
REMARK    4  A    between atoms: C_7  and  O_8
REMARK    5  A    between atoms: C_9  and  O_10
REMARK    6  A    between atoms: C_11  and  N_12
REMARK                            x       y       z     vdW  Elec       q    Type
REMARK                         _______ _______ _______ _____ _____    ______ ____
ROOT
ATOM      1  C   UNL     1       1.732   8.453  19.487  0.00  0.00    +0.000 C 
ATOM      2  C   UNL     1       1.598   9.304  18.448  0.00  0.00    +0.000 C 
ENDROOT
BRANCH   1   3
ATOM      3  C   UNL     1       2.342   7.100  19.305  0.00  0.00    +0.000 C 
ATOM      4  O   UNL     1       2.964   6.875  18.271  0.00  0.00    +0.000 OA
ATOM      5  N   UNL     1       2.102   6.201  20.330  0.00  0.00    +0.000 N 
ATOM      6  C   UNL     1       2.621   4.897  20.379  0.00  0.00    +0.000 A 
ATOM      7  C   UNL     1       2.139   4.044  21.353  0.00  0.00    +0.000 A 
ATOM      8  C   UNL     1       2.659   2.769  21.355  0.00  0.00    +0.000 A 
ATOM      9  N   UNL     1       3.601   2.352  20.495  0.00  0.00    +0.000 NA
ATOM     10  C   UNL     1       4.013   3.265  19.605  0.00  0.00    +0.000 A 
ATOM     11  N   UNL     1       3.565   4.520  19.506  0.00  0.00    +0.000 NA
ATOM     12  H   UNL     1       1.481   6.448  21.090  0.00  0.00    +0.000 HD
ENDBRANCH   1   3
BRANCH   2  13
ATOM     13  C   UNL     1       0.947  10.624  18.548  0.00  0.00    +0.000 A 
ATOM     14  C   UNL     1      -0.450  10.744  18.458  0.00  0.00    +0.000 A 
ATOM     15  C   UNL     1      -1.041  12.010  18.496  0.00  0.00    +0.000 A 
ATOM     16  C   UNL     1      -0.272  13.165  18.632  0.00  0.00    +0.000 A 
ATOM     17  C   UNL     1       1.107  13.040  18.728  0.00  0.00    +0.000 A 
ATOM     18  C   UNL     1       1.731  11.780  18.681  0.00  0.00    +0.000 A 
BRANCH  17  19
ATOM     19  N   UNL     1       1.939  14.218  18.856  0.00  0.00    +0.000 N 
ATOM     20  O   UNL     1       1.736  14.961  19.826  0.00  0.00    +0.000 OA
ATOM     21  O   UNL     1       2.851  14.347  18.026  0.00  0.00    +0.000 OA
ENDBRANCH  17  19
BRANCH  15  22
ATOM     22  O   UNL     1      -2.396  12.176  18.383  0.00  0.00    +0.000 OA
ATOM     23  H   UNL     1      -2.589  12.686  17.576  0.00  0.00    +0.000 HD
ENDBRANCH  15  22
BRANCH  16  24
ATOM     24  O   UNL     1      -0.900  14.377  18.632  0.00  0.00    +0.000 OA
ATOM     25  H   UNL     1      -0.221  15.030  18.369  0.00  0.00    +0.000 HD
ENDBRANCH  16  24
ENDBRANCH   2  13
BRANCH   1  27
ATOM     26  N   UNL     1       0.770   9.206  21.985  0.00  0.00    +0.000 NA
ATOM     27  C   UNL     1       1.206   8.865  20.853  0.00  0.00    +0.000 C 
ENDBRANCH   1  27
TORSDOF 6
ENDMDL
