MODEL 1
REMARK VINA RESULT:      -6.1      0.000      0.000
REMARK  Name = 
REMARK  15 active torsions:
REMARK  status: ('A' for Active; 'I' for Inactive)
REMARK    1  A    between atoms: C_1  and  N_2
REMARK    2  A    between atoms: N_2  and  C_3
REMARK    3  A    between atoms: N_2  and  C_4
REMARK    4  A    between atoms: C_4  and  C_5
REMARK    5  A    between atoms: C_5  and  C_6
REMARK    6  A    between atoms: C_6  and  N_7
REMARK    7  A    between atoms: N_7  and  C_8
REMARK    8  A    between atoms: C_17  and  N_18
REMARK    9  A    between atoms: N_18  and  C_19
REMARK   10  A    between atoms: N_18  and  C_22
REMARK   11  A    between atoms: C_19  and  C_20
REMARK   12  A    between atoms: C_20  and  O_21
REMARK   13  A    between atoms: C_22  and  C_23
REMARK   14  A    between atoms: C_23  and  O_24
REMARK   15  A    between atoms: C_27  and  N_28
REMARK                            x       y       z     vdW  Elec       q    Type
REMARK                         _______ _______ _______ _____ _____    ______ ____
ROOT
ATOM      1  C   UNL     1      -1.170  10.716  19.189  0.00  0.00    +0.000 A 
ATOM      2  C   UNL     1      -2.062  10.663  18.054  0.00  0.00    +0.000 A 
ATOM      3  C   UNL     1      -1.880   9.902  16.854  0.00  0.00    +0.000 A 
ATOM      4  C   UNL     1      -2.785   9.951  15.787  0.00  0.00    +0.000 A 
ATOM      5  C   UNL     1      -3.903  10.758  15.890  0.00  0.00    +0.000 A 
ATOM      6  C   UNL     1      -4.106  11.485  17.063  0.00  0.00    +0.000 A 
ATOM      7  C   UNL     1      -3.219  11.442  18.138  0.00  0.00    +0.000 A 
ATOM      8  N   UNL     1      -3.532  12.154  19.226  0.00  0.00    +0.000 NA
ATOM      9  C   UNL     1      -2.719  12.266  20.297  0.00  0.00    +0.000 A 
ATOM     10  C   UNL     1      -3.145  13.072  21.407  0.00  0.00    +0.000 A 
ATOM     11  C   UNL     1      -2.283  13.220  22.510  0.00  0.00    +0.000 A 
ATOM     12  C   UNL     1      -1.002  12.729  22.498  0.00  0.00    +0.000 A 
ATOM     13  C   UNL     1      -0.585  11.969  21.411  0.00  0.00    +0.000 A 
ATOM     14  C   UNL     1      -1.441  11.619  20.303  0.00  0.00    +0.000 A 
ENDROOT
BRANCH  13  15
ATOM     15  N   UNL     1       0.841  11.654  21.479  0.00  0.00    +0.000 N 
ATOM     16  O   UNL     1       1.623  12.519  21.045  0.00  0.00    +0.000 OA
ATOM     17  O   UNL     1       1.169  10.523  21.859  0.00  0.00    +0.000 OA
ENDBRANCH  13  15
BRANCH   1  18
ATOM     18  N   UNL     1      -0.051   9.858  19.171  0.00  0.00    +0.000 N 
ATOM     19  H   UNL     1       0.188   9.427  20.061  0.00  0.00    +0.000 HD
BRANCH  18  20
ATOM     20  C   UNL     1       1.141  10.108  18.368  0.00  0.00    +0.000 C 
BRANCH  20  21
ATOM     21  C   UNL     1       1.828   8.875  17.824  0.00  0.00    +0.000 C 
BRANCH  21  22
ATOM     22  C   UNL     1       2.231   7.859  18.879  0.00  0.00    +0.000 C 
BRANCH  22  24
ATOM     23  C   UNL     1       4.020   6.966  17.473  0.00  0.00    +0.000 C 
ATOM     24  N   UNL     1       2.877   6.656  18.334  0.00  0.00    +0.000 NA
ATOM     25  C   UNL     1       3.287   5.782  19.431  0.00  0.00    +0.000 C 
ENDBRANCH  22  24
ENDBRANCH  21  22
ENDBRANCH  20  21
ENDBRANCH  18  20
ENDBRANCH   1  18
BRANCH  10  26
ATOM     26  N   UNL     1      -4.388  13.749  21.537  0.00  0.00    +0.000 N 
BRANCH  26  27
ATOM     27  C   UNL     1      -4.526  15.223  21.500  0.00  0.00    +0.000 C 
BRANCH  27  28
ATOM     28  C   UNL     1      -5.357  15.724  20.317  0.00  0.00    +0.000 C 
BRANCH  28  29
ATOM     29  O   UNL     1      -5.425  14.749  19.272  0.00  0.00    +0.000 OA
ATOM     30  H   UNL     1      -5.322  13.889  19.713  0.00  0.00    +0.000 HD
ENDBRANCH  28  29
ENDBRANCH  27  28
ENDBRANCH  26  27
BRANCH  26  31
ATOM     31  C   UNL     1      -5.384  13.087  22.432  0.00  0.00    +0.000 C 
BRANCH  31  32
ATOM     32  C   UNL     1      -5.766  14.013  23.600  0.00  0.00    +0.000 C 
BRANCH  32  33
ATOM     33  O   UNL     1      -6.403  13.284  24.648  0.00  0.00    +0.000 OA
ATOM     34  H   UNL     1      -5.813  13.406  25.416  0.00  0.00    +0.000 HD
ENDBRANCH  32  33
ENDBRANCH  31  32
ENDBRANCH  26  31
ENDBRANCH  10  26
TORSDOF 13
ENDMDL
MODEL 2
REMARK VINA RESULT:      -6.1      1.020      1.505
REMARK  Name = 
REMARK  15 active torsions:
REMARK  status: ('A' for Active; 'I' for Inactive)
REMARK    1  A    between atoms: C_1  and  N_2
REMARK    2  A    between atoms: N_2  and  C_3
REMARK    3  A    between atoms: N_2  and  C_4
REMARK    4  A    between atoms: C_4  and  C_5
REMARK    5  A    between atoms: C_5  and  C_6
REMARK    6  A    between atoms: C_6  and  N_7
REMARK    7  A    between atoms: N_7  and  C_8
REMARK    8  A    between atoms: C_17  and  N_18
REMARK    9  A    between atoms: N_18  and  C_19
REMARK   10  A    between atoms: N_18  and  C_22
REMARK   11  A    between atoms: C_19  and  C_20
REMARK   12  A    between atoms: C_20  and  O_21
REMARK   13  A    between atoms: C_22  and  C_23
REMARK   14  A    between atoms: C_23  and  O_24
REMARK   15  A    between atoms: C_27  and  N_28
REMARK                            x       y       z     vdW  Elec       q    Type
REMARK                         _______ _______ _______ _____ _____    ______ ____
ROOT
ATOM      1  C   UNL     1      -1.224  10.749  19.316  0.00  0.00    +0.000 A 
ATOM      2  C   UNL     1      -2.141  10.734  18.200  0.00  0.00    +0.000 A 
ATOM      3  C   UNL     1      -1.993  10.003  16.977  0.00  0.00    +0.000 A 
ATOM      4  C   UNL     1      -2.920  10.088  15.932  0.00  0.00    +0.000 A 
ATOM      5  C   UNL     1      -4.027  10.902  16.080  0.00  0.00    +0.000 A 
ATOM      6  C   UNL     1      -4.198  11.601  17.275  0.00  0.00    +0.000 A 
ATOM      7  C   UNL     1      -3.288  11.521  18.329  0.00  0.00    +0.000 A 
ATOM      8  N   UNL     1      -3.571  12.208  19.442  0.00  0.00    +0.000 NA
ATOM      9  C   UNL     1      -2.734  12.285  20.497  0.00  0.00    +0.000 A 
ATOM     10  C   UNL     1      -3.128  13.066  21.637  0.00  0.00    +0.000 A 
ATOM     11  C   UNL     1      -2.241  13.177  22.724  0.00  0.00    +0.000 A 
ATOM     12  C   UNL     1      -0.965  12.674  22.672  0.00  0.00    +0.000 A 
ATOM     13  C   UNL     1      -0.579  11.939  21.556  0.00  0.00    +0.000 A 
ATOM     14  C   UNL     1      -1.462  11.626  20.458  0.00  0.00    +0.000 A 
ENDROOT
BRANCH  13  15
ATOM     15  N   UNL     1       0.845  11.609  21.585  0.00  0.00    +0.000 N 
ATOM     16  O   UNL     1       1.623  12.459  21.115  0.00  0.00    +0.000 OA
ATOM     17  O   UNL     1       1.172  10.479  21.970  0.00  0.00    +0.000 OA
ENDBRANCH  13  15
BRANCH   1  18
ATOM     18  N   UNL     1      -0.115   9.881  19.252  0.00  0.00    +0.000 N 
ATOM     19  H   UNL     1       0.126   9.409  20.120  0.00  0.00    +0.000 HD
BRANCH  18  20
ATOM     20  C   UNL     1       1.074  10.155  18.452  0.00  0.00    +0.000 C 
BRANCH  20  21
ATOM     21  C   UNL     1       1.678   8.956  17.755  0.00  0.00    +0.000 C 
BRANCH  21  22
ATOM     22  C   UNL     1       2.337   7.951  18.685  0.00  0.00    +0.000 C 
BRANCH  22  24
ATOM     23  C   UNL     1       4.098   6.623  17.631  0.00  0.00    +0.000 C 
ATOM     24  N   UNL     1       2.692   6.680  18.037  0.00  0.00    +0.000 NA
ATOM     25  C   UNL     1       2.373   5.569  18.931  0.00  0.00    +0.000 C 
ENDBRANCH  22  24
ENDBRANCH  21  22
ENDBRANCH  20  21
ENDBRANCH  18  20
ENDBRANCH   1  18
BRANCH  10  26
ATOM     26  N   UNL     1      -4.361  13.751  21.811  0.00  0.00    +0.000 N 
BRANCH  26  27
ATOM     27  C   UNL     1      -4.457  15.176  22.203  0.00  0.00    +0.000 C 
BRANCH  27  28
ATOM     28  C   UNL     1      -5.360  15.409  23.416  0.00  0.00    +0.000 C 
BRANCH  28  29
ATOM     29  O   UNL     1      -4.600  15.555  24.619  0.00  0.00    +0.000 OA
ATOM     30  H   UNL     1      -5.255  15.595  25.336  0.00  0.00    +0.000 HD
ENDBRANCH  28  29
ENDBRANCH  27  28
ENDBRANCH  26  27
BRANCH  26  31
ATOM     31  C   UNL     1      -5.484  12.918  22.337  0.00  0.00    +0.000 C 
BRANCH  31  32
ATOM     32  C   UNL     1      -6.517  12.638  21.232  0.00  0.00    +0.000 C 
BRANCH  32  33
ATOM     33  O   UNL     1      -6.312  11.352  20.649  0.00  0.00    +0.000 OA
ATOM     34  H   UNL     1      -7.214  11.022  20.477  0.00  0.00    +0.000 HD
ENDBRANCH  32  33
ENDBRANCH  31  32
ENDBRANCH  26  31
ENDBRANCH  10  26
TORSDOF 13
ENDMDL
MODEL 3
REMARK VINA RESULT:      -5.9      1.040      1.274
REMARK  Name = 
REMARK  15 active torsions:
REMARK  status: ('A' for Active; 'I' for Inactive)
REMARK    1  A    between atoms: C_1  and  N_2
REMARK    2  A    between atoms: N_2  and  C_3
REMARK    3  A    between atoms: N_2  and  C_4
REMARK    4  A    between atoms: C_4  and  C_5
REMARK    5  A    between atoms: C_5  and  C_6
REMARK    6  A    between atoms: C_6  and  N_7
REMARK    7  A    between atoms: N_7  and  C_8
REMARK    8  A    between atoms: C_17  and  N_18
REMARK    9  A    between atoms: N_18  and  C_19
REMARK   10  A    between atoms: N_18  and  C_22
REMARK   11  A    between atoms: C_19  and  C_20
REMARK   12  A    between atoms: C_20  and  O_21
REMARK   13  A    between atoms: C_22  and  C_23
REMARK   14  A    between atoms: C_23  and  O_24
REMARK   15  A    between atoms: C_27  and  N_28
REMARK                            x       y       z     vdW  Elec       q    Type
REMARK                         _______ _______ _______ _____ _____    ______ ____
ROOT
ATOM      1  C   UNL     1      -1.138  10.686  19.057  0.00  0.00    +0.000 A 
ATOM      2  C   UNL     1      -2.040  10.632  17.931  0.00  0.00    +0.000 A 
ATOM      3  C   UNL     1      -1.872   9.866  16.732  0.00  0.00    +0.000 A 
ATOM      4  C   UNL     1      -2.786   9.915  15.673  0.00  0.00    +0.000 A 
ATOM      5  C   UNL     1      -3.900  10.726  15.783  0.00  0.00    +0.000 A 
ATOM      6  C   UNL     1      -4.090  11.459  16.955  0.00  0.00    +0.000 A 
ATOM      7  C   UNL     1      -3.194  11.416  18.022  0.00  0.00    +0.000 A 
ATOM      8  N   UNL     1      -3.494  12.133  19.110  0.00  0.00    +0.000 NA
ATOM      9  C   UNL     1      -2.671  12.246  20.174  0.00  0.00    +0.000 A 
ATOM     10  C   UNL     1      -3.085  13.057  21.285  0.00  0.00    +0.000 A 
ATOM     11  C   UNL     1      -2.212  13.206  22.380  0.00  0.00    +0.000 A 
ATOM     12  C   UNL     1      -0.933  12.710  22.358  0.00  0.00    +0.000 A 
ATOM     13  C   UNL     1      -0.529  11.944  21.270  0.00  0.00    +0.000 A 
ATOM     14  C   UNL     1      -1.395  11.594  20.170  0.00  0.00    +0.000 A 
ENDROOT
BRANCH  13  15
ATOM     15  N   UNL     1       0.897  11.625  21.326  0.00  0.00    +0.000 N 
ATOM     16  O   UNL     1       1.200  10.506  21.778  0.00  0.00    +0.000 OA
ATOM     17  O   UNL     1       1.703  12.514  21.023  0.00  0.00    +0.000 OA
ENDBRANCH  13  15
BRANCH   1  18
ATOM     18  N   UNL     1      -0.022   9.823  19.033  0.00  0.00    +0.000 N 
ATOM     19  H   UNL     1       0.188   9.351  19.908  0.00  0.00    +0.000 HD
BRANCH  18  20
ATOM     20  C   UNL     1       1.194  10.104  18.277  0.00  0.00    +0.000 C 
BRANCH  20  21
ATOM     21  C   UNL     1       2.020   8.894  17.904  0.00  0.00    +0.000 C 
BRANCH  21  22
ATOM     22  C   UNL     1       2.153   7.855  19.005  0.00  0.00    +0.000 C 
BRANCH  22  24
ATOM     23  C   UNL     1       3.831   6.639  17.709  0.00  0.00    +0.000 C 
ATOM     24  N   UNL     1       2.627   6.544  18.537  0.00  0.00    +0.000 NA
ATOM     25  C   UNL     1       2.864   5.672  19.685  0.00  0.00    +0.000 C 
ENDBRANCH  22  24
ENDBRANCH  21  22
ENDBRANCH  20  21
ENDBRANCH  18  20
ENDBRANCH   1  18
BRANCH  10  26
ATOM     26  N   UNL     1      -4.324  13.739  21.424  0.00  0.00    +0.000 N 
BRANCH  26  27
ATOM     27  C   UNL     1      -4.438  15.209  21.565  0.00  0.00    +0.000 C 
BRANCH  27  28
ATOM     28  C   UNL     1      -5.852  15.674  21.919  0.00  0.00    +0.000 C 
BRANCH  28  29
ATOM     29  O   UNL     1      -6.666  15.824  20.752  0.00  0.00    +0.000 OA
ATOM     30  H   UNL     1      -7.325  15.111  20.803  0.00  0.00    +0.000 HD
ENDBRANCH  28  29
ENDBRANCH  27  28
ENDBRANCH  26  27
BRANCH  26  31
ATOM     31  C   UNL     1      -5.383  12.992  22.167  0.00  0.00    +0.000 C 
BRANCH  31  32
ATOM     32  C   UNL     1      -6.281  12.210  21.193  0.00  0.00    +0.000 C 
BRANCH  32  33
ATOM     33  O   UNL     1      -6.340  12.851  19.920  0.00  0.00    +0.000 OA
ATOM     34  H   UNL     1      -7.103  13.456  19.992  0.00  0.00    +0.000 HD
ENDBRANCH  32  33
ENDBRANCH  31  32
ENDBRANCH  26  31
ENDBRANCH  10  26
TORSDOF 13
ENDMDL
MODEL 4
REMARK VINA RESULT:      -5.8      1.217      2.299
REMARK  Name = 
REMARK  15 active torsions:
REMARK  status: ('A' for Active; 'I' for Inactive)
REMARK    1  A    between atoms: C_1  and  N_2
REMARK    2  A    between atoms: N_2  and  C_3
REMARK    3  A    between atoms: N_2  and  C_4
REMARK    4  A    between atoms: C_4  and  C_5
REMARK    5  A    between atoms: C_5  and  C_6
REMARK    6  A    between atoms: C_6  and  N_7
REMARK    7  A    between atoms: N_7  and  C_8
REMARK    8  A    between atoms: C_17  and  N_18
REMARK    9  A    between atoms: N_18  and  C_19
REMARK   10  A    between atoms: N_18  and  C_22
REMARK   11  A    between atoms: C_19  and  C_20
REMARK   12  A    between atoms: C_20  and  O_21
REMARK   13  A    between atoms: C_22  and  C_23
REMARK   14  A    between atoms: C_23  and  O_24
REMARK   15  A    between atoms: C_27  and  N_28
REMARK                            x       y       z     vdW  Elec       q    Type
REMARK                         _______ _______ _______ _____ _____    ______ ____
ROOT
ATOM      1  C   UNL     1      -0.642  11.633  18.879  0.00  0.00    +0.000 A 
ATOM      2  C   UNL     1      -1.829  11.243  18.154  0.00  0.00    +0.000 A 
ATOM      3  C   UNL     1      -1.888  10.426  16.979  0.00  0.00    +0.000 A 
ATOM      4  C   UNL     1      -3.089  10.138  16.321  0.00  0.00    +0.000 A 
ATOM      5  C   UNL     1      -4.269  10.655  16.820  0.00  0.00    +0.000 A 
ATOM      6  C   UNL     1      -4.231  11.433  17.978  0.00  0.00    +0.000 A 
ATOM      7  C   UNL     1      -3.044  11.721  18.651  0.00  0.00    +0.000 A 
ATOM      8  N   UNL     1      -3.130  12.448  19.770  0.00  0.00    +0.000 NA
ATOM      9  C   UNL     1      -2.053  12.869  20.465  0.00  0.00    +0.000 A 
ATOM     10  C   UNL     1      -2.257  13.660  21.646  0.00  0.00    +0.000 A 
ATOM     11  C   UNL     1      -1.134  14.131  22.352  0.00  0.00    +0.000 A 
ATOM     12  C   UNL     1       0.142  13.968  21.873  0.00  0.00    +0.000 A 
ATOM     13  C   UNL     1       0.334  13.220  20.716  0.00  0.00    +0.000 A 
ATOM     14  C   UNL     1      -0.732  12.557  20.005  0.00  0.00    +0.000 A 
ENDROOT
BRANCH  13  15
ATOM     15  N   UNL     1       1.721  13.272  20.256  0.00  0.00    +0.000 N 
ATOM     16  O   UNL     1       2.595  12.965  21.087  0.00  0.00    +0.000 OA
ATOM     17  O   UNL     1       1.939  13.713  19.121  0.00  0.00    +0.000 OA
ENDBRANCH  13  15
BRANCH   1  18
ATOM     18  N   UNL     1       0.583  11.076  18.459  0.00  0.00    +0.000 N 
ATOM     19  H   UNL     1       0.756  11.096  17.457  0.00  0.00    +0.000 HD
BRANCH  18  20
ATOM     20  C   UNL     1       1.184   9.898  19.076  0.00  0.00    +0.000 C 
BRANCH  20  21
ATOM     21  C   UNL     1       1.787   8.898  18.115  0.00  0.00    +0.000 C 
BRANCH  21  22
ATOM     22  C   UNL     1       2.367   7.659  18.776  0.00  0.00    +0.000 C 
BRANCH  22  24
ATOM     23  C   UNL     1       4.232   6.832  17.429  0.00  0.00    +0.000 C 
ATOM     24  N   UNL     1       2.836   6.638  17.827  0.00  0.00    +0.000 NA
ATOM     25  C   UNL     1       2.649   5.309  18.405  0.00  0.00    +0.000 C 
ENDBRANCH  22  24
ENDBRANCH  21  22
ENDBRANCH  20  21
ENDBRANCH  18  20
ENDBRANCH   1  18
BRANCH  10  26
ATOM     26  N   UNL     1      -3.506  14.024  22.219  0.00  0.00    +0.000 N 
BRANCH  26  27
ATOM     27  C   UNL     1      -4.453  13.048  22.806  0.00  0.00    +0.000 C 
BRANCH  27  28
ATOM     28  C   UNL     1      -3.984  12.486  24.150  0.00  0.00    +0.000 C 
BRANCH  28  29
ATOM     29  O   UNL     1      -5.040  11.805  24.834  0.00  0.00    +0.000 OA
ATOM     30  H   UNL     1      -4.658  11.521  25.682  0.00  0.00    +0.000 HD
ENDBRANCH  28  29
ENDBRANCH  27  28
ENDBRANCH  26  27
BRANCH  26  31
ATOM     31  C   UNL     1      -4.185  15.191  21.578  0.00  0.00    +0.000 C 
BRANCH  31  32
ATOM     32  C   UNL     1      -5.512  14.760  20.931  0.00  0.00    +0.000 C 
BRANCH  32  33
ATOM     33  O   UNL     1      -5.341  14.483  19.542  0.00  0.00    +0.000 OA
ATOM     34  H   UNL     1      -5.724  15.262  19.095  0.00  0.00    +0.000 HD
ENDBRANCH  32  33
ENDBRANCH  31  32
ENDBRANCH  26  31
ENDBRANCH  10  26
TORSDOF 13
ENDMDL
MODEL 5
REMARK VINA RESULT:      -5.8      2.640      4.848
REMARK  Name = 
REMARK  15 active torsions:
REMARK  status: ('A' for Active; 'I' for Inactive)
REMARK    1  A    between atoms: C_1  and  N_2
REMARK    2  A    between atoms: N_2  and  C_3
REMARK    3  A    between atoms: N_2  and  C_4
REMARK    4  A    between atoms: C_4  and  C_5
REMARK    5  A    between atoms: C_5  and  C_6
REMARK    6  A    between atoms: C_6  and  N_7
REMARK    7  A    between atoms: N_7  and  C_8
REMARK    8  A    between atoms: C_17  and  N_18
REMARK    9  A    between atoms: N_18  and  C_19
REMARK   10  A    between atoms: N_18  and  C_22
REMARK   11  A    between atoms: C_19  and  C_20
REMARK   12  A    between atoms: C_20  and  O_21
REMARK   13  A    between atoms: C_22  and  C_23
REMARK   14  A    between atoms: C_23  and  O_24
REMARK   15  A    between atoms: C_27  and  N_28
REMARK                            x       y       z     vdW  Elec       q    Type
REMARK                         _______ _______ _______ _____ _____    ______ ____
ROOT
ATOM      1  C   UNL     1       0.984  11.707  20.050  0.00  0.00    +0.000 A 
ATOM      2  C   UNL     1       1.516  12.932  19.499  0.00  0.00    +0.000 A 
ATOM      3  C   UNL     1       2.426  13.055  18.400  0.00  0.00    +0.000 A 
ATOM      4  C   UNL     1       2.920  14.290  17.966  0.00  0.00    +0.000 A 
ATOM      5  C   UNL     1       2.515  15.442  18.614  0.00  0.00    +0.000 A 
ATOM      6  C   UNL     1       1.609  15.340  19.671  0.00  0.00    +0.000 A 
ATOM      7  C   UNL     1       1.101  14.118  20.110  0.00  0.00    +0.000 A 
ATOM      8  N   UNL     1       0.213  14.142  21.110  0.00  0.00    +0.000 NA
ATOM      9  C   UNL     1      -0.287  13.028  21.684  0.00  0.00    +0.000 A 
ATOM     10  C   UNL     1      -1.224  13.168  22.764  0.00  0.00    +0.000 A 
ATOM     11  C   UNL     1      -1.719  12.007  23.388  0.00  0.00    +0.000 A 
ATOM     12  C   UNL     1      -1.235  10.760  23.085  0.00  0.00    +0.000 A 
ATOM     13  C   UNL     1      -0.310  10.631  22.054  0.00  0.00    +0.000 A 
ATOM     14  C   UNL     1       0.142  11.735  21.241  0.00  0.00    +0.000 A 
ENDROOT
BRANCH  13  15
ATOM     15  N   UNL     1       0.219   9.272  21.961  0.00  0.00    +0.000 N 
ATOM     16  O   UNL     1      -0.592   8.377  21.659  0.00  0.00    +0.000 OA
ATOM     17  O   UNL     1       1.399   9.085  22.287  0.00  0.00    +0.000 OA
ENDBRANCH  13  15
BRANCH   1  18
ATOM     18  N   UNL     1       1.305  10.506  19.383  0.00  0.00    +0.000 N 
ATOM     19  H   UNL     1       2.293  10.354  19.201  0.00  0.00    +0.000 HD
BRANCH  18  20
ATOM     20  C   UNL     1       0.477   9.926  18.332  0.00  0.00    +0.000 C 
BRANCH  20  21
ATOM     21  C   UNL     1      -0.961  10.395  18.303  0.00  0.00    +0.000 C 
BRANCH  21  22
ATOM     22  C   UNL     1      -1.771   9.877  17.127  0.00  0.00    +0.000 C 
BRANCH  22  24
ATOM     23  C   UNL     1      -2.978  10.481  15.088  0.00  0.00    +0.000 C 
ATOM     24  N   UNL     1      -2.510  10.923  16.404  0.00  0.00    +0.000 NA
ATOM     25  C   UNL     1      -3.634  11.379  17.218  0.00  0.00    +0.000 C 
ENDBRANCH  22  24
ENDBRANCH  21  22
ENDBRANCH  20  21
ENDBRANCH  18  20
ENDBRANCH   1  18
BRANCH  10  26
ATOM     26  N   UNL     1      -1.744  14.384  23.285  0.00  0.00    +0.000 N 
BRANCH  26  27
ATOM     27  C   UNL     1      -1.291  14.988  24.560  0.00  0.00    +0.000 C 
BRANCH  27  28
ATOM     28  C   UNL     1      -0.447  16.249  24.364  0.00  0.00    +0.000 C 
BRANCH  28  29
ATOM     29  O   UNL     1       0.684  16.001  23.523  0.00  0.00    +0.000 OA
ATOM     30  H   UNL     1       0.377  15.360  22.860  0.00  0.00    +0.000 HD
ENDBRANCH  28  29
ENDBRANCH  27  28
ENDBRANCH  26  27
BRANCH  26  31
ATOM     31  C   UNL     1      -3.187  14.637  22.993  0.00  0.00    +0.000 C 
BRANCH  31  32
ATOM     32  C   UNL     1      -3.935  15.057  24.270  0.00  0.00    +0.000 C 
BRANCH  32  33
ATOM     33  O   UNL     1      -5.214  14.430  24.346  0.00  0.00    +0.000 OA
ATOM     34  H   UNL     1      -5.310  14.198  25.290  0.00  0.00    +0.000 HD
ENDBRANCH  32  33
ENDBRANCH  31  32
ENDBRANCH  26  31
ENDBRANCH  10  26
TORSDOF 13
ENDMDL
MODEL 6
REMARK VINA RESULT:      -5.7      1.356      1.564
REMARK  Name = 
REMARK  15 active torsions:
REMARK  status: ('A' for Active; 'I' for Inactive)
REMARK    1  A    between atoms: C_1  and  N_2
REMARK    2  A    between atoms: N_2  and  C_3
REMARK    3  A    between atoms: N_2  and  C_4
REMARK    4  A    between atoms: C_4  and  C_5
REMARK    5  A    between atoms: C_5  and  C_6
REMARK    6  A    between atoms: C_6  and  N_7
REMARK    7  A    between atoms: N_7  and  C_8
REMARK    8  A    between atoms: C_17  and  N_18
REMARK    9  A    between atoms: N_18  and  C_19
REMARK   10  A    between atoms: N_18  and  C_22
REMARK   11  A    between atoms: C_19  and  C_20
REMARK   12  A    between atoms: C_20  and  O_21
REMARK   13  A    between atoms: C_22  and  C_23
REMARK   14  A    between atoms: C_23  and  O_24
REMARK   15  A    between atoms: C_27  and  N_28
REMARK                            x       y       z     vdW  Elec       q    Type
REMARK                         _______ _______ _______ _____ _____    ______ ____
ROOT
ATOM      1  C   UNL     1      -0.759  11.919  19.000  0.00  0.00    +0.000 A 
ATOM      2  C   UNL     1      -1.973  11.536  18.318  0.00  0.00    +0.000 A 
ATOM      3  C   UNL     1      -2.075  10.772  17.110  0.00  0.00    +0.000 A 
ATOM      4  C   UNL     1      -3.302  10.488  16.500  0.00  0.00    +0.000 A 
ATOM      5  C   UNL     1      -4.466  10.953  17.083  0.00  0.00    +0.000 A 
ATOM      6  C   UNL     1      -4.385  11.677  18.273  0.00  0.00    +0.000 A 
ATOM      7  C   UNL     1      -3.171  11.962  18.897  0.00  0.00    +0.000 A 
ATOM      8  N   UNL     1      -3.215  12.633  20.053  0.00  0.00    +0.000 NA
ATOM      9  C   UNL     1      -2.112  13.046  20.712  0.00  0.00    +0.000 A 
ATOM     10  C   UNL     1      -2.272  13.777  21.939  0.00  0.00    +0.000 A 
ATOM     11  C   UNL     1      -1.124  14.240  22.608  0.00  0.00    +0.000 A 
ATOM     12  C   UNL     1       0.128  14.130  22.059  0.00  0.00    +0.000 A 
ATOM     13  C   UNL     1       0.277  13.442  20.860  0.00  0.00    +0.000 A 
ATOM     14  C   UNL     1      -0.810  12.787  20.172  0.00  0.00    +0.000 A 
ENDROOT
BRANCH  13  15
ATOM     15  N   UNL     1       1.637  13.547  20.333  0.00  0.00    +0.000 N 
ATOM     16  O   UNL     1       2.556  13.186  21.089  0.00  0.00    +0.000 OA
ATOM     17  O   UNL     1       1.791  14.080  19.227  0.00  0.00    +0.000 OA
ENDBRANCH  13  15
BRANCH   1  18
ATOM     18  N   UNL     1       0.455  11.411  18.493  0.00  0.00    +0.000 N 
ATOM     19  H   UNL     1       0.574  11.479  17.485  0.00  0.00    +0.000 HD
BRANCH  18  20
ATOM     20  C   UNL     1       1.113  10.223  19.025  0.00  0.00    +0.000 C 
BRANCH  20  21
ATOM     21  C   UNL     1       1.209   9.052  18.073  0.00  0.00    +0.000 C 
BRANCH  21  22
ATOM     22  C   UNL     1       2.617   8.517  17.870  0.00  0.00    +0.000 C 
BRANCH  22  24
ATOM     23  C   UNL     1       4.038   6.544  17.618  0.00  0.00    +0.000 C 
ATOM     24  N   UNL     1       2.734   7.061  18.039  0.00  0.00    +0.000 NA
ATOM     25  C   UNL     1       2.471   6.708  19.433  0.00  0.00    +0.000 C 
ENDBRANCH  22  24
ENDBRANCH  21  22
ENDBRANCH  20  21
ENDBRANCH  18  20
ENDBRANCH   1  18
BRANCH  10  26
ATOM     26  N   UNL     1      -3.498  14.085  22.590  0.00  0.00    +0.000 N 
BRANCH  26  27
ATOM     27  C   UNL     1      -4.284  15.310  22.318  0.00  0.00    +0.000 C 
BRANCH  27  28
ATOM     28  C   UNL     1      -5.422  15.088  21.320  0.00  0.00    +0.000 C 
BRANCH  28  29
ATOM     29  O   UNL     1      -4.961  15.169  19.968  0.00  0.00    +0.000 OA
ATOM     30  H   UNL     1      -4.124  14.675  19.951  0.00  0.00    +0.000 HD
ENDBRANCH  28  29
ENDBRANCH  27  28
ENDBRANCH  26  27
BRANCH  26  31
ATOM     31  C   UNL     1      -3.600  13.620  24.006  0.00  0.00    +0.000 C 
BRANCH  31  32
ATOM     32  C   UNL     1      -4.846  12.739  24.200  0.00  0.00    +0.000 C 
BRANCH  32  33
ATOM     33  O   UNL     1      -4.868  12.159  25.503  0.00  0.00    +0.000 OA
ATOM     34  H   UNL     1      -4.463  11.280  25.380  0.00  0.00    +0.000 HD
ENDBRANCH  32  33
ENDBRANCH  31  32
ENDBRANCH  26  31
ENDBRANCH  10  26
TORSDOF 13
ENDMDL
MODEL 7
REMARK VINA RESULT:      -5.7      2.312      7.231
REMARK  Name = 
REMARK  15 active torsions:
REMARK  status: ('A' for Active; 'I' for Inactive)
REMARK    1  A    between atoms: C_1  and  N_2
REMARK    2  A    between atoms: N_2  and  C_3
REMARK    3  A    between atoms: N_2  and  C_4
REMARK    4  A    between atoms: C_4  and  C_5
REMARK    5  A    between atoms: C_5  and  C_6
REMARK    6  A    between atoms: C_6  and  N_7
REMARK    7  A    between atoms: N_7  and  C_8
REMARK    8  A    between atoms: C_17  and  N_18
REMARK    9  A    between atoms: N_18  and  C_19
REMARK   10  A    between atoms: N_18  and  C_22
REMARK   11  A    between atoms: C_19  and  C_20
REMARK   12  A    between atoms: C_20  and  O_21
REMARK   13  A    between atoms: C_22  and  C_23
REMARK   14  A    between atoms: C_23  and  O_24
REMARK   15  A    between atoms: C_27  and  N_28
REMARK                            x       y       z     vdW  Elec       q    Type
REMARK                         _______ _______ _______ _____ _____    ______ ____
ROOT
ATOM      1  C   UNL     1      -4.003  12.260  19.032  0.00  0.00    +0.000 A 
ATOM      2  C   UNL     1      -3.654  11.491  17.861  0.00  0.00    +0.000 A 
ATOM      3  C   UNL     1      -4.468  11.277  16.701  0.00  0.00    +0.000 A 
ATOM      4  C   UNL     1      -4.056  10.476  15.630  0.00  0.00    +0.000 A 
ATOM      5  C   UNL     1      -2.816   9.869  15.683  0.00  0.00    +0.000 A 
ATOM      6  C   UNL     1      -2.002  10.087  16.795  0.00  0.00    +0.000 A 
ATOM      7  C   UNL     1      -2.394  10.889  17.866  0.00  0.00    +0.000 A 
ATOM      8  N   UNL     1      -1.519  11.056  18.864  0.00  0.00    +0.000 NA
ATOM      9  C   UNL     1      -1.806  11.734  19.995  0.00  0.00    +0.000 A 
ATOM     10  C   UNL     1      -0.798  11.839  21.013  0.00  0.00    +0.000 A 
ATOM     11  C   UNL     1      -1.107  12.515  22.209  0.00  0.00    +0.000 A 
ATOM     12  C   UNL     1      -2.377  12.957  22.482  0.00  0.00    +0.000 A 
ATOM     13  C   UNL     1      -3.356  12.833  21.503  0.00  0.00    +0.000 A 
ATOM     14  C   UNL     1      -3.107  12.305  20.183  0.00  0.00    +0.000 A 
ENDROOT
BRANCH  13  15
ATOM     15  N   UNL     1      -4.679  13.205  22.002  0.00  0.00    +0.000 N 
ATOM     16  O   UNL     1      -5.405  12.278  22.402  0.00  0.00    +0.000 OA
ATOM     17  O   UNL     1      -5.026  14.389  21.899  0.00  0.00    +0.000 OA
ENDBRANCH  13  15
BRANCH   1  18
ATOM     18  N   UNL     1      -5.225  12.963  19.004  0.00  0.00    +0.000 N 
ATOM     19  H   UNL     1      -5.219  13.876  19.451  0.00  0.00    +0.000 HD
BRANCH  18  20
ATOM     20  C   UNL     1      -6.527  12.317  19.138  0.00  0.00    +0.000 C 
BRANCH  20  21
ATOM     21  C   UNL     1      -7.663  12.983  18.394  0.00  0.00    +0.000 C 
BRANCH  21  22
ATOM     22  C   UNL     1      -7.708  14.495  18.535  0.00  0.00    +0.000 C 
BRANCH  22  24
ATOM     23  C   UNL     1      -7.350  15.253  16.238  0.00  0.00    +0.000 C 
ATOM     24  N   UNL     1      -6.822  15.210  17.604  0.00  0.00    +0.000 NA
ATOM     25  C   UNL     1      -6.578  16.562  18.101  0.00  0.00    +0.000 C 
ENDBRANCH  22  24
ENDBRANCH  21  22
ENDBRANCH  20  21
ENDBRANCH  18  20
ENDBRANCH   1  18
BRANCH  10  26
ATOM     26  N   UNL     1       0.531  11.338  20.947  0.00  0.00    +0.000 N 
BRANCH  26  27
ATOM     27  C   UNL     1       0.972  10.096  21.623  0.00  0.00    +0.000 C 
BRANCH  27  28
ATOM     28  C   UNL     1       1.087   8.901  20.675  0.00  0.00    +0.000 C 
BRANCH  28  29
ATOM     29  O   UNL     1       0.934   9.296  19.308  0.00  0.00    +0.000 OA
ATOM     30  H   UNL     1       0.834  10.263  19.328  0.00  0.00    +0.000 HD
ENDBRANCH  28  29
ENDBRANCH  27  28
ENDBRANCH  26  27
BRANCH  26  31
ATOM     31  C   UNL     1       1.601  12.378  20.868  0.00  0.00    +0.000 C 
BRANCH  31  32
ATOM     32  C   UNL     1       1.889  12.752  19.404  0.00  0.00    +0.000 C 
BRANCH  32  33
ATOM     33  O   UNL     1       2.695  13.926  19.322  0.00  0.00    +0.000 OA
ATOM     34  H   UNL     1       2.075  14.655  19.516  0.00  0.00    +0.000 HD
ENDBRANCH  32  33
ENDBRANCH  31  32
ENDBRANCH  26  31
ENDBRANCH  10  26
TORSDOF 13
ENDMDL
MODEL 8
REMARK VINA RESULT:      -5.6      1.930      3.047
REMARK  Name = 
REMARK  15 active torsions:
REMARK  status: ('A' for Active; 'I' for Inactive)
REMARK    1  A    between atoms: C_1  and  N_2
REMARK    2  A    between atoms: N_2  and  C_3
REMARK    3  A    between atoms: N_2  and  C_4
REMARK    4  A    between atoms: C_4  and  C_5
REMARK    5  A    between atoms: C_5  and  C_6
REMARK    6  A    between atoms: C_6  and  N_7
REMARK    7  A    between atoms: N_7  and  C_8
REMARK    8  A    between atoms: C_17  and  N_18
REMARK    9  A    between atoms: N_18  and  C_19
REMARK   10  A    between atoms: N_18  and  C_22
REMARK   11  A    between atoms: C_19  and  C_20
REMARK   12  A    between atoms: C_20  and  O_21
REMARK   13  A    between atoms: C_22  and  C_23
REMARK   14  A    between atoms: C_23  and  O_24
REMARK   15  A    between atoms: C_27  and  N_28
REMARK                            x       y       z     vdW  Elec       q    Type
REMARK                         _______ _______ _______ _____ _____    ______ ____
ROOT
ATOM      1  C   UNL     1      -1.149  11.888  18.818  0.00  0.00    +0.000 A 
ATOM      2  C   UNL     1      -2.336  11.591  18.051  0.00  0.00    +0.000 A 
ATOM      3  C   UNL     1      -2.395  10.923  16.784  0.00  0.00    +0.000 A 
ATOM      4  C   UNL     1      -3.597  10.719  16.096  0.00  0.00    +0.000 A 
ATOM      5  C   UNL     1      -4.777  11.171  16.655  0.00  0.00    +0.000 A 
ATOM      6  C   UNL     1      -4.739  11.801  17.899  0.00  0.00    +0.000 A 
ATOM      7  C   UNL     1      -3.552  12.005  18.602  0.00  0.00    +0.000 A 
ATOM      8  N   UNL     1      -3.637  12.590  19.802  0.00  0.00    +0.000 NA
ATOM      9  C   UNL     1      -2.560  12.922  20.543  0.00  0.00    +0.000 A 
ATOM     10  C   UNL     1      -2.764  13.563  21.812  0.00  0.00    +0.000 A 
ATOM     11  C   UNL     1      -1.640  13.943  22.570  0.00  0.00    +0.000 A 
ATOM     12  C   UNL     1      -0.365  13.839  22.076  0.00  0.00    +0.000 A 
ATOM     13  C   UNL     1      -0.173  13.239  20.836  0.00  0.00    +0.000 A 
ATOM     14  C   UNL     1      -1.239  12.668  20.049  0.00  0.00    +0.000 A 
ENDROOT
BRANCH  13  15
ATOM     15  N   UNL     1       1.214  13.345  20.386  0.00  0.00    +0.000 N 
ATOM     16  O   UNL     1       1.409  13.962  19.323  0.00  0.00    +0.000 OA
ATOM     17  O   UNL     1       2.080  12.734  21.026  0.00  0.00    +0.000 OA
ENDBRANCH  13  15
BRANCH   1  18
ATOM     18  N   UNL     1       0.076  11.386  18.333  0.00  0.00    +0.000 N 
ATOM     19  H   UNL     1       0.406  11.795  17.463  0.00  0.00    +0.000 HD
BRANCH  18  20
ATOM     20  C   UNL     1       0.470   9.985  18.443  0.00  0.00    +0.000 C 
BRANCH  20  21
ATOM     21  C   UNL     1       1.044   9.574  19.780  0.00  0.00    +0.000 C 
BRANCH  21  22
ATOM     22  C   UNL     1       0.012   9.391  20.881  0.00  0.00    +0.000 C 
BRANCH  22  24
ATOM     23  C   UNL     1      -0.761  10.209  23.051  0.00  0.00    +0.000 C 
ATOM     24  N   UNL     1       0.385  10.015  22.159  0.00  0.00    +0.000 NA
ATOM     25  C   UNL     1       1.412   9.209  22.815  0.00  0.00    +0.000 C 
ENDBRANCH  22  24
ENDBRANCH  21  22
ENDBRANCH  20  21
ENDBRANCH  18  20
ENDBRANCH   1  18
BRANCH  10  26
ATOM     26  N   UNL     1      -4.013  13.855  22.425  0.00  0.00    +0.000 N 
BRANCH  26  27
ATOM     27  C   UNL     1      -5.036  12.828  22.727  0.00  0.00    +0.000 C 
BRANCH  27  28
ATOM     28  C   UNL     1      -5.612  12.946  24.140  0.00  0.00    +0.000 C 
BRANCH  28  29
ATOM     29  O   UNL     1      -5.081  11.942  25.011  0.00  0.00    +0.000 OA
ATOM     30  H   UNL     1      -5.761  11.808  25.694  0.00  0.00    +0.000 HD
ENDBRANCH  28  29
ENDBRANCH  27  28
ENDBRANCH  26  27
BRANCH  26  31
ATOM     31  C   UNL     1      -4.598  15.185  22.077  0.00  0.00    +0.000 C 
BRANCH  31  32
ATOM     32  C   UNL     1      -5.770  15.023  21.094  0.00  0.00    +0.000 C 
BRANCH  32  33
ATOM     33  O   UNL     1      -5.325  15.122  19.742  0.00  0.00    +0.000 OA
ATOM     34  H   UNL     1      -4.360  15.250  19.817  0.00  0.00    +0.000 HD
ENDBRANCH  32  33
ENDBRANCH  31  32
ENDBRANCH  26  31
ENDBRANCH  10  26
TORSDOF 13
ENDMDL
MODEL 9
REMARK VINA RESULT:      -5.6      0.777      1.894
REMARK  Name = 
REMARK  15 active torsions:
REMARK  status: ('A' for Active; 'I' for Inactive)
REMARK    1  A    between atoms: C_1  and  N_2
REMARK    2  A    between atoms: N_2  and  C_3
REMARK    3  A    between atoms: N_2  and  C_4
REMARK    4  A    between atoms: C_4  and  C_5
REMARK    5  A    between atoms: C_5  and  C_6
REMARK    6  A    between atoms: C_6  and  N_7
REMARK    7  A    between atoms: N_7  and  C_8
REMARK    8  A    between atoms: C_17  and  N_18
REMARK    9  A    between atoms: N_18  and  C_19
REMARK   10  A    between atoms: N_18  and  C_22
REMARK   11  A    between atoms: C_19  and  C_20
REMARK   12  A    between atoms: C_20  and  O_21
REMARK   13  A    between atoms: C_22  and  C_23
REMARK   14  A    between atoms: C_23  and  O_24
REMARK   15  A    between atoms: C_27  and  N_28
REMARK                            x       y       z     vdW  Elec       q    Type
REMARK                         _______ _______ _______ _____ _____    ______ ____
ROOT
ATOM      1  C   UNL     1      -1.170  10.702  19.216  0.00  0.00    +0.000 A 
ATOM      2  C   UNL     1      -2.094  10.676  18.107  0.00  0.00    +0.000 A 
ATOM      3  C   UNL     1      -1.964   9.916  16.899  0.00  0.00    +0.000 A 
ATOM      4  C   UNL     1      -2.897   9.991  15.858  0.00  0.00    +0.000 A 
ATOM      5  C   UNL     1      -3.991  10.825  15.995  0.00  0.00    +0.000 A 
ATOM      6  C   UNL     1      -4.144  11.553  17.175  0.00  0.00    +0.000 A 
ATOM      7  C   UNL     1      -3.229  11.483  18.225  0.00  0.00    +0.000 A 
ATOM      8  N   UNL     1      -3.494  12.198  19.324  0.00  0.00    +0.000 NA
ATOM      9  C   UNL     1      -2.650  12.285  20.372  0.00  0.00    +0.000 A 
ATOM     10  C   UNL     1      -3.025  13.097  21.497  0.00  0.00    +0.000 A 
ATOM     11  C   UNL     1      -2.130  13.219  22.576  0.00  0.00    +0.000 A 
ATOM     12  C   UNL     1      -0.862  12.696  22.527  0.00  0.00    +0.000 A 
ATOM     13  C   UNL     1      -0.494  11.931  21.426  0.00  0.00    +0.000 A 
ATOM     14  C   UNL     1      -1.388  11.607  20.341  0.00  0.00    +0.000 A 
ENDROOT
BRANCH  13  15
ATOM     15  N   UNL     1       0.925  11.581  21.453  0.00  0.00    +0.000 N 
ATOM     16  O   UNL     1       1.215  10.460  21.908  0.00  0.00    +0.000 OA
ATOM     17  O   UNL     1       1.743  12.451  21.126  0.00  0.00    +0.000 OA
ENDBRANCH  13  15
BRANCH   1  18
ATOM     18  N   UNL     1      -0.074   9.817  19.165  0.00  0.00    +0.000 N 
ATOM     19  H   UNL     1       0.155   9.348  20.038  0.00  0.00    +0.000 HD
BRANCH  18  20
ATOM     20  C   UNL     1       1.123  10.065  18.368  0.00  0.00    +0.000 C 
BRANCH  20  21
ATOM     21  C   UNL     1       1.721   8.848  17.698  0.00  0.00    +0.000 C 
BRANCH  21  22
ATOM     22  C   UNL     1       2.463   7.912  18.636  0.00  0.00    +0.000 C 
BRANCH  22  24
ATOM     23  C   UNL     1       4.077   6.393  17.603  0.00  0.00    +0.000 C 
ATOM     24  N   UNL     1       2.703   6.573  18.078  0.00  0.00    +0.000 NA
ATOM     25  C   UNL     1       2.372   5.560  19.077  0.00  0.00    +0.000 C 
ENDBRANCH  22  24
ENDBRANCH  21  22
ENDBRANCH  20  21
ENDBRANCH  18  20
ENDBRANCH   1  18
BRANCH  10  26
ATOM     26  N   UNL     1      -4.247  13.804  21.663  0.00  0.00    +0.000 N 
BRANCH  26  27
ATOM     27  C   UNL     1      -5.541  13.145  21.958  0.00  0.00    +0.000 C 
BRANCH  27  28
ATOM     28  C   UNL     1      -5.840  13.042  23.455  0.00  0.00    +0.000 C 
BRANCH  28  29
ATOM     29  O   UNL     1      -5.217  14.100  24.190  0.00  0.00    +0.000 OA
ATOM     30  H   UNL     1      -4.286  14.097  23.909  0.00  0.00    +0.000 HD
ENDBRANCH  28  29
ENDBRANCH  27  28
ENDBRANCH  26  27
BRANCH  26  31
ATOM     31  C   UNL     1      -4.390  15.035  20.830  0.00  0.00    +0.000 C 
BRANCH  31  32
ATOM     32  C   UNL     1      -4.069  16.292  21.658  0.00  0.00    +0.000 C 
BRANCH  32  33
ATOM     33  O   UNL     1      -4.689  17.448  21.099  0.00  0.00    +0.000 OA
ATOM     34  H   UNL     1      -5.619  17.384  21.389  0.00  0.00    +0.000 HD
ENDBRANCH  32  33
ENDBRANCH  31  32
ENDBRANCH  26  31
ENDBRANCH  10  26
TORSDOF 13
ENDMDL
