MODEL 1
REMARK VINA RESULT:      -9.1      0.000      0.000
REMARK  Name = 
REMARK  2 active torsions:
REMARK  status: ('A' for Active; 'I' for Inactive)
REMARK    1  A    between atoms: C_2  and  C_16
REMARK    2  A    between atoms: C_20  and  N_21
REMARK                            x       y       z     vdW  Elec       q    Type
REMARK                         _______ _______ _______ _____ _____    ______ ____
ROOT
ATOM      1  O   UNL     1       1.709   8.675  18.982  0.00  0.00    +0.000 OA
ATOM      2  C   UNL     1       1.630   7.887  19.921  0.00  0.00    +0.000 C 
ATOM      3  N   UNL     1       0.974   8.136  21.107  0.00  0.00    +0.000 N 
ATOM      4  C   UNL     1       0.266   9.305  21.286  0.00  0.00    +0.000 A 
ATOM      5  N   UNL     1      -0.098  10.199  20.399  0.00  0.00    +0.000 NA
ATOM      6  C   UNL     1      -0.772  11.240  21.014  0.00  0.00    +0.000 A 
ATOM      7  C   UNL     1      -1.312  12.378  20.367  0.00  0.00    +0.000 A 
ATOM      8  C   UNL     1      -1.930  13.327  21.159  0.00  0.00    +0.000 A 
ATOM      9  C   UNL     1      -2.028  13.191  22.520  0.00  0.00    +0.000 A 
ATOM     10  C   UNL     1      -1.527  12.097  23.200  0.00  0.00    +0.000 A 
ATOM     11  C   UNL     1      -0.903  11.113  22.407  0.00  0.00    +0.000 A 
ATOM     12  S   UNL     1      -0.201   9.609  22.896  0.00  0.00    +0.000 S 
ATOM     13  O   UNL     1      -2.670  14.243  23.101  0.00  0.00    +0.000 OA
ATOM     14  C   UNL     1      -2.972  15.054  21.947  0.00  0.00    +0.000 C 
ATOM     15  O   UNL     1      -2.503  14.478  20.709  0.00  0.00    +0.000 OA
ATOM     16  H   UNL     1       1.083   7.545  21.915  0.00  0.00    +0.000 HD
ENDROOT
BRANCH   2  17
ATOM     17  C   UNL     1       2.345   6.574  19.771  0.00  0.00    +0.000 A 
ATOM     18  C   UNL     1       1.865   5.523  20.570  0.00  0.00    +0.000 A 
ATOM     19  C   UNL     1       2.505   4.294  20.595  0.00  0.00    +0.000 A 
ATOM     20  C   UNL     1       3.648   4.096  19.828  0.00  0.00    +0.000 A 
ATOM     21  C   UNL     1       4.168   5.113  19.011  0.00  0.00    +0.000 A 
ATOM     22  C   UNL     1       3.486   6.352  18.973  0.00  0.00    +0.000 A 
BRANCH  21  23
ATOM     23  N   UNL     1       5.369   4.875  18.269  0.00  0.00    +0.000 N 
ATOM     24  C   UNL     1       5.391   4.458  16.954  0.00  0.00    +0.000 C 
ATOM     25  O   UNL     1       4.456   4.160  16.222  0.00  0.00    +0.000 OA
ATOM     26  C   UNL     1       6.808   4.335  16.488  0.00  0.00    +0.000 C 
ATOM     27  C   UNL     1       7.639   4.706  17.690  0.00  0.00    +0.000 C 
ATOM     28  C   UNL     1       6.642   5.019  18.770  0.00  0.00    +0.000 C 
ATOM     29  O   UNL     1       6.985   5.380  19.889  0.00  0.00    +0.000 OA
ENDBRANCH  21  23
ENDBRANCH   2  17
TORSDOF 2
ENDMDL
MODEL 2
REMARK VINA RESULT:      -9.1      0.051      1.434
REMARK  Name = 
REMARK  2 active torsions:
REMARK  status: ('A' for Active; 'I' for Inactive)
REMARK    1  A    between atoms: C_2  and  C_16
REMARK    2  A    between atoms: C_20  and  N_21
REMARK                            x       y       z     vdW  Elec       q    Type
REMARK                         _______ _______ _______ _____ _____    ______ ____
ROOT
ATOM      1  O   UNL     1       1.716   8.670  18.957  0.00  0.00    +0.000 OA
ATOM      2  C   UNL     1       1.641   7.878  19.894  0.00  0.00    +0.000 C 
ATOM      3  N   UNL     1       0.985   8.122  21.081  0.00  0.00    +0.000 N 
ATOM      4  C   UNL     1       0.274   9.288  21.265  0.00  0.00    +0.000 A 
ATOM      5  N   UNL     1      -0.095  10.183  20.381  0.00  0.00    +0.000 NA
ATOM      6  C   UNL     1      -0.771  11.221  21.000  0.00  0.00    +0.000 A 
ATOM      7  C   UNL     1      -1.315  12.358  20.358  0.00  0.00    +0.000 A 
ATOM      8  C   UNL     1      -1.936  13.304  21.153  0.00  0.00    +0.000 A 
ATOM      9  C   UNL     1      -2.032  13.163  22.514  0.00  0.00    +0.000 A 
ATOM     10  C   UNL     1      -1.527  12.068  23.189  0.00  0.00    +0.000 A 
ATOM     11  C   UNL     1      -0.900  11.088  22.393  0.00  0.00    +0.000 A 
ATOM     12  S   UNL     1      -0.193   9.585  22.876  0.00  0.00    +0.000 S 
ATOM     13  O   UNL     1      -2.677  14.210  23.099  0.00  0.00    +0.000 OA
ATOM     14  C   UNL     1      -2.982  15.024  21.947  0.00  0.00    +0.000 C 
ATOM     15  O   UNL     1      -2.513  14.454  20.708  0.00  0.00    +0.000 OA
ATOM     16  H   UNL     1       1.097   7.528  21.887  0.00  0.00    +0.000 HD
ENDROOT
BRANCH   2  17
ATOM     17  C   UNL     1       2.360   6.568  19.739  0.00  0.00    +0.000 A 
ATOM     18  C   UNL     1       1.881   5.512  20.532  0.00  0.00    +0.000 A 
ATOM     19  C   UNL     1       2.524   4.284  20.552  0.00  0.00    +0.000 A 
ATOM     20  C   UNL     1       3.669   4.094  19.787  0.00  0.00    +0.000 A 
ATOM     21  C   UNL     1       4.189   5.116  18.975  0.00  0.00    +0.000 A 
ATOM     22  C   UNL     1       3.503   6.354  18.941  0.00  0.00    +0.000 A 
BRANCH  21  23
ATOM     23  N   UNL     1       5.391   4.885  18.235  0.00  0.00    +0.000 N 
ATOM     24  C   UNL     1       6.659   5.016  18.765  0.00  0.00    +0.000 C 
ATOM     25  O   UNL     1       6.995   5.395  19.881  0.00  0.00    +0.000 OA
ATOM     26  C   UNL     1       7.678   4.675  17.724  0.00  0.00    +0.000 C 
ATOM     27  C   UNL     1       6.872   4.346  16.494  0.00  0.00    +0.000 C 
ATOM     28  C   UNL     1       5.439   4.519  16.910  0.00  0.00    +0.000 C 
ATOM     29  O   UNL     1       4.507   4.309  16.143  0.00  0.00    +0.000 OA
ENDBRANCH  21  23
ENDBRANCH   2  17
TORSDOF 2
ENDMDL
MODEL 3
REMARK VINA RESULT:      -8.7      2.321     10.049
REMARK  Name = 
REMARK  2 active torsions:
REMARK  status: ('A' for Active; 'I' for Inactive)
REMARK    1  A    between atoms: C_2  and  C_16
REMARK    2  A    between atoms: C_20  and  N_21
REMARK                            x       y       z     vdW  Elec       q    Type
REMARK                         _______ _______ _______ _____ _____    ______ ____
ROOT
ATOM      1  O   UNL     1       1.656   9.543  18.801  0.00  0.00    +0.000 OA
ATOM      2  C   UNL     1       1.513   8.928  19.856  0.00  0.00    +0.000 C 
ATOM      3  N   UNL     1       2.012   7.669  20.108  0.00  0.00    +0.000 N 
ATOM      4  C   UNL     1       2.805   7.028  19.180  0.00  0.00    +0.000 A 
ATOM      5  N   UNL     1       3.387   7.513  18.110  0.00  0.00    +0.000 NA
ATOM      6  C   UNL     1       4.070   6.512  17.439  0.00  0.00    +0.000 A 
ATOM      7  C   UNL     1       4.815   6.671  16.246  0.00  0.00    +0.000 A 
ATOM      8  C   UNL     1       5.408   5.542  15.711  0.00  0.00    +0.000 A 
ATOM      9  C   UNL     1       5.291   4.308  16.297  0.00  0.00    +0.000 A 
ATOM     10  C   UNL     1       4.584   4.101  17.466  0.00  0.00    +0.000 A 
ATOM     11  C   UNL     1       3.982   5.242  18.033  0.00  0.00    +0.000 A 
ATOM     12  S   UNL     1       3.062   5.373  19.492  0.00  0.00    +0.000 S 
ATOM     13  O   UNL     1       5.948   3.340  15.601  0.00  0.00    +0.000 OA
ATOM     14  C   UNL     1       6.499   4.109  14.511  0.00  0.00    +0.000 C 
ATOM     15  O   UNL     1       6.158   5.509  14.574  0.00  0.00    +0.000 OA
ATOM     16  H   UNL     1       1.724   7.128  20.908  0.00  0.00    +0.000 HD
ENDROOT
BRANCH   2  17
ATOM     17  C   UNL     1       0.694   9.592  20.926  0.00  0.00    +0.000 A 
ATOM     18  C   UNL     1       0.431   8.812  22.064  0.00  0.00    +0.000 A 
ATOM     19  C   UNL     1      -0.397   9.277  23.074  0.00  0.00    +0.000 A 
ATOM     20  C   UNL     1      -0.990  10.529  22.957  0.00  0.00    +0.000 A 
ATOM     21  C   UNL     1      -0.760  11.349  21.840  0.00  0.00    +0.000 A 
ATOM     22  C   UNL     1       0.113  10.873  20.832  0.00  0.00    +0.000 A 
BRANCH  21  23
ATOM     23  N   UNL     1      -1.423  12.614  21.746  0.00  0.00    +0.000 N 
ATOM     24  C   UNL     1      -2.407  12.900  20.821  0.00  0.00    +0.000 C 
ATOM     25  O   UNL     1      -2.838  12.203  19.911  0.00  0.00    +0.000 OA
ATOM     26  C   UNL     1      -2.896  14.300  21.023  0.00  0.00    +0.000 C 
ATOM     27  C   UNL     1      -2.071  14.832  22.166  0.00  0.00    +0.000 C 
ATOM     28  C   UNL     1      -1.160  13.700  22.548  0.00  0.00    +0.000 C 
ATOM     29  O   UNL     1      -0.358  13.790  23.470  0.00  0.00    +0.000 OA
ENDBRANCH  21  23
ENDBRANCH   2  17
TORSDOF 2
ENDMDL
MODEL 4
REMARK VINA RESULT:      -8.7      2.333     10.154
REMARK  Name = 
REMARK  2 active torsions:
REMARK  status: ('A' for Active; 'I' for Inactive)
REMARK    1  A    between atoms: C_2  and  C_16
REMARK    2  A    between atoms: C_20  and  N_21
REMARK                            x       y       z     vdW  Elec       q    Type
REMARK                         _______ _______ _______ _____ _____    ______ ____
ROOT
ATOM      1  O   UNL     1       1.680   9.539  18.768  0.00  0.00    +0.000 OA
ATOM      2  C   UNL     1       1.529   8.921  19.819  0.00  0.00    +0.000 C 
ATOM      3  N   UNL     1       2.019   7.657  20.069  0.00  0.00    +0.000 N 
ATOM      4  C   UNL     1       2.812   7.016  19.142  0.00  0.00    +0.000 A 
ATOM      5  N   UNL     1       3.402   7.500  18.077  0.00  0.00    +0.000 NA
ATOM      6  C   UNL     1       4.081   6.499  17.405  0.00  0.00    +0.000 A 
ATOM      7  C   UNL     1       4.832   6.657  16.216  0.00  0.00    +0.000 A 
ATOM      8  C   UNL     1       5.420   5.527  15.678  0.00  0.00    +0.000 A 
ATOM      9  C   UNL     1       5.294   4.291  16.260  0.00  0.00    +0.000 A 
ATOM     10  C   UNL     1       4.581   4.084  17.425  0.00  0.00    +0.000 A 
ATOM     11  C   UNL     1       3.983   5.226  17.994  0.00  0.00    +0.000 A 
ATOM     12  S   UNL     1       3.058   5.358  19.449  0.00  0.00    +0.000 S 
ATOM     13  O   UNL     1       5.949   3.322  15.563  0.00  0.00    +0.000 OA
ATOM     14  C   UNL     1       6.508   4.091  14.478  0.00  0.00    +0.000 C 
ATOM     15  O   UNL     1       6.175   5.494  14.545  0.00  0.00    +0.000 OA
ATOM     16  H   UNL     1       1.725   7.116  20.866  0.00  0.00    +0.000 HD
ENDROOT
BRANCH   2  17
ATOM     17  C   UNL     1       0.709   9.585  20.889  0.00  0.00    +0.000 A 
ATOM     18  C   UNL     1       0.444   8.806  22.027  0.00  0.00    +0.000 A 
ATOM     19  C   UNL     1      -0.385   9.271  23.036  0.00  0.00    +0.000 A 
ATOM     20  C   UNL     1      -0.976  10.524  22.918  0.00  0.00    +0.000 A 
ATOM     21  C   UNL     1      -0.744  11.344  21.801  0.00  0.00    +0.000 A 
ATOM     22  C   UNL     1       0.130  10.867  20.794  0.00  0.00    +0.000 A 
BRANCH  21  23
ATOM     23  N   UNL     1      -1.405  12.610  21.706  0.00  0.00    +0.000 N 
ATOM     24  C   UNL     1      -1.132  13.685  22.528  0.00  0.00    +0.000 C 
ATOM     25  O   UNL     1      -0.370  13.753  23.484  0.00  0.00    +0.000 OA
ATOM     26  C   UNL     1      -1.986  14.849  22.134  0.00  0.00    +0.000 C 
ATOM     27  C   UNL     1      -2.825  14.339  20.990  0.00  0.00    +0.000 C 
ATOM     28  C   UNL     1      -2.396  12.911  20.802  0.00  0.00    +0.000 C 
ATOM     29  O   UNL     1      -2.873  12.198  19.927  0.00  0.00    +0.000 OA
ENDBRANCH  21  23
ENDBRANCH   2  17
TORSDOF 2
ENDMDL
MODEL 5
REMARK VINA RESULT:      -8.7      1.696      2.799
REMARK  Name = 
REMARK  2 active torsions:
REMARK  status: ('A' for Active; 'I' for Inactive)
REMARK    1  A    between atoms: C_2  and  C_16
REMARK    2  A    between atoms: C_20  and  N_21
REMARK                            x       y       z     vdW  Elec       q    Type
REMARK                         _______ _______ _______ _____ _____    ______ ____
ROOT
ATOM      1  O   UNL     1       1.607   9.559  17.925  0.00  0.00    +0.000 OA
ATOM      2  C   UNL     1       1.856   8.658  18.722  0.00  0.00    +0.000 C 
ATOM      3  N   UNL     1       1.384   8.596  20.015  0.00  0.00    +0.000 N 
ATOM      4  C   UNL     1       0.499   9.542  20.486  0.00  0.00    +0.000 A 
ATOM      5  N   UNL     1      -0.189  10.438  19.821  0.00  0.00    +0.000 NA
ATOM      6  C   UNL     1      -0.939  11.212  20.691  0.00  0.00    +0.000 A 
ATOM      7  C   UNL     1      -1.802  12.272  20.327  0.00  0.00    +0.000 A 
ATOM      8  C   UNL     1      -2.448  12.947  21.347  0.00  0.00    +0.000 A 
ATOM      9  C   UNL     1      -2.274  12.616  22.666  0.00  0.00    +0.000 A 
ATOM     10  C   UNL     1      -1.451  11.583  23.075  0.00  0.00    +0.000 A 
ATOM     11  C   UNL     1      -0.792  10.877  22.049  0.00  0.00    +0.000 A 
ATOM     12  S   UNL     1       0.272   9.520  22.174  0.00  0.00    +0.000 S 
ATOM     13  O   UNL     1      -3.001  13.410  23.500  0.00  0.00    +0.000 OA
ATOM     14  C   UNL     1      -3.659  14.276  22.552  0.00  0.00    +0.000 C 
ATOM     15  O   UNL     1      -3.311  13.988  21.181  0.00  0.00    +0.000 OA
ATOM     16  H   UNL     1       1.751   7.944  20.689  0.00  0.00    +0.000 HD
ENDROOT
BRANCH   2  17
ATOM     17  C   UNL     1       2.782   7.570  18.254  0.00  0.00    +0.000 A 
ATOM     18  C   UNL     1       3.694   7.936  17.251  0.00  0.00    +0.000 A 
ATOM     19  C   UNL     1       4.530   6.997  16.667  0.00  0.00    +0.000 A 
ATOM     20  C   UNL     1       4.459   5.668  17.070  0.00  0.00    +0.000 A 
ATOM     21  C   UNL     1       3.566   5.249  18.070  0.00  0.00    +0.000 A 
ATOM     22  C   UNL     1       2.741   6.226  18.678  0.00  0.00    +0.000 A 
BRANCH  21  23
ATOM     23  N   UNL     1       3.503   3.864  18.423  0.00  0.00    +0.000 N 
ATOM     24  C   UNL     1       4.478   3.209  19.149  0.00  0.00    +0.000 C 
ATOM     25  O   UNL     1       5.554   3.631  19.553  0.00  0.00    +0.000 OA
ATOM     26  C   UNL     1       4.077   1.783  19.358  0.00  0.00    +0.000 C 
ATOM     27  C   UNL     1       2.753   1.650  18.650  0.00  0.00    +0.000 C 
ATOM     28  C   UNL     1       2.479   3.013  18.080  0.00  0.00    +0.000 C 
ATOM     29  O   UNL     1       1.459   3.263  17.450  0.00  0.00    +0.000 OA
ENDBRANCH  21  23
ENDBRANCH   2  17
TORSDOF 2
ENDMDL
MODEL 6
REMARK VINA RESULT:      -8.7      1.694      2.459
REMARK  Name = 
REMARK  2 active torsions:
REMARK  status: ('A' for Active; 'I' for Inactive)
REMARK    1  A    between atoms: C_2  and  C_16
REMARK    2  A    between atoms: C_20  and  N_21
REMARK                            x       y       z     vdW  Elec       q    Type
REMARK                         _______ _______ _______ _____ _____    ______ ____
ROOT
ATOM      1  O   UNL     1       1.534   9.502  17.872  0.00  0.00    +0.000 OA
ATOM      2  C   UNL     1       1.834   8.641  18.696  0.00  0.00    +0.000 C 
ATOM      3  N   UNL     1       1.406   8.621  20.006  0.00  0.00    +0.000 N 
ATOM      4  C   UNL     1       0.512   9.563  20.469  0.00  0.00    +0.000 A 
ATOM      5  N   UNL     1      -0.221  10.413  19.792  0.00  0.00    +0.000 NA
ATOM      6  C   UNL     1      -0.962  11.202  20.656  0.00  0.00    +0.000 A 
ATOM      7  C   UNL     1      -1.864  12.225  20.279  0.00  0.00    +0.000 A 
ATOM      8  C   UNL     1      -2.494  12.924  21.291  0.00  0.00    +0.000 A 
ATOM      9  C   UNL     1      -2.268  12.652  22.616  0.00  0.00    +0.000 A 
ATOM     10  C   UNL     1      -1.405  11.659  23.038  0.00  0.00    +0.000 A 
ATOM     11  C   UNL     1      -0.762  10.928  22.019  0.00  0.00    +0.000 A 
ATOM     12  S   UNL     1       0.343   9.605  22.163  0.00  0.00    +0.000 S 
ATOM     13  O   UNL     1      -2.988  13.462  23.442  0.00  0.00    +0.000 OA
ATOM     14  C   UNL     1      -3.700  14.271  22.482  0.00  0.00    +0.000 C 
ATOM     15  O   UNL     1      -3.390  13.935  21.114  0.00  0.00    +0.000 OA
ATOM     16  H   UNL     1       1.813   8.007  20.694  0.00  0.00    +0.000 HD
ENDROOT
BRANCH   2  17
ATOM     17  C   UNL     1       2.772   7.559  18.242  0.00  0.00    +0.000 A 
ATOM     18  C   UNL     1       3.693   7.930  17.248  0.00  0.00    +0.000 A 
ATOM     19  C   UNL     1       4.543   6.995  16.676  0.00  0.00    +0.000 A 
ATOM     20  C   UNL     1       4.477   5.666  17.081  0.00  0.00    +0.000 A 
ATOM     21  C   UNL     1       3.575   5.244  18.071  0.00  0.00    +0.000 A 
ATOM     22  C   UNL     1       2.736   6.216  18.667  0.00  0.00    +0.000 A 
BRANCH  21  23
ATOM     23  N   UNL     1       3.517   3.859  18.426  0.00  0.00    +0.000 N 
ATOM     24  C   UNL     1       2.491   3.012  18.057  0.00  0.00    +0.000 C 
ATOM     25  O   UNL     1       1.458   3.267  17.450  0.00  0.00    +0.000 OA
ATOM     26  C   UNL     1       2.764   1.635  18.575  0.00  0.00    +0.000 C 
ATOM     27  C   UNL     1       4.068   1.759  19.322  0.00  0.00    +0.000 C 
ATOM     28  C   UNL     1       4.459   3.203  19.184  0.00  0.00    +0.000 C 
ATOM     29  O   UNL     1       5.494   3.647  19.664  0.00  0.00    +0.000 OA
ENDBRANCH  21  23
ENDBRANCH   2  17
TORSDOF 2
ENDMDL
MODEL 7
REMARK VINA RESULT:      -8.6      2.065      3.124
REMARK  Name = 
REMARK  2 active torsions:
REMARK  status: ('A' for Active; 'I' for Inactive)
REMARK    1  A    between atoms: C_2  and  C_16
REMARK    2  A    between atoms: C_20  and  N_21
REMARK                            x       y       z     vdW  Elec       q    Type
REMARK                         _______ _______ _______ _____ _____    ______ ____
ROOT
ATOM      1  O   UNL     1       1.154   8.174  21.246  0.00  0.00    +0.000 OA
ATOM      2  C   UNL     1       1.335   8.481  20.070  0.00  0.00    +0.000 C 
ATOM      3  N   UNL     1       0.746   9.554  19.436  0.00  0.00    +0.000 N 
ATOM      4  C   UNL     1      -0.052  10.432  20.136  0.00  0.00    +0.000 A 
ATOM      5  N   UNL     1      -0.201  10.567  21.432  0.00  0.00    +0.000 NA
ATOM      6  C   UNL     1      -1.129  11.556  21.709  0.00  0.00    +0.000 A 
ATOM      7  C   UNL     1      -1.538  11.973  22.998  0.00  0.00    +0.000 A 
ATOM      8  C   UNL     1      -2.500  12.964  23.072  0.00  0.00    +0.000 A 
ATOM      9  C   UNL     1      -3.049  13.534  21.952  0.00  0.00    +0.000 A 
ATOM     10  C   UNL     1      -2.678  13.170  20.671  0.00  0.00    +0.000 A 
ATOM     11  C   UNL     1      -1.690  12.169  20.576  0.00  0.00    +0.000 A 
ATOM     12  S   UNL     1      -0.960  11.494  19.161  0.00  0.00    +0.000 S 
ATOM     13  O   UNL     1      -3.977  14.483  22.255  0.00  0.00    +0.000 OA
ATOM     14  C   UNL     1      -3.945  14.449  23.697  0.00  0.00    +0.000 C 
ATOM     15  O   UNL     1      -3.009  13.485  24.222  0.00  0.00    +0.000 OA
ATOM     16  H   UNL     1       0.776   9.667  18.435  0.00  0.00    +0.000 HD
ENDROOT
BRANCH   2  17
ATOM     17  C   UNL     1       2.231   7.586  19.261  0.00  0.00    +0.000 A 
ATOM     18  C   UNL     1       2.888   8.198  18.181  0.00  0.00    +0.000 A 
ATOM     19  C   UNL     1       3.662   7.456  17.302  0.00  0.00    +0.000 A 
ATOM     20  C   UNL     1       3.782   6.082  17.482  0.00  0.00    +0.000 A 
ATOM     21  C   UNL     1       3.147   5.422  18.546  0.00  0.00    +0.000 A 
ATOM     22  C   UNL     1       2.386   6.198  19.453  0.00  0.00    +0.000 A 
BRANCH  21  23
ATOM     23  N   UNL     1       3.269   4.001  18.668  0.00  0.00    +0.000 N 
ATOM     24  C   UNL     1       4.391   3.364  19.158  0.00  0.00    +0.000 C 
ATOM     25  O   UNL     1       5.464   3.844  19.502  0.00  0.00    +0.000 OA
ATOM     26  C   UNL     1       4.166   1.885  19.170  0.00  0.00    +0.000 C 
ATOM     27  C   UNL     1       2.780   1.705  18.604  0.00  0.00    +0.000 C 
ATOM     28  C   UNL     1       2.299   3.097  18.305  0.00  0.00    +0.000 C 
ATOM     29  O   UNL     1       1.185   3.317  17.846  0.00  0.00    +0.000 OA
ENDBRANCH  21  23
ENDBRANCH   2  17
TORSDOF 2
ENDMDL
MODEL 8
REMARK VINA RESULT:      -8.5      2.073      2.846
REMARK  Name = 
REMARK  2 active torsions:
REMARK  status: ('A' for Active; 'I' for Inactive)
REMARK    1  A    between atoms: C_2  and  C_16
REMARK    2  A    between atoms: C_20  and  N_21
REMARK                            x       y       z     vdW  Elec       q    Type
REMARK                         _______ _______ _______ _____ _____    ______ ____
ROOT
ATOM      1  O   UNL     1       1.124   8.154  21.237  0.00  0.00    +0.000 OA
ATOM      2  C   UNL     1       1.320   8.473  20.066  0.00  0.00    +0.000 C 
ATOM      3  N   UNL     1       0.747   9.557  19.438  0.00  0.00    +0.000 N 
ATOM      4  C   UNL     1      -0.052  10.435  20.139  0.00  0.00    +0.000 A 
ATOM      5  N   UNL     1      -0.214  10.556  21.434  0.00  0.00    +0.000 NA
ATOM      6  C   UNL     1      -1.136  11.550  21.713  0.00  0.00    +0.000 A 
ATOM      7  C   UNL     1      -1.556  11.956  23.002  0.00  0.00    +0.000 A 
ATOM      8  C   UNL     1      -2.511  12.953  23.076  0.00  0.00    +0.000 A 
ATOM      9  C   UNL     1      -3.042  13.540  21.957  0.00  0.00    +0.000 A 
ATOM     10  C   UNL     1      -2.660  13.188  20.676  0.00  0.00    +0.000 A 
ATOM     11  C   UNL     1      -1.680  12.180  20.581  0.00  0.00    +0.000 A 
ATOM     12  S   UNL     1      -0.940  11.515  19.166  0.00  0.00    +0.000 S 
ATOM     13  O   UNL     1      -3.966  14.493  22.260  0.00  0.00    +0.000 OA
ATOM     14  C   UNL     1      -3.951  14.444  23.702  0.00  0.00    +0.000 C 
ATOM     15  O   UNL     1      -3.028  13.466  24.227  0.00  0.00    +0.000 OA
ATOM     16  H   UNL     1       0.789   9.682  18.439  0.00  0.00    +0.000 HD
ENDROOT
BRANCH   2  17
ATOM     17  C   UNL     1       2.218   7.580  19.257  0.00  0.00    +0.000 A 
ATOM     18  C   UNL     1       2.872   8.192  18.176  0.00  0.00    +0.000 A 
ATOM     19  C   UNL     1       3.647   7.451  17.296  0.00  0.00    +0.000 A 
ATOM     20  C   UNL     1       3.771   6.078  17.477  0.00  0.00    +0.000 A 
ATOM     21  C   UNL     1       3.139   5.417  18.543  0.00  0.00    +0.000 A 
ATOM     22  C   UNL     1       2.377   6.193  19.450  0.00  0.00    +0.000 A 
BRANCH  21  23
ATOM     23  N   UNL     1       3.265   3.997  18.666  0.00  0.00    +0.000 N 
ATOM     24  C   UNL     1       2.277   3.103  18.306  0.00  0.00    +0.000 C 
ATOM     25  O   UNL     1       1.143   3.326  17.900  0.00  0.00    +0.000 OA
ATOM     26  C   UNL     1       2.753   1.704  18.543  0.00  0.00    +0.000 C 
ATOM     27  C   UNL     1       4.140   1.864  19.111  0.00  0.00    +0.000 C 
ATOM     28  C   UNL     1       4.370   3.347  19.164  0.00  0.00    +0.000 C 
ATOM     29  O   UNL     1       5.423   3.830  19.563  0.00  0.00    +0.000 OA
ENDBRANCH  21  23
ENDBRANCH   2  17
TORSDOF 2
ENDMDL
MODEL 9
REMARK VINA RESULT:      -8.4      1.381      1.819
REMARK  Name = 
REMARK  2 active torsions:
REMARK  status: ('A' for Active; 'I' for Inactive)
REMARK    1  A    between atoms: C_2  and  C_16
REMARK    2  A    between atoms: C_20  and  N_21
REMARK                            x       y       z     vdW  Elec       q    Type
REMARK                         _______ _______ _______ _____ _____    ______ ____
ROOT
ATOM      1  O   UNL     1       0.996   7.507  21.517  0.00  0.00    +0.000 OA
ATOM      2  C   UNL     1       1.591   7.502  20.442  0.00  0.00    +0.000 C 
ATOM      3  N   UNL     1       1.632   8.560  19.560  0.00  0.00    +0.000 N 
ATOM      4  C   UNL     1       1.051   9.767  19.882  0.00  0.00    +0.000 A 
ATOM      5  N   UNL     1       0.612  10.194  21.041  0.00  0.00    +0.000 NA
ATOM      6  C   UNL     1       0.072  11.462  20.914  0.00  0.00    +0.000 A 
ATOM      7  C   UNL     1      -0.493  12.233  21.958  0.00  0.00    +0.000 A 
ATOM      8  C   UNL     1      -1.008  13.473  21.627  0.00  0.00    +0.000 A 
ATOM      9  C   UNL     1      -0.981  13.956  20.344  0.00  0.00    +0.000 A 
ATOM     10  C   UNL     1      -0.433  13.249  19.291  0.00  0.00    +0.000 A 
ATOM     11  C   UNL     1       0.107  11.987  19.611  0.00  0.00    +0.000 A 
ATOM     12  S   UNL     1       0.898  10.850  18.576  0.00  0.00    +0.000 S 
ATOM     13  O   UNL     1      -1.545  15.192  20.244  0.00  0.00    +0.000 OA
ATOM     14  C   UNL     1      -1.923  15.435  21.615  0.00  0.00    +0.000 C 
ATOM     15  O   UNL     1      -1.586  14.345  22.499  0.00  0.00    +0.000 OA
ATOM     16  H   UNL     1       1.974   8.459  18.617  0.00  0.00    +0.000 HD
ENDROOT
BRANCH   2  17
ATOM     17  C   UNL     1       2.284   6.228  20.051  0.00  0.00    +0.000 A 
ATOM     18  C   UNL     1       1.776   5.055  20.632  0.00  0.00    +0.000 A 
ATOM     19  C   UNL     1       2.393   3.830  20.428  0.00  0.00    +0.000 A 
ATOM     20  C   UNL     1       3.541   3.759  19.648  0.00  0.00    +0.000 A 
ATOM     21  C   UNL     1       4.090   4.902  19.043  0.00  0.00    +0.000 A 
ATOM     22  C   UNL     1       3.431   6.140  19.235  0.00  0.00    +0.000 A 
BRANCH  21  23
ATOM     23  N   UNL     1       5.296   4.785  18.281  0.00  0.00    +0.000 N 
ATOM     24  C   UNL     1       5.333   4.411  16.952  0.00  0.00    +0.000 C 
ATOM     25  O   UNL     1       4.414   4.060  16.222  0.00  0.00    +0.000 OA
ATOM     26  C   UNL     1       6.748   4.419  16.466  0.00  0.00    +0.000 C 
ATOM     27  C   UNL     1       7.563   4.820  17.670  0.00  0.00    +0.000 C 
ATOM     28  C   UNL     1       6.560   5.017  18.770  0.00  0.00    +0.000 C 
ATOM     29  O   UNL     1       6.888   5.371  19.896  0.00  0.00    +0.000 OA
ENDBRANCH  21  23
ENDBRANCH   2  17
TORSDOF 2
ENDMDL
