MODEL 1
REMARK VINA RESULT:      -7.4      0.000      0.000
REMARK  Name = 
REMARK  8 active torsions:
REMARK  status: ('A' for Active; 'I' for Inactive)
REMARK    1  A    between atoms: C_2  and  C_3
REMARK    2  A    between atoms: C_3  and  C_4
REMARK    3  A    between atoms: C_4  and  N_5
REMARK    4  A    between atoms: N_5  and  C_6
REMARK    5  A    between atoms: N_5  and  C_13
REMARK    6  A    between atoms: C_6  and  C_7
REMARK    7  A    between atoms: C_13  and  C_14
REMARK    8  A    between atoms: C_17  and  C_18
REMARK                            x       y       z     vdW  Elec       q    Type
REMARK                         _______ _______ _______ _____ _____    ______ ____
ROOT
ATOM      1  C   UNL     1       7.638   5.799  18.444  0.00  0.00    +0.000 C 
ENDROOT
BRANCH   1   2
ATOM      2  C   UNL     1       7.844   7.258  18.224  0.00  0.00    +0.000 A 
ATOM      3  C   UNL     1       7.231   8.108  17.331  0.00  0.00    +0.000 A 
ATOM      4  O   UNL     1       7.750   9.353  17.509  0.00  0.00    +0.000 OA
ATOM      5  C   UNL     1       8.664   9.198  18.519  0.00  0.00    +0.000 A 
ATOM      6  N   UNL     1       8.764   7.961  18.969  0.00  0.00    +0.000 NA
BRANCH   5   7
ATOM      7  C   UNL     1       9.375  10.390  18.968  0.00  0.00    +0.000 A 
ATOM      8  C   UNL     1       9.976  11.282  18.065  0.00  0.00    +0.000 A 
ATOM      9  C   UNL     1      10.631  12.427  18.529  0.00  0.00    +0.000 A 
ATOM     10  C   UNL     1      10.683  12.680  19.892  0.00  0.00    +0.000 A 
ATOM     11  F   UNL     1      11.310  13.783  20.332  0.00  0.00    +0.000 F 
ATOM     12  C   UNL     1      10.106  11.812  20.806  0.00  0.00    +0.000 A 
ATOM     13  C   UNL     1       9.452  10.670  20.345  0.00  0.00    +0.000 A 
ENDBRANCH   5   7
ENDBRANCH   1   2
BRANCH   1  14
ATOM     14  N   UNL     1       6.505   5.279  17.640  0.00  0.00    +0.000 NA
BRANCH  14  15
ATOM     15  C   UNL     1       7.003   4.743  16.343  0.00  0.00    +0.000 C 
BRANCH  15  16
ATOM     16  C   UNL     1       6.135   5.159  15.167  0.00  0.00    +0.000 C 
BRANCH  16  18
ATOM     17  N   UNL     1       6.223   3.380  13.031  0.00  0.00    +0.000 NA
ATOM     18  C   UNL     1       6.183   4.186  13.999  0.00  0.00    +0.000 C 
ENDBRANCH  16  18
ENDBRANCH  15  16
ENDBRANCH  14  15
BRANCH  14  19
ATOM     19  C   UNL     1       5.773   4.242  18.416  0.00  0.00    +0.000 C 
BRANCH  19  20
ATOM     20  C   UNL     1       4.306   4.147  18.049  0.00  0.00    +0.000 A 
ATOM     21  C   UNL     1       3.480   5.279  18.118  0.00  0.00    +0.000 A 
ATOM     22  C   UNL     1       2.100   5.156  17.957  0.00  0.00    +0.000 A 
ATOM     23  C   UNL     1       1.535   3.905  17.716  0.00  0.00    +0.000 A 
ATOM     24  C   UNL     1       2.352   2.783  17.586  0.00  0.00    +0.000 A 
ATOM     25  C   UNL     1       3.733   2.904  17.738  0.00  0.00    +0.000 A 
ENDBRANCH  19  20
ENDBRANCH  14  19
ENDBRANCH   1  14
TORSDOF 8
ENDMDL
MODEL 2
REMARK VINA RESULT:      -7.4      5.543      7.529
REMARK  Name = 
REMARK  8 active torsions:
REMARK  status: ('A' for Active; 'I' for Inactive)
REMARK    1  A    between atoms: C_2  and  C_3
REMARK    2  A    between atoms: C_3  and  C_4
REMARK    3  A    between atoms: C_4  and  N_5
REMARK    4  A    between atoms: N_5  and  C_6
REMARK    5  A    between atoms: N_5  and  C_13
REMARK    6  A    between atoms: C_6  and  C_7
REMARK    7  A    between atoms: C_13  and  C_14
REMARK    8  A    between atoms: C_17  and  C_18
REMARK                            x       y       z     vdW  Elec       q    Type
REMARK                         _______ _______ _______ _____ _____    ______ ____
ROOT
ATOM      1  C   UNL     1       3.587   3.614  18.750  0.00  0.00    +0.000 C 
ENDROOT
BRANCH   1   2
ATOM      2  C   UNL     1       4.726   3.989  17.866  0.00  0.00    +0.000 A 
ATOM      3  C   UNL     1       5.980   4.451  18.195  0.00  0.00    +0.000 A 
ATOM      4  O   UNL     1       6.673   4.652  17.042  0.00  0.00    +0.000 OA
ATOM      5  C   UNL     1       5.794   4.294  16.053  0.00  0.00    +0.000 A 
ATOM      6  N   UNL     1       4.614   3.904  16.496  0.00  0.00    +0.000 NA
BRANCH   5   7
ATOM      7  C   UNL     1       6.270   4.369  14.676  0.00  0.00    +0.000 A 
ATOM      8  C   UNL     1       7.365   5.167  14.309  0.00  0.00    +0.000 A 
ATOM      9  C   UNL     1       7.809   5.199  12.983  0.00  0.00    +0.000 A 
ATOM     10  C   UNL     1       7.159   4.433  12.027  0.00  0.00    +0.000 A 
ATOM     11  F   UNL     1       7.590   4.464  10.756  0.00  0.00    +0.000 F 
ATOM     12  C   UNL     1       6.068   3.643  12.359  0.00  0.00    +0.000 A 
ATOM     13  C   UNL     1       5.626   3.609  13.681  0.00  0.00    +0.000 A 
ENDBRANCH   5   7
ENDBRANCH   1   2
BRANCH   1  14
ATOM     14  N   UNL     1       2.534   4.659  18.760  0.00  0.00    +0.000 NA
BRANCH  14  15
ATOM     15  C   UNL     1       1.197   4.035  18.965  0.00  0.00    +0.000 C 
BRANCH  15  16
ATOM     16  C   UNL     1       1.286   2.649  19.580  0.00  0.00    +0.000 C 
BRANCH  16  18
ATOM     17  N   UNL     1       1.478   2.671  22.354  0.00  0.00    +0.000 NA
ATOM     18  C   UNL     1       1.391   2.661  21.097  0.00  0.00    +0.000 C 
ENDBRANCH  16  18
ENDBRANCH  15  16
ENDBRANCH  14  15
BRANCH  14  19
ATOM     19  C   UNL     1       2.836   5.665  19.812  0.00  0.00    +0.000 C 
BRANCH  19  20
ATOM     20  C   UNL     1       2.408   7.070  19.436  0.00  0.00    +0.000 A 
ATOM     21  C   UNL     1       1.627   7.835  20.315  0.00  0.00    +0.000 A 
ATOM     22  C   UNL     1       1.083   9.050  19.900  0.00  0.00    +0.000 A 
ATOM     23  C   UNL     1       1.323   9.516  18.607  0.00  0.00    +0.000 A 
ATOM     24  C   UNL     1       2.147   8.792  17.746  0.00  0.00    +0.000 A 
ATOM     25  C   UNL     1       2.699   7.581  18.162  0.00  0.00    +0.000 A 
ENDBRANCH  19  20
ENDBRANCH  14  19
ENDBRANCH   1  14
TORSDOF 8
ENDMDL
MODEL 3
REMARK VINA RESULT:      -7.4      0.611      1.161
REMARK  Name = 
REMARK  8 active torsions:
REMARK  status: ('A' for Active; 'I' for Inactive)
REMARK    1  A    between atoms: C_2  and  C_3
REMARK    2  A    between atoms: C_3  and  C_4
REMARK    3  A    between atoms: C_4  and  N_5
REMARK    4  A    between atoms: N_5  and  C_6
REMARK    5  A    between atoms: N_5  and  C_13
REMARK    6  A    between atoms: C_6  and  C_7
REMARK    7  A    between atoms: C_13  and  C_14
REMARK    8  A    between atoms: C_17  and  C_18
REMARK                            x       y       z     vdW  Elec       q    Type
REMARK                         _______ _______ _______ _____ _____    ______ ____
ROOT
ATOM      1  C   UNL     1       7.420   5.765  18.242  0.00  0.00    +0.000 C 
ENDROOT
BRANCH   1   2
ATOM      2  C   UNL     1       7.653   7.229  18.091  0.00  0.00    +0.000 A 
ATOM      3  C   UNL     1       7.035   8.138  17.263  0.00  0.00    +0.000 A 
ATOM      4  O   UNL     1       7.588   9.360  17.489  0.00  0.00    +0.000 OA
ATOM      5  C   UNL     1       8.527   9.132  18.460  0.00  0.00    +0.000 A 
ATOM      6  N   UNL     1       8.612   7.871  18.842  0.00  0.00    +0.000 NA
BRANCH   5   7
ATOM      7  C   UNL     1       9.279  10.283  18.948  0.00  0.00    +0.000 A 
ATOM      8  C   UNL     1       9.373  10.584  20.317  0.00  0.00    +0.000 A 
ATOM      9  C   UNL     1      10.120  11.683  20.752  0.00  0.00    +0.000 A 
ATOM     10  C   UNL     1      10.774  12.477  19.821  0.00  0.00    +0.000 A 
ATOM     11  F   UNL     1      11.493  13.529  20.244  0.00  0.00    +0.000 F 
ATOM     12  C   UNL     1      10.691  12.208  18.463  0.00  0.00    +0.000 A 
ATOM     13  C   UNL     1       9.947  11.112  18.028  0.00  0.00    +0.000 A 
ENDBRANCH   5   7
ENDBRANCH   1   2
BRANCH   1  14
ATOM     14  N   UNL     1       6.055   5.380  17.806  0.00  0.00    +0.000 NA
BRANCH  14  15
ATOM     15  C   UNL     1       6.131   4.303  16.780  0.00  0.00    +0.000 C 
BRANCH  15  16
ATOM     16  C   UNL     1       6.963   4.703  15.573  0.00  0.00    +0.000 C 
BRANCH  16  18
ATOM     17  N   UNL     1       6.018   3.663  13.173  0.00  0.00    +0.000 NA
ATOM     18  C   UNL     1       6.446   4.134  14.261  0.00  0.00    +0.000 C 
ENDBRANCH  16  18
ENDBRANCH  15  16
ENDBRANCH  14  15
BRANCH  14  19
ATOM     19  C   UNL     1       5.251   4.959  18.983  0.00  0.00    +0.000 C 
BRANCH  19  20
ATOM     20  C   UNL     1       3.959   4.262  18.606  0.00  0.00    +0.000 A 
ATOM     21  C   UNL     1       2.935   4.967  17.956  0.00  0.00    +0.000 A 
ATOM     22  C   UNL     1       1.683   4.380  17.771  0.00  0.00    +0.000 A 
ATOM     23  C   UNL     1       1.447   3.083  18.225  0.00  0.00    +0.000 A 
ATOM     24  C   UNL     1       2.475   2.353  18.819  0.00  0.00    +0.000 A 
ATOM     25  C   UNL     1       3.731   2.934  18.997  0.00  0.00    +0.000 A 
ENDBRANCH  19  20
ENDBRANCH  14  19
ENDBRANCH   1  14
TORSDOF 8
ENDMDL
MODEL 4
REMARK VINA RESULT:      -7.3      5.223      7.707
REMARK  Name = 
REMARK  8 active torsions:
REMARK  status: ('A' for Active; 'I' for Inactive)
REMARK    1  A    between atoms: C_2  and  C_3
REMARK    2  A    between atoms: C_3  and  C_4
REMARK    3  A    between atoms: C_4  and  N_5
REMARK    4  A    between atoms: N_5  and  C_6
REMARK    5  A    between atoms: N_5  and  C_13
REMARK    6  A    between atoms: C_6  and  C_7
REMARK    7  A    between atoms: C_13  and  C_14
REMARK    8  A    between atoms: C_17  and  C_18
REMARK                            x       y       z     vdW  Elec       q    Type
REMARK                         _______ _______ _______ _____ _____    ______ ____
ROOT
ATOM      1  C   UNL     1       3.909   4.973  18.893  0.00  0.00    +0.000 C 
ENDROOT
BRANCH   1   2
ATOM      2  C   UNL     1       4.606   5.379  17.641  0.00  0.00    +0.000 A 
ATOM      3  C   UNL     1       5.084   6.612  17.260  0.00  0.00    +0.000 A 
ATOM      4  O   UNL     1       5.649   6.485  16.029  0.00  0.00    +0.000 OA
ATOM      5  C   UNL     1       5.488   5.160  15.718  0.00  0.00    +0.000 A 
ATOM      6  N   UNL     1       4.858   4.462  16.645  0.00  0.00    +0.000 NA
BRANCH   5   7
ATOM      7  C   UNL     1       6.035   4.699  14.447  0.00  0.00    +0.000 A 
ATOM      8  C   UNL     1       5.350   3.784  13.630  0.00  0.00    +0.000 A 
ATOM      9  C   UNL     1       5.893   3.380  12.407  0.00  0.00    +0.000 A 
ATOM     10  C   UNL     1       7.117   3.891  12.000  0.00  0.00    +0.000 A 
ATOM     11  F   UNL     1       7.633   3.502  10.823  0.00  0.00    +0.000 F 
ATOM     12  C   UNL     1       7.819   4.788  12.790  0.00  0.00    +0.000 A 
ATOM     13  C   UNL     1       7.278   5.192  14.011  0.00  0.00    +0.000 A 
ENDBRANCH   5   7
ENDBRANCH   1   2
BRANCH   1  14
ATOM     14  N   UNL     1       2.523   5.501  18.944  0.00  0.00    +0.000 NA
BRANCH  14  15
ATOM     15  C   UNL     1       1.558   4.384  19.147  0.00  0.00    +0.000 C 
BRANCH  15  16
ATOM     16  C   UNL     1       1.040   4.312  20.573  0.00  0.00    +0.000 C 
BRANCH  16  18
ATOM     17  N   UNL     1       2.372   2.449  22.151  0.00  0.00    +0.000 NA
ATOM     18  C   UNL     1       1.768   3.294  21.436  0.00  0.00    +0.000 C 
ENDBRANCH  16  18
ENDBRANCH  15  16
ENDBRANCH  14  15
BRANCH  14  19
ATOM     19  C   UNL     1       2.413   6.522  20.019  0.00  0.00    +0.000 C 
BRANCH  19  20
ATOM     20  C   UNL     1       1.841   7.840  19.535  0.00  0.00    +0.000 A 
ATOM     21  C   UNL     1       2.086   8.284  18.227  0.00  0.00    +0.000 A 
ATOM     22  C   UNL     1       1.715   9.571  17.838  0.00  0.00    +0.000 A 
ATOM     23  C   UNL     1       1.089  10.421  18.749  0.00  0.00    +0.000 A 
ATOM     24  C   UNL     1       0.788   9.969  20.033  0.00  0.00    +0.000 A 
ATOM     25  C   UNL     1       1.149   8.679  20.422  0.00  0.00    +0.000 A 
ENDBRANCH  19  20
ENDBRANCH  14  19
ENDBRANCH   1  14
TORSDOF 8
ENDMDL
MODEL 5
REMARK VINA RESULT:      -7.3      5.042      7.222
REMARK  Name = 
REMARK  8 active torsions:
REMARK  status: ('A' for Active; 'I' for Inactive)
REMARK    1  A    between atoms: C_2  and  C_3
REMARK    2  A    between atoms: C_3  and  C_4
REMARK    3  A    between atoms: C_4  and  N_5
REMARK    4  A    between atoms: N_5  and  C_6
REMARK    5  A    between atoms: N_5  and  C_13
REMARK    6  A    between atoms: C_6  and  C_7
REMARK    7  A    between atoms: C_13  and  C_14
REMARK    8  A    between atoms: C_17  and  C_18
REMARK                            x       y       z     vdW  Elec       q    Type
REMARK                         _______ _______ _______ _____ _____    ______ ____
ROOT
ATOM      1  C   UNL     1       4.714   4.674  19.486  0.00  0.00    +0.000 C 
ENDROOT
BRANCH   1   2
ATOM      2  C   UNL     1       5.704   4.789  18.378  0.00  0.00    +0.000 A 
ATOM      3  C   UNL     1       7.040   5.116  18.424  0.00  0.00    +0.000 A 
ATOM      4  O   UNL     1       7.526   5.087  17.153  0.00  0.00    +0.000 OA
ATOM      5  C   UNL     1       6.446   4.735  16.386  0.00  0.00    +0.000 A 
ATOM      6  N   UNL     1       5.332   4.559  17.073  0.00  0.00    +0.000 NA
BRANCH   5   7
ATOM      7  C   UNL     1       6.663   4.585  14.952  0.00  0.00    +0.000 A 
ATOM      8  C   UNL     1       5.902   3.698  14.172  0.00  0.00    +0.000 A 
ATOM      9  C   UNL     1       6.122   3.594  12.796  0.00  0.00    +0.000 A 
ATOM     10  C   UNL     1       7.100   4.377  12.199  0.00  0.00    +0.000 A 
ATOM     11  F   UNL     1       7.305   4.277  10.876  0.00  0.00    +0.000 F 
ATOM     12  C   UNL     1       7.873   5.254  12.945  0.00  0.00    +0.000 A 
ATOM     13  C   UNL     1       7.653   5.359  14.319  0.00  0.00    +0.000 A 
ENDBRANCH   5   7
ENDBRANCH   1   2
BRANCH   1  14
ATOM     14  N   UNL     1       3.329   4.908  19.008  0.00  0.00    +0.000 NA
BRANCH  14  15
ATOM     15  C   UNL     1       2.648   3.608  18.759  0.00  0.00    +0.000 C 
BRANCH  15  16
ATOM     16  C   UNL     1       3.071   2.528  19.740  0.00  0.00    +0.000 C 
BRANCH  16  18
ATOM     17  N   UNL     1       1.623   2.550  22.115  0.00  0.00    +0.000 NA
ATOM     18  C   UNL     1       2.279   2.540  21.039  0.00  0.00    +0.000 C 
ENDBRANCH  16  18
ENDBRANCH  15  16
ENDBRANCH  14  15
BRANCH  14  19
ATOM     19  C   UNL     1       2.589   5.733  20.000  0.00  0.00    +0.000 C 
BRANCH  19  20
ATOM     20  C   UNL     1       2.289   7.135  19.506  0.00  0.00    +0.000 A 
ATOM     21  C   UNL     1       1.615   8.049  20.330  0.00  0.00    +0.000 A 
ATOM     22  C   UNL     1       1.180   9.271  19.817  0.00  0.00    +0.000 A 
ATOM     23  C   UNL     1       1.423   9.594  18.483  0.00  0.00    +0.000 A 
ATOM     24  C   UNL     1       2.145   8.718  17.673  0.00  0.00    +0.000 A 
ATOM     25  C   UNL     1       2.589   7.499  18.185  0.00  0.00    +0.000 A 
ENDBRANCH  19  20
ENDBRANCH  14  19
ENDBRANCH   1  14
TORSDOF 8
ENDMDL
MODEL 6
REMARK VINA RESULT:      -7.2      5.004      6.935
REMARK  Name = 
REMARK  8 active torsions:
REMARK  status: ('A' for Active; 'I' for Inactive)
REMARK    1  A    between atoms: C_2  and  C_3
REMARK    2  A    between atoms: C_3  and  C_4
REMARK    3  A    between atoms: C_4  and  N_5
REMARK    4  A    between atoms: N_5  and  C_6
REMARK    5  A    between atoms: N_5  and  C_13
REMARK    6  A    between atoms: C_6  and  C_7
REMARK    7  A    between atoms: C_13  and  C_14
REMARK    8  A    between atoms: C_17  and  C_18
REMARK                            x       y       z     vdW  Elec       q    Type
REMARK                         _______ _______ _______ _____ _____    ______ ____
ROOT
ATOM      1  C   UNL     1       3.527   5.874  18.816  0.00  0.00    +0.000 C 
ENDROOT
BRANCH   1   2
ATOM      2  C   UNL     1       2.709   7.111  18.965  0.00  0.00    +0.000 A 
ATOM      3  C   UNL     1       2.385   8.070  18.033  0.00  0.00    +0.000 A 
ATOM      4  O   UNL     1       1.612   9.008  18.643  0.00  0.00    +0.000 OA
ATOM      5  C   UNL     1       1.499   8.566  19.935  0.00  0.00    +0.000 A 
ATOM      6  N   UNL     1       2.149   7.442  20.179  0.00  0.00    +0.000 NA
BRANCH   5   7
ATOM      7  C   UNL     1       0.682   9.360  20.846  0.00  0.00    +0.000 A 
ATOM      8  C   UNL     1       0.117  10.586  20.461  0.00  0.00    +0.000 A 
ATOM      9  C   UNL     1      -0.680  11.312  21.353  0.00  0.00    +0.000 A 
ATOM     10  C   UNL     1      -0.912  10.810  22.625  0.00  0.00    +0.000 A 
ATOM     11  F   UNL     1      -1.680  11.509  23.477  0.00  0.00    +0.000 F 
ATOM     12  C   UNL     1      -0.359   9.607  23.035  0.00  0.00    +0.000 A 
ATOM     13  C   UNL     1       0.435   8.882  22.147  0.00  0.00    +0.000 A 
ENDBRANCH   5   7
ENDBRANCH   1   2
BRANCH   1  14
ATOM     14  N   UNL     1       3.295   5.220  17.505  0.00  0.00    +0.000 NA
BRANCH  14  15
ATOM     15  C   UNL     1       4.570   4.654  16.983  0.00  0.00    +0.000 C 
BRANCH  15  16
ATOM     16  C   UNL     1       5.770   5.037  17.833  0.00  0.00    +0.000 C 
BRANCH  16  18
ATOM     17  N   UNL     1       7.581   6.694  16.524  0.00  0.00    +0.000 NA
ATOM     18  C   UNL     1       6.760   5.943  17.117  0.00  0.00    +0.000 C 
ENDBRANCH  16  18
ENDBRANCH  15  16
ENDBRANCH  14  15
BRANCH  14  19
ATOM     19  C   UNL     1       2.248   4.174  17.644  0.00  0.00    +0.000 C 
BRANCH  19  20
ATOM     20  C   UNL     1       2.218   3.537  19.019  0.00  0.00    +0.000 A 
ATOM     21  C   UNL     1       1.132   3.756  19.880  0.00  0.00    +0.000 A 
ATOM     22  C   UNL     1       1.185   3.323  21.205  0.00  0.00    +0.000 A 
ATOM     23  C   UNL     1       2.318   2.661  21.678  0.00  0.00    +0.000 A 
ATOM     24  C   UNL     1       3.377   2.387  20.814  0.00  0.00    +0.000 A 
ATOM     25  C   UNL     1       3.324   2.810  19.487  0.00  0.00    +0.000 A 
ENDBRANCH  19  20
ENDBRANCH  14  19
ENDBRANCH   1  14
TORSDOF 8
ENDMDL
MODEL 7
REMARK VINA RESULT:      -7.1      4.555      7.426
REMARK  Name = 
REMARK  8 active torsions:
REMARK  status: ('A' for Active; 'I' for Inactive)
REMARK    1  A    between atoms: C_2  and  C_3
REMARK    2  A    between atoms: C_3  and  C_4
REMARK    3  A    between atoms: C_4  and  N_5
REMARK    4  A    between atoms: N_5  and  C_6
REMARK    5  A    between atoms: N_5  and  C_13
REMARK    6  A    between atoms: C_6  and  C_7
REMARK    7  A    between atoms: C_13  and  C_14
REMARK    8  A    between atoms: C_17  and  C_18
REMARK                            x       y       z     vdW  Elec       q    Type
REMARK                         _______ _______ _______ _____ _____    ______ ____
ROOT
ATOM      1  C   UNL     1       2.912   4.906  17.814  0.00  0.00    +0.000 C 
ENDROOT
BRANCH   1   2
ATOM      2  C   UNL     1       2.647   6.307  18.245  0.00  0.00    +0.000 A 
ATOM      3  C   UNL     1       3.043   7.494  17.670  0.00  0.00    +0.000 A 
ATOM      4  O   UNL     1       2.553   8.514  18.426  0.00  0.00    +0.000 OA
ATOM      5  C   UNL     1       1.871   7.888  19.437  0.00  0.00    +0.000 A 
ATOM      6  N   UNL     1       1.911   6.569  19.378  0.00  0.00    +0.000 NA
BRANCH   5   7
ATOM      7  C   UNL     1       1.191   8.735  20.411  0.00  0.00    +0.000 A 
ATOM      8  C   UNL     1       1.340   8.545  21.795  0.00  0.00    +0.000 A 
ATOM      9  C   UNL     1       0.691   9.390  22.701  0.00  0.00    +0.000 A 
ATOM     10  C   UNL     1      -0.104  10.422  22.224  0.00  0.00    +0.000 A 
ATOM     11  F   UNL     1      -0.723  11.232  23.098  0.00  0.00    +0.000 F 
ATOM     12  C   UNL     1      -0.277  10.626  20.864  0.00  0.00    +0.000 A 
ATOM     13  C   UNL     1       0.371   9.785  19.959  0.00  0.00    +0.000 A 
ENDBRANCH   5   7
ENDBRANCH   1   2
BRANCH   1  14
ATOM     14  N   UNL     1       4.173   4.383  18.395  0.00  0.00    +0.000 NA
BRANCH  14  15
ATOM     15  C   UNL     1       3.958   3.011  18.932  0.00  0.00    +0.000 C 
BRANCH  15  16
ATOM     16  C   UNL     1       2.509   2.752  19.311  0.00  0.00    +0.000 C 
BRANCH  16  18
ATOM     17  N   UNL     1       2.052   2.779  22.054  0.00  0.00    +0.000 NA
ATOM     18  C   UNL     1       2.260   2.766  20.811  0.00  0.00    +0.000 C 
ENDBRANCH  16  18
ENDBRANCH  15  16
ENDBRANCH  14  15
BRANCH  14  19
ATOM     19  C   UNL     1       5.247   4.407  17.367  0.00  0.00    +0.000 C 
BRANCH  19  20
ATOM     20  C   UNL     1       6.357   5.390  17.685  0.00  0.00    +0.000 A 
ATOM     21  C   UNL     1       7.186   5.190  18.799  0.00  0.00    +0.000 A 
ATOM     22  C   UNL     1       8.085   6.181  19.196  0.00  0.00    +0.000 A 
ATOM     23  C   UNL     1       8.168   7.374  18.479  0.00  0.00    +0.000 A 
ATOM     24  C   UNL     1       7.391   7.557  17.336  0.00  0.00    +0.000 A 
ATOM     25  C   UNL     1       6.499   6.565  16.931  0.00  0.00    +0.000 A 
ENDBRANCH  19  20
ENDBRANCH  14  19
ENDBRANCH   1  14
TORSDOF 8
ENDMDL
MODEL 8
REMARK VINA RESULT:      -7.1      5.555      6.596
REMARK  Name = 
REMARK  8 active torsions:
REMARK  status: ('A' for Active; 'I' for Inactive)
REMARK    1  A    between atoms: C_2  and  C_3
REMARK    2  A    between atoms: C_3  and  C_4
REMARK    3  A    between atoms: C_4  and  N_5
REMARK    4  A    between atoms: N_5  and  C_6
REMARK    5  A    between atoms: N_5  and  C_13
REMARK    6  A    between atoms: C_6  and  C_7
REMARK    7  A    between atoms: C_13  and  C_14
REMARK    8  A    between atoms: C_17  and  C_18
REMARK                            x       y       z     vdW  Elec       q    Type
REMARK                         _______ _______ _______ _____ _____    ______ ____
ROOT
ATOM      1  C   UNL     1       4.102   5.976  18.386  0.00  0.00    +0.000 C 
ENDROOT
BRANCH   1   2
ATOM      2  C   UNL     1       3.134   7.099  18.533  0.00  0.00    +0.000 A 
ATOM      3  C   UNL     1       2.632   7.958  17.582  0.00  0.00    +0.000 A 
ATOM      4  O   UNL     1       1.773   8.815  18.197  0.00  0.00    +0.000 OA
ATOM      5  C   UNL     1       1.792   8.427  19.512  0.00  0.00    +0.000 A 
ATOM      6  N   UNL     1       2.601   7.414  19.762  0.00  0.00    +0.000 NA
BRANCH   5   7
ATOM      7  C   UNL     1       0.926   9.150  20.436  0.00  0.00    +0.000 A 
ATOM      8  C   UNL     1       0.487  10.458  20.175  0.00  0.00    +0.000 A 
ATOM      9  C   UNL     1      -0.361  11.115  21.072  0.00  0.00    +0.000 A 
ATOM     10  C   UNL     1      -0.769  10.464  22.227  0.00  0.00    +0.000 A 
ATOM     11  F   UNL     1      -1.585  11.098  23.085  0.00  0.00    +0.000 F 
ATOM     12  C   UNL     1      -0.343   9.176  22.515  0.00  0.00    +0.000 A 
ATOM     13  C   UNL     1       0.502   8.520  21.620  0.00  0.00    +0.000 A 
ENDBRANCH   5   7
ENDBRANCH   1   2
BRANCH   1  14
ATOM     14  N   UNL     1       3.779   5.123  17.216  0.00  0.00    +0.000 NA
BRANCH  14  15
ATOM     15  C   UNL     1       4.817   5.288  16.161  0.00  0.00    +0.000 C 
BRANCH  15  16
ATOM     16  C   UNL     1       5.551   3.994  15.855  0.00  0.00    +0.000 C 
BRANCH  16  18
ATOM     17  N   UNL     1       6.447   3.813  13.229  0.00  0.00    +0.000 NA
ATOM     18  C   UNL     1       6.041   3.895  14.419  0.00  0.00    +0.000 C 
ENDBRANCH  16  18
ENDBRANCH  15  16
ENDBRANCH  14  15
BRANCH  14  19
ATOM     19  C   UNL     1       3.656   3.705  17.647  0.00  0.00    +0.000 C 
BRANCH  19  20
ATOM     20  C   UNL     1       2.874   3.537  18.934  0.00  0.00    +0.000 A 
ATOM     21  C   UNL     1       3.479   2.969  20.065  0.00  0.00    +0.000 A 
ATOM     22  C   UNL     1       2.716   2.649  21.188  0.00  0.00    +0.000 A 
ATOM     23  C   UNL     1       1.344   2.901  21.193  0.00  0.00    +0.000 A 
ATOM     24  C   UNL     1       0.744   3.520  20.098  0.00  0.00    +0.000 A 
ATOM     25  C   UNL     1       1.506   3.850  18.978  0.00  0.00    +0.000 A 
ENDBRANCH  19  20
ENDBRANCH  14  19
ENDBRANCH   1  14
TORSDOF 8
ENDMDL
MODEL 9
REMARK VINA RESULT:      -7.1      4.617      6.962
REMARK  Name = 
REMARK  8 active torsions:
REMARK  status: ('A' for Active; 'I' for Inactive)
REMARK    1  A    between atoms: C_2  and  C_3
REMARK    2  A    between atoms: C_3  and  C_4
REMARK    3  A    between atoms: C_4  and  N_5
REMARK    4  A    between atoms: N_5  and  C_6
REMARK    5  A    between atoms: N_5  and  C_13
REMARK    6  A    between atoms: C_6  and  C_7
REMARK    7  A    between atoms: C_13  and  C_14
REMARK    8  A    between atoms: C_17  and  C_18
REMARK                            x       y       z     vdW  Elec       q    Type
REMARK                         _______ _______ _______ _____ _____    ______ ____
ROOT
ATOM      1  C   UNL     1       5.310   5.489  19.412  0.00  0.00    +0.000 C 
ENDROOT
BRANCH   1   2
ATOM      2  C   UNL     1       6.063   5.678  18.139  0.00  0.00    +0.000 A 
ATOM      3  C   UNL     1       7.119   6.515  17.858  0.00  0.00    +0.000 A 
ATOM      4  O   UNL     1       7.470   6.328  16.557  0.00  0.00    +0.000 OA
ATOM      5  C   UNL     1       6.600   5.371  16.105  0.00  0.00    +0.000 A 
ATOM      6  N   UNL     1       5.731   4.962  17.011  0.00  0.00    +0.000 NA
BRANCH   5   7
ATOM      7  C   UNL     1       6.752   4.925  14.724  0.00  0.00    +0.000 A 
ATOM      8  C   UNL     1       7.681   5.514  13.851  0.00  0.00    +0.000 A 
ATOM      9  C   UNL     1       7.817   5.047  12.540  0.00  0.00    +0.000 A 
ATOM     10  C   UNL     1       7.026   3.994  12.104  0.00  0.00    +0.000 A 
ATOM     11  F   UNL     1       7.162   3.547  10.845  0.00  0.00    +0.000 F 
ATOM     12  C   UNL     1       6.094   3.400  12.942  0.00  0.00    +0.000 A 
ATOM     13  C   UNL     1       5.959   3.864  14.250  0.00  0.00    +0.000 A 
ENDBRANCH   5   7
ENDBRANCH   1   2
BRANCH   1  14
ATOM     14  N   UNL     1       3.993   4.849  19.178  0.00  0.00    +0.000 NA
BRANCH  14  15
ATOM     15  C   UNL     1       4.098   3.376  19.377  0.00  0.00    +0.000 C 
BRANCH  15  16
ATOM     16  C   UNL     1       2.897   2.797  20.106  0.00  0.00    +0.000 C 
BRANCH  16  18
ATOM     17  N   UNL     1       0.749   2.224  18.435  0.00  0.00    +0.000 NA
ATOM     18  C   UNL     1       1.722   2.484  19.193  0.00  0.00    +0.000 C 
ENDBRANCH  16  18
ENDBRANCH  15  16
ENDBRANCH  14  15
BRANCH  14  19
ATOM     19  C   UNL     1       2.975   5.451  20.079  0.00  0.00    +0.000 C 
BRANCH  19  20
ATOM     20  C   UNL     1       2.376   6.732  19.532  0.00  0.00    +0.000 A 
ATOM     21  C   UNL     1       2.533   7.068  18.179  0.00  0.00    +0.000 A 
ATOM     22  C   UNL     1       2.142   8.325  17.715  0.00  0.00    +0.000 A 
ATOM     23  C   UNL     1       1.584   9.251  18.596  0.00  0.00    +0.000 A 
ATOM     24  C   UNL     1       1.370   8.904  19.929  0.00  0.00    +0.000 A 
ATOM     25  C   UNL     1       1.751   7.646  20.394  0.00  0.00    +0.000 A 
ENDBRANCH  19  20
ENDBRANCH  14  19
ENDBRANCH   1  14
TORSDOF 8
ENDMDL
