MODEL 1
REMARK VINA RESULT:      -7.8      0.000      0.000
REMARK  Name = 
REMARK  10 active torsions:
REMARK  status: ('A' for Active; 'I' for Inactive)
REMARK    1  A    between atoms: C_1  and  O_2
REMARK    2  A    between atoms: O_2  and  C_3
REMARK    3  A    between atoms: C_6  and  C_7
REMARK    4  A    between atoms: C_10  and  C_11
REMARK    5  A    between atoms: C_14  and  C_15
REMARK    6  A    between atoms: N_17  and  N_18
REMARK    7  A    between atoms: C_19  and  C_20
REMARK    8  A    between atoms: C_24  and  O_25
REMARK    9  A    between atoms: C_30  and  O_31
REMARK   10  A    between atoms: O_31  and  C_32
REMARK                            x       y       z     vdW  Elec       q    Type
REMARK                         _______ _______ _______ _____ _____    ______ ____
ROOT
ATOM      1  C   UNL     1       2.030   7.704  19.560  0.00  0.00    +0.000 A 
ATOM      2  C   UNL     1       1.458   7.719  20.838  0.00  0.00    +0.000 A 
ATOM      3  C   UNL     1       0.591   8.746  21.226  0.00  0.00    +0.000 A 
ATOM      4  C   UNL     1       0.256   9.786  20.344  0.00  0.00    +0.000 A 
ATOM      5  C   UNL     1       0.828   9.778  19.064  0.00  0.00    +0.000 A 
ATOM      6  C   UNL     1       1.712   8.750  18.682  0.00  0.00    +0.000 A 
ENDROOT
BRANCH   1  10
ATOM      7  C   UNL     1       4.217   5.450  17.960  0.00  0.00    +0.000 A 
ATOM      8  N   UNL     1       3.968   4.724  19.030  0.00  0.00    +0.000 NA
ATOM      9  N   UNL     1       3.120   5.464  19.824  0.00  0.00    +0.000 NA
ATOM     10  C   UNL     1       2.881   6.585  19.175  0.00  0.00    +0.000 A 
ATOM     11  O   UNL     1       3.560   6.662  17.985  0.00  0.00    +0.000 OA
BRANCH   7  15
ATOM     12  C   UNL     1       6.602   4.553  14.516  0.00  0.00    +0.000 A 
ATOM     13  C   UNL     1       5.289   4.098  14.612  0.00  0.00    +0.000 A 
ATOM     14  C   UNL     1       4.515   4.394  15.737  0.00  0.00    +0.000 A 
ATOM     15  C   UNL     1       5.040   5.162  16.789  0.00  0.00    +0.000 A 
ATOM     16  C   UNL     1       6.361   5.648  16.679  0.00  0.00    +0.000 A 
ATOM     17  C   UNL     1       7.130   5.332  15.547  0.00  0.00    +0.000 A 
BRANCH  12  19
ATOM     18  C   UNL     1       6.480   3.625  12.328  0.00  0.00    +0.000 C 
ATOM     19  O   UNL     1       7.266   4.175  13.380  0.00  0.00    +0.000 OA
ENDBRANCH  12  19
BRANCH  16  20
ATOM     20  O   UNL     1       6.832   6.398  17.726  0.00  0.00    +0.000 OA
ATOM     21  C   UNL     1       7.746   5.791  18.631  0.00  0.00    +0.000 C 
ENDBRANCH  16  20
ENDBRANCH   7  15
ENDBRANCH   1  10
BRANCH   4  22
ATOM     22  C   UNL     1      -0.705  10.826  20.846  0.00  0.00    +0.000 C 
ATOM     23  O   UNL     1      -1.270  11.548  20.025  0.00  0.00    +0.000 OA
ATOM     24  N   UNL     1      -0.905  10.917  22.219  0.00  0.00    +0.000 N 
ATOM     25  H   UNL     1      -0.430  10.323  22.882  0.00  0.00    +0.000 HD
BRANCH  24  26
ATOM     26  N   UNL     1      -1.789  11.848  22.691  0.00  0.00    +0.000 NA
ATOM     27  C   UNL     1      -1.292  12.947  23.162  0.00  0.00    +0.000 C 
BRANCH  27  28
ATOM     28  C   UNL     1      -2.167  14.011  23.702  0.00  0.00    +0.000 A 
ATOM     29  C   UNL     1      -1.653  14.986  24.563  0.00  0.00    +0.000 A 
ATOM     30  C   UNL     1      -2.485  15.989  25.064  0.00  0.00    +0.000 A 
ATOM     31  C   UNL     1      -3.834  16.019  24.710  0.00  0.00    +0.000 A 
ATOM     32  C   UNL     1      -4.337  15.042  23.852  0.00  0.00    +0.000 A 
ATOM     33  C   UNL     1      -3.517  14.039  23.342  0.00  0.00    +0.000 A 
BRANCH  32  34
ATOM     34  O   UNL     1      -5.650  15.038  23.482  0.00  0.00    +0.000 OA
ATOM     35  H   UNL     1      -5.806  14.278  22.899  0.00  0.00    +0.000 HD
ENDBRANCH  32  34
ENDBRANCH  27  28
ENDBRANCH  24  26
ENDBRANCH   4  22
TORSDOF 8
ENDMDL
MODEL 2
REMARK VINA RESULT:      -7.7      1.258      1.566
REMARK  Name = 
REMARK  10 active torsions:
REMARK  status: ('A' for Active; 'I' for Inactive)
REMARK    1  A    between atoms: C_1  and  O_2
REMARK    2  A    between atoms: O_2  and  C_3
REMARK    3  A    between atoms: C_6  and  C_7
REMARK    4  A    between atoms: C_10  and  C_11
REMARK    5  A    between atoms: C_14  and  C_15
REMARK    6  A    between atoms: N_17  and  N_18
REMARK    7  A    between atoms: C_19  and  C_20
REMARK    8  A    between atoms: C_24  and  O_25
REMARK    9  A    between atoms: C_30  and  O_31
REMARK   10  A    between atoms: O_31  and  C_32
REMARK                            x       y       z     vdW  Elec       q    Type
REMARK                         _______ _______ _______ _____ _____    ______ ____
ROOT
ATOM      1  C   UNL     1       2.630   7.227  18.590  0.00  0.00    +0.000 A 
ATOM      2  C   UNL     1       2.142   7.199  19.902  0.00  0.00    +0.000 A 
ATOM      3  C   UNL     1       1.376   8.255  20.407  0.00  0.00    +0.000 A 
ATOM      4  C   UNL     1       1.061   9.369  19.611  0.00  0.00    +0.000 A 
ATOM      5  C   UNL     1       1.550   9.404  18.298  0.00  0.00    +0.000 A 
ATOM      6  C   UNL     1       2.333   8.345  17.797  0.00  0.00    +0.000 A 
ENDROOT
BRANCH   1  10
ATOM      7  C   UNL     1       4.586   4.953  16.738  0.00  0.00    +0.000 A 
ATOM      8  N   UNL     1       4.290   4.154  17.743  0.00  0.00    +0.000 NA
ATOM      9  N   UNL     1       3.523   4.886  18.621  0.00  0.00    +0.000 NA
ATOM     10  C   UNL     1       3.373   6.080  18.083  0.00  0.00    +0.000 A 
ATOM     11  O   UNL     1       4.038   6.210  16.890  0.00  0.00    +0.000 OA
BRANCH   7  15
ATOM     12  C   UNL     1       6.827   4.184  13.169  0.00  0.00    +0.000 A 
ATOM     13  C   UNL     1       5.460   3.924  13.222  0.00  0.00    +0.000 A 
ATOM     14  C   UNL     1       4.733   4.177  14.388  0.00  0.00    +0.000 A 
ATOM     15  C   UNL     1       5.363   4.707  15.527  0.00  0.00    +0.000 A 
ATOM     16  C   UNL     1       6.743   4.998  15.463  0.00  0.00    +0.000 A 
ATOM     17  C   UNL     1       7.462   4.726  14.288  0.00  0.00    +0.000 A 
BRANCH  12  19
ATOM     18  C   UNL     1       7.186   2.567  11.460  0.00  0.00    +0.000 C 
ATOM     19  O   UNL     1       7.433   3.869  11.982  0.00  0.00    +0.000 OA
ENDBRANCH  12  19
BRANCH  16  20
ATOM     20  O   UNL     1       7.316   5.518  16.596  0.00  0.00    +0.000 OA
ATOM     21  C   UNL     1       7.693   4.621  17.632  0.00  0.00    +0.000 C 
ENDBRANCH  16  20
ENDBRANCH   7  15
ENDBRANCH   1  10
BRANCH   4  22
ATOM     22  C   UNL     1       0.211  10.438  20.237  0.00  0.00    +0.000 C 
ATOM     23  O   UNL     1      -0.829  10.768  19.668  0.00  0.00    +0.000 OA
ATOM     24  N   UNL     1       0.646  10.999  21.433  0.00  0.00    +0.000 N 
ATOM     25  H   UNL     1       1.505  10.723  21.886  0.00  0.00    +0.000 HD
BRANCH  24  26
ATOM     26  N   UNL     1      -0.125  11.961  22.024  0.00  0.00    +0.000 NA
ATOM     27  C   UNL     1      -1.318  11.618  22.390  0.00  0.00    +0.000 C 
BRANCH  27  28
ATOM     28  C   UNL     1      -2.230  12.591  23.031  0.00  0.00    +0.000 A 
ATOM     29  C   UNL     1      -2.052  13.965  22.842  0.00  0.00    +0.000 A 
ATOM     30  C   UNL     1      -2.920  14.876  23.448  0.00  0.00    +0.000 A 
ATOM     31  C   UNL     1      -3.966  14.415  24.249  0.00  0.00    +0.000 A 
ATOM     32  C   UNL     1      -4.134  13.043  24.432  0.00  0.00    +0.000 A 
ATOM     33  C   UNL     1      -3.279  12.126  23.830  0.00  0.00    +0.000 A 
BRANCH  32  34
ATOM     34  O   UNL     1      -5.145  12.556  25.207  0.00  0.00    +0.000 OA
ATOM     35  H   UNL     1      -5.467  11.729  24.814  0.00  0.00    +0.000 HD
ENDBRANCH  32  34
ENDBRANCH  27  28
ENDBRANCH  24  26
ENDBRANCH   4  22
TORSDOF 8
ENDMDL
MODEL 3
REMARK VINA RESULT:      -7.7      1.006      1.653
REMARK  Name = 
REMARK  10 active torsions:
REMARK  status: ('A' for Active; 'I' for Inactive)
REMARK    1  A    between atoms: C_1  and  O_2
REMARK    2  A    between atoms: O_2  and  C_3
REMARK    3  A    between atoms: C_6  and  C_7
REMARK    4  A    between atoms: C_10  and  C_11
REMARK    5  A    between atoms: C_14  and  C_15
REMARK    6  A    between atoms: N_17  and  N_18
REMARK    7  A    between atoms: C_19  and  C_20
REMARK    8  A    between atoms: C_24  and  O_25
REMARK    9  A    between atoms: C_30  and  O_31
REMARK   10  A    between atoms: O_31  and  C_32
REMARK                            x       y       z     vdW  Elec       q    Type
REMARK                         _______ _______ _______ _____ _____    ______ ____
ROOT
ATOM      1  C   UNL     1       2.037   7.573  19.687  0.00  0.00    +0.000 A 
ATOM      2  C   UNL     1       1.785   8.614  18.785  0.00  0.00    +0.000 A 
ATOM      3  C   UNL     1       0.922   9.663  19.121  0.00  0.00    +0.000 A 
ATOM      4  C   UNL     1       0.293   9.712  20.375  0.00  0.00    +0.000 A 
ATOM      5  C   UNL     1       0.539   8.670  21.281  0.00  0.00    +0.000 A 
ATOM      6  C   UNL     1       1.397   7.609  20.934  0.00  0.00    +0.000 A 
ENDROOT
BRANCH   1  10
ATOM      7  C   UNL     1       4.392   5.478  18.107  0.00  0.00    +0.000 A 
ATOM      8  N   UNL     1       4.266   4.791  19.225  0.00  0.00    +0.000 NA
ATOM      9  N   UNL     1       3.375   5.480  20.017  0.00  0.00    +0.000 NA
ATOM     10  C   UNL     1       2.989   6.531  19.321  0.00  0.00    +0.000 A 
ATOM     11  O   UNL     1       3.607   6.613  18.099  0.00  0.00    +0.000 OA
BRANCH   7  15
ATOM     12  C   UNL     1       6.714   4.649  14.604  0.00  0.00    +0.000 A 
ATOM     13  C   UNL     1       5.401   4.198  14.712  0.00  0.00    +0.000 A 
ATOM     14  C   UNL     1       4.647   4.471  15.856  0.00  0.00    +0.000 A 
ATOM     15  C   UNL     1       5.193   5.213  16.917  0.00  0.00    +0.000 A 
ATOM     16  C   UNL     1       6.514   5.696  16.795  0.00  0.00    +0.000 A 
ATOM     17  C   UNL     1       7.263   5.403  15.643  0.00  0.00    +0.000 A 
BRANCH  12  19
ATOM     18  C   UNL     1       7.938   5.348  12.686  0.00  0.00    +0.000 C 
ATOM     19  O   UNL     1       7.357   4.295  13.449  0.00  0.00    +0.000 OA
ENDBRANCH  12  19
BRANCH  16  20
ATOM     20  O   UNL     1       7.007   6.421  17.851  0.00  0.00    +0.000 OA
ATOM     21  C   UNL     1       7.607   7.680  17.580  0.00  0.00    +0.000 C 
ENDBRANCH  16  20
ENDBRANCH   7  15
ENDBRANCH   1  10
BRANCH   4  22
ATOM     22  C   UNL     1      -0.594  10.893  20.649  0.00  0.00    +0.000 C 
ATOM     23  O   UNL     1      -1.145  11.446  19.698  0.00  0.00    +0.000 OA
ATOM     24  N   UNL     1      -0.746  11.300  21.970  0.00  0.00    +0.000 N 
ATOM     25  H   UNL     1      -0.283  10.841  22.741  0.00  0.00    +0.000 HD
BRANCH  24  26
ATOM     26  N   UNL     1      -1.563  12.364  22.238  0.00  0.00    +0.000 NA
ATOM     27  C   UNL     1      -2.693  12.108  22.815  0.00  0.00    +0.000 C 
BRANCH  27  28
ATOM     28  C   UNL     1      -3.648  13.191  23.139  0.00  0.00    +0.000 A 
ATOM     29  C   UNL     1      -4.886  13.265  22.493  0.00  0.00    +0.000 A 
ATOM     30  C   UNL     1      -5.783  14.288  22.808  0.00  0.00    +0.000 A 
ATOM     31  C   UNL     1      -5.442  15.243  23.767  0.00  0.00    +0.000 A 
ATOM     32  C   UNL     1      -4.205  15.161  24.404  0.00  0.00    +0.000 A 
ATOM     33  C   UNL     1      -3.305  14.144  24.102  0.00  0.00    +0.000 A 
BRANCH  32  34
ATOM     34  O   UNL     1      -3.838  16.075  25.348  0.00  0.00    +0.000 OA
ATOM     35  H   UNL     1      -4.175  16.946  25.085  0.00  0.00    +0.000 HD
ENDBRANCH  32  34
ENDBRANCH  27  28
ENDBRANCH  24  26
ENDBRANCH   4  22
TORSDOF 8
ENDMDL
MODEL 4
REMARK VINA RESULT:      -7.6      1.477      1.905
REMARK  Name = 
REMARK  10 active torsions:
REMARK  status: ('A' for Active; 'I' for Inactive)
REMARK    1  A    between atoms: C_1  and  O_2
REMARK    2  A    between atoms: O_2  and  C_3
REMARK    3  A    between atoms: C_6  and  C_7
REMARK    4  A    between atoms: C_10  and  C_11
REMARK    5  A    between atoms: C_14  and  C_15
REMARK    6  A    between atoms: N_17  and  N_18
REMARK    7  A    between atoms: C_19  and  C_20
REMARK    8  A    between atoms: C_24  and  O_25
REMARK    9  A    between atoms: C_30  and  O_31
REMARK   10  A    between atoms: O_31  and  C_32
REMARK                            x       y       z     vdW  Elec       q    Type
REMARK                         _______ _______ _______ _____ _____    ______ ____
ROOT
ATOM      1  C   UNL     1       2.693   6.009  19.312  0.00  0.00    +0.000 A 
ATOM      2  C   UNL     1       2.021   5.593  20.467  0.00  0.00    +0.000 A 
ATOM      3  C   UNL     1       1.244   6.489  21.210  0.00  0.00    +0.000 A 
ATOM      4  C   UNL     1       1.104   7.829  20.813  0.00  0.00    +0.000 A 
ATOM      5  C   UNL     1       1.777   8.253  19.659  0.00  0.00    +0.000 A 
ATOM      6  C   UNL     1       2.570   7.351  18.922  0.00  0.00    +0.000 A 
ENDROOT
BRANCH   1  10
ATOM      7  C   UNL     1       4.644   4.280  16.938  0.00  0.00    +0.000 A 
ATOM      8  N   UNL     1       4.381   3.259  17.729  0.00  0.00    +0.000 NA
ATOM      9  N   UNL     1       3.622   3.747  18.769  0.00  0.00    +0.000 NA
ATOM     10  C   UNL     1       3.443   5.030  18.534  0.00  0.00    +0.000 A 
ATOM     11  O   UNL     1       4.080   5.454  17.394  0.00  0.00    +0.000 OA
BRANCH   7  15
ATOM     12  C   UNL     1       6.829   4.417  13.256  0.00  0.00    +0.000 A 
ATOM     13  C   UNL     1       5.560   3.844  13.311  0.00  0.00    +0.000 A 
ATOM     14  C   UNL     1       4.852   3.802  14.515  0.00  0.00    +0.000 A 
ATOM     15  C   UNL     1       5.397   4.344  15.690  0.00  0.00    +0.000 A 
ATOM     16  C   UNL     1       6.670   4.951  15.628  0.00  0.00    +0.000 A 
ATOM     17  C   UNL     1       7.376   4.974  14.413  0.00  0.00    +0.000 A 
BRANCH  12  19
ATOM     18  C   UNL     1       7.318   3.155  11.298  0.00  0.00    +0.000 C 
ATOM     19  O   UNL     1       7.433   4.372  12.029  0.00  0.00    +0.000 OA
ENDBRANCH  12  19
BRANCH  16  20
ATOM     20  O   UNL     1       7.164   5.472  16.797  0.00  0.00    +0.000 OA
ATOM     21  C   UNL     1       7.782   4.585  17.720  0.00  0.00    +0.000 C 
ENDBRANCH  16  20
ENDBRANCH   7  15
ENDBRANCH   1  10
BRANCH   4  22
ATOM     22  C   UNL     1       0.227   8.705  21.663  0.00  0.00    +0.000 C 
ATOM     23  O   UNL     1      -0.884   8.286  21.986  0.00  0.00    +0.000 OA
ATOM     24  N   UNL     1       0.721   9.949  22.041  0.00  0.00    +0.000 N 
ATOM     25  H   UNL     1       1.633  10.283  21.764  0.00  0.00    +0.000 HD
BRANCH  24  26
ATOM     26  N   UNL     1      -0.058  10.751  22.828  0.00  0.00    +0.000 NA
ATOM     27  C   UNL     1      -0.715  11.697  22.238  0.00  0.00    +0.000 C 
BRANCH  27  28
ATOM     28  C   UNL     1      -1.580  12.621  23.005  0.00  0.00    +0.000 A 
ATOM     29  C   UNL     1      -1.177  13.939  23.242  0.00  0.00    +0.000 A 
ATOM     30  C   UNL     1      -2.002  14.806  23.963  0.00  0.00    +0.000 A 
ATOM     31  C   UNL     1      -3.228  14.355  24.454  0.00  0.00    +0.000 A 
ATOM     32  C   UNL     1      -3.619  13.039  24.213  0.00  0.00    +0.000 A 
ATOM     33  C   UNL     1      -2.809  12.167  23.492  0.00  0.00    +0.000 A 
BRANCH  32  34
ATOM     34  O   UNL     1      -4.811  12.563  24.675  0.00  0.00    +0.000 OA
ATOM     35  H   UNL     1      -5.345  13.311  24.985  0.00  0.00    +0.000 HD
ENDBRANCH  32  34
ENDBRANCH  27  28
ENDBRANCH  24  26
ENDBRANCH   4  22
TORSDOF 8
ENDMDL
MODEL 5
REMARK VINA RESULT:      -7.6      1.455      2.375
REMARK  Name = 
REMARK  10 active torsions:
REMARK  status: ('A' for Active; 'I' for Inactive)
REMARK    1  A    between atoms: C_1  and  O_2
REMARK    2  A    between atoms: O_2  and  C_3
REMARK    3  A    between atoms: C_6  and  C_7
REMARK    4  A    between atoms: C_10  and  C_11
REMARK    5  A    between atoms: C_14  and  C_15
REMARK    6  A    between atoms: N_17  and  N_18
REMARK    7  A    between atoms: C_19  and  C_20
REMARK    8  A    between atoms: C_24  and  O_25
REMARK    9  A    between atoms: C_30  and  O_31
REMARK   10  A    between atoms: O_31  and  C_32
REMARK                            x       y       z     vdW  Elec       q    Type
REMARK                         _______ _______ _______ _____ _____    ______ ____
ROOT
ATOM      1  C   UNL     1       1.086   8.235  20.714  0.00  0.00    +0.000 A 
ATOM      2  C   UNL     1       1.126   9.371  19.898  0.00  0.00    +0.000 A 
ATOM      3  C   UNL     1       0.519  10.566  20.298  0.00  0.00    +0.000 A 
ATOM      4  C   UNL     1      -0.139  10.668  21.535  0.00  0.00    +0.000 A 
ATOM      5  C   UNL     1      -0.185   9.531  22.355  0.00  0.00    +0.000 A 
ATOM      6  C   UNL     1       0.416   8.326  21.942  0.00  0.00    +0.000 A 
ENDROOT
BRANCH   1  10
ATOM      7  C   UNL     1       3.046   5.800  19.083  0.00  0.00    +0.000 A 
ATOM      8  N   UNL     1       2.565   5.029  20.037  0.00  0.00    +0.000 NA
ATOM      9  N   UNL     1       1.765   5.825  20.826  0.00  0.00    +0.000 NA
ATOM     10  C   UNL     1       1.783   7.027  20.287  0.00  0.00    +0.000 A 
ATOM     11  O   UNL     1       2.594   7.100  19.182  0.00  0.00    +0.000 OA
BRANCH   7  15
ATOM     12  C   UNL     1       5.659   4.942  15.799  0.00  0.00    +0.000 A 
ATOM     13  C   UNL     1       5.664   6.196  16.404  0.00  0.00    +0.000 A 
ATOM     14  C   UNL     1       4.810   6.471  17.475  0.00  0.00    +0.000 A 
ATOM     15  C   UNL     1       3.937   5.488  17.970  0.00  0.00    +0.000 A 
ATOM     16  C   UNL     1       3.954   4.208  17.375  0.00  0.00    +0.000 A 
ATOM     17  C   UNL     1       4.809   3.950  16.291  0.00  0.00    +0.000 A 
BRANCH  12  19
ATOM     18  C   UNL     1       6.103   3.950  13.681  0.00  0.00    +0.000 C 
ATOM     19  O   UNL     1       6.519   4.803  14.743  0.00  0.00    +0.000 OA
ENDBRANCH  12  19
BRANCH  16  20
ATOM     20  O   UNL     1       3.089   3.276  17.892  0.00  0.00    +0.000 OA
ATOM     21  C   UNL     1       3.531   1.928  17.987  0.00  0.00    +0.000 C 
ENDBRANCH  16  20
ENDBRANCH   7  15
ENDBRANCH   1  10
BRANCH   4  22
ATOM     22  C   UNL     1      -0.736  12.001  21.885  0.00  0.00    +0.000 C 
ATOM     23  O   UNL     1      -0.692  12.901  21.047  0.00  0.00    +0.000 OA
ATOM     24  N   UNL     1      -1.310  12.147  23.143  0.00  0.00    +0.000 N 
ATOM     25  H   UNL     1      -1.334  11.401  23.824  0.00  0.00    +0.000 HD
BRANCH  24  26
ATOM     26  N   UNL     1      -1.873  13.350  23.471  0.00  0.00    +0.000 NA
ATOM     27  C   UNL     1      -3.149  13.363  23.688  0.00  0.00    +0.000 C 
BRANCH  27  28
ATOM     28  C   UNL     1      -3.850  14.618  24.042  0.00  0.00    +0.000 A 
ATOM     29  C   UNL     1      -3.180  15.639  24.723  0.00  0.00    +0.000 A 
ATOM     30  C   UNL     1      -3.848  16.821  25.049  0.00  0.00    +0.000 A 
ATOM     31  C   UNL     1      -5.189  16.984  24.699  0.00  0.00    +0.000 A 
ATOM     32  C   UNL     1      -5.848  15.959  24.021  0.00  0.00    +0.000 A 
ATOM     33  C   UNL     1      -5.192  14.778  23.687  0.00  0.00    +0.000 A 
BRANCH  32  34
ATOM     34  O   UNL     1      -7.158  16.082  23.661  0.00  0.00    +0.000 OA
ATOM     35  H   UNL     1      -7.474  15.222  23.342  0.00  0.00    +0.000 HD
ENDBRANCH  32  34
ENDBRANCH  27  28
ENDBRANCH  24  26
ENDBRANCH   4  22
TORSDOF 8
ENDMDL
MODEL 6
REMARK VINA RESULT:      -7.6      1.469      1.546
REMARK  Name = 
REMARK  10 active torsions:
REMARK  status: ('A' for Active; 'I' for Inactive)
REMARK    1  A    between atoms: C_1  and  O_2
REMARK    2  A    between atoms: O_2  and  C_3
REMARK    3  A    between atoms: C_6  and  C_7
REMARK    4  A    between atoms: C_10  and  C_11
REMARK    5  A    between atoms: C_14  and  C_15
REMARK    6  A    between atoms: N_17  and  N_18
REMARK    7  A    between atoms: C_19  and  C_20
REMARK    8  A    between atoms: C_24  and  O_25
REMARK    9  A    between atoms: C_30  and  O_31
REMARK   10  A    between atoms: O_31  and  C_32
REMARK                            x       y       z     vdW  Elec       q    Type
REMARK                         _______ _______ _______ _____ _____    ______ ____
ROOT
ATOM      1  C   UNL     1       1.843   7.808  20.022  0.00  0.00    +0.000 A 
ATOM      2  C   UNL     1       1.466   7.892  21.368  0.00  0.00    +0.000 A 
ATOM      3  C   UNL     1       0.752   8.996  21.846  0.00  0.00    +0.000 A 
ATOM      4  C   UNL     1       0.380  10.047  20.992  0.00  0.00    +0.000 A 
ATOM      5  C   UNL     1       0.758   9.969  19.644  0.00  0.00    +0.000 A 
ATOM      6  C   UNL     1       1.489   8.863  19.169  0.00  0.00    +0.000 A 
ENDROOT
BRANCH   1  10
ATOM      7  C   UNL     1       3.908   5.453  18.404  0.00  0.00    +0.000 A 
ATOM      8  N   UNL     1       3.236   4.608  19.160  0.00  0.00    +0.000 NA
ATOM      9  N   UNL     1       2.362   5.359  19.915  0.00  0.00    +0.000 NA
ATOM     10  C   UNL     1       2.533   6.613  19.551  0.00  0.00    +0.000 A 
ATOM     11  O   UNL     1       3.517   6.760  18.605  0.00  0.00    +0.000 OA
BRANCH   7  15
ATOM     12  C   UNL     1       6.926   4.727  15.452  0.00  0.00    +0.000 A 
ATOM     13  C   UNL     1       5.611   4.993  15.077  0.00  0.00    +0.000 A 
ATOM     14  C   UNL     1       4.631   5.229  16.044  0.00  0.00    +0.000 A 
ATOM     15  C   UNL     1       4.950   5.214  17.411  0.00  0.00    +0.000 A 
ATOM     16  C   UNL     1       6.289   4.973  17.790  0.00  0.00    +0.000 A 
ATOM     17  C   UNL     1       7.261   4.725  16.807  0.00  0.00    +0.000 A 
BRANCH  12  19
ATOM     18  C   UNL     1       7.746   5.390  13.318  0.00  0.00    +0.000 C 
ATOM     19  O   UNL     1       7.788   4.484  14.417  0.00  0.00    +0.000 OA
ENDBRANCH  12  19
BRANCH  16  20
ATOM     20  O   UNL     1       6.558   4.971  19.136  0.00  0.00    +0.000 OA
ATOM     21  C   UNL     1       7.671   5.725  19.600  0.00  0.00    +0.000 C 
ENDBRANCH  16  20
ENDBRANCH   7  15
ENDBRANCH   1  10
BRANCH   4  22
ATOM     22  C   UNL     1      -0.408  11.174  21.597  0.00  0.00    +0.000 C 
ATOM     23  O   UNL     1      -0.183  11.485  22.766  0.00  0.00    +0.000 OA
ATOM     24  N   UNL     1      -1.354  11.808  20.798  0.00  0.00    +0.000 N 
ATOM     25  H   UNL     1      -1.533  11.538  19.842  0.00  0.00    +0.000 HD
BRANCH  24  26
ATOM     26  N   UNL     1      -2.068  12.847  21.329  0.00  0.00    +0.000 NA
ATOM     27  C   UNL     1      -3.131  12.547  22.003  0.00  0.00    +0.000 C 
BRANCH  27  28
ATOM     28  C   UNL     1      -3.974  13.602  22.610  0.00  0.00    +0.000 A 
ATOM     29  C   UNL     1      -3.586  14.945  22.549  0.00  0.00    +0.000 A 
ATOM     30  C   UNL     1      -4.389  15.934  23.121  0.00  0.00    +0.000 A 
ATOM     31  C   UNL     1      -5.579  15.583  23.759  0.00  0.00    +0.000 A 
ATOM     32  C   UNL     1      -5.956  14.242  23.816  0.00  0.00    +0.000 A 
ATOM     33  C   UNL     1      -5.167  13.248  23.246  0.00  0.00    +0.000 A 
BRANCH  32  34
ATOM     34  O   UNL     1      -7.113  13.861  24.430  0.00  0.00    +0.000 OA
ATOM     35  H   UNL     1      -7.553  14.651  24.782  0.00  0.00    +0.000 HD
ENDBRANCH  32  34
ENDBRANCH  27  28
ENDBRANCH  24  26
ENDBRANCH   4  22
TORSDOF 8
ENDMDL
MODEL 7
REMARK VINA RESULT:      -7.6      1.446      2.437
REMARK  Name = 
REMARK  10 active torsions:
REMARK  status: ('A' for Active; 'I' for Inactive)
REMARK    1  A    between atoms: C_1  and  O_2
REMARK    2  A    between atoms: O_2  and  C_3
REMARK    3  A    between atoms: C_6  and  C_7
REMARK    4  A    between atoms: C_10  and  C_11
REMARK    5  A    between atoms: C_14  and  C_15
REMARK    6  A    between atoms: N_17  and  N_18
REMARK    7  A    between atoms: C_19  and  C_20
REMARK    8  A    between atoms: C_24  and  O_25
REMARK    9  A    between atoms: C_30  and  O_31
REMARK   10  A    between atoms: O_31  and  C_32
REMARK                            x       y       z     vdW  Elec       q    Type
REMARK                         _______ _______ _______ _____ _____    ______ ____
ROOT
ATOM      1  C   UNL     1       1.391   8.142  20.520  0.00  0.00    +0.000 A 
ATOM      2  C   UNL     1       1.241   9.218  19.636  0.00  0.00    +0.000 A 
ATOM      3  C   UNL     1       0.567  10.380  20.025  0.00  0.00    +0.000 A 
ATOM      4  C   UNL     1       0.032  10.512  21.317  0.00  0.00    +0.000 A 
ATOM      5  C   UNL     1       0.176   9.437  22.206  0.00  0.00    +0.000 A 
ATOM      6  C   UNL     1       0.842   8.262  21.806  0.00  0.00    +0.000 A 
ENDROOT
BRANCH   1  10
ATOM      7  C   UNL     1       3.546   5.837  18.950  0.00  0.00    +0.000 A 
ATOM      8  N   UNL     1       3.000   5.007  19.815  0.00  0.00    +0.000 NA
ATOM      9  N   UNL     1       2.113   5.744  20.568  0.00  0.00    +0.000 NA
ATOM     10  C   UNL     1       2.152   6.973  20.096  0.00  0.00    +0.000 A 
ATOM     11  O   UNL     1       3.056   7.120  19.075  0.00  0.00    +0.000 OA
BRANCH   7  15
ATOM     12  C   UNL     1       6.475   5.206  15.888  0.00  0.00    +0.000 A 
ATOM     13  C   UNL     1       6.608   6.254  16.796  0.00  0.00    +0.000 A 
ATOM     14  C   UNL     1       5.650   6.455  17.793  0.00  0.00    +0.000 A 
ATOM     15  C   UNL     1       4.540   5.601  17.907  0.00  0.00    +0.000 A 
ATOM     16  C   UNL     1       4.422   4.521  17.006  0.00  0.00    +0.000 A 
ATOM     17  C   UNL     1       5.387   4.339  16.001  0.00  0.00    +0.000 A 
BRANCH  12  19
ATOM     18  C   UNL     1       7.057   4.803  13.616  0.00  0.00    +0.000 C 
ATOM     19  O   UNL     1       7.461   5.129  14.942  0.00  0.00    +0.000 OA
ENDBRANCH  12  19
BRANCH  16  20
ATOM     20  O   UNL     1       3.326   3.709  17.156  0.00  0.00    +0.000 OA
ATOM     21  C   UNL     1       3.526   2.399  17.670  0.00  0.00    +0.000 C 
ENDBRANCH  16  20
ENDBRANCH   7  15
ENDBRANCH   1  10
BRANCH   4  22
ATOM     22  C   UNL     1      -0.649  11.809  21.646  0.00  0.00    +0.000 C 
ATOM     23  O   UNL     1      -0.778  12.647  20.753  0.00  0.00    +0.000 OA
ATOM     24  N   UNL     1      -1.101  11.995  22.948  0.00  0.00    +0.000 N 
ATOM     25  H   UNL     1      -0.983  11.302  23.672  0.00  0.00    +0.000 HD
BRANCH  24  26
ATOM     26  N   UNL     1      -1.739  13.165  23.259  0.00  0.00    +0.000 NA
ATOM     27  C   UNL     1      -3.004  13.095  23.519  0.00  0.00    +0.000 C 
BRANCH  27  28
ATOM     28  C   UNL     1      -3.783  14.307  23.860  0.00  0.00    +0.000 A 
ATOM     29  C   UNL     1      -5.142  14.391  23.543  0.00  0.00    +0.000 A 
ATOM     30  C   UNL     1      -5.870  15.537  23.872  0.00  0.00    +0.000 A 
ATOM     31  C   UNL     1      -5.239  16.603  24.515  0.00  0.00    +0.000 A 
ATOM     32  C   UNL     1      -3.883  16.509  24.825  0.00  0.00    +0.000 A 
ATOM     33  C   UNL     1      -3.148  15.371  24.506  0.00  0.00    +0.000 A 
BRANCH  32  34
ATOM     34  O   UNL     1      -3.233  17.530  25.454  0.00  0.00    +0.000 OA
ATOM     35  H   UNL     1      -2.574  17.900  24.846  0.00  0.00    +0.000 HD
ENDBRANCH  32  34
ENDBRANCH  27  28
ENDBRANCH  24  26
ENDBRANCH   4  22
TORSDOF 8
ENDMDL
MODEL 8
REMARK VINA RESULT:      -7.5      1.276      2.092
REMARK  Name = 
REMARK  10 active torsions:
REMARK  status: ('A' for Active; 'I' for Inactive)
REMARK    1  A    between atoms: C_1  and  O_2
REMARK    2  A    between atoms: O_2  and  C_3
REMARK    3  A    between atoms: C_6  and  C_7
REMARK    4  A    between atoms: C_10  and  C_11
REMARK    5  A    between atoms: C_14  and  C_15
REMARK    6  A    between atoms: N_17  and  N_18
REMARK    7  A    between atoms: C_19  and  C_20
REMARK    8  A    between atoms: C_24  and  O_25
REMARK    9  A    between atoms: C_30  and  O_31
REMARK   10  A    between atoms: O_31  and  C_32
REMARK                            x       y       z     vdW  Elec       q    Type
REMARK                         _______ _______ _______ _____ _____    ______ ____
ROOT
ATOM      1  C   UNL     1       1.273   8.571  20.152  0.00  0.00    +0.000 A 
ATOM      2  C   UNL     1       0.750   8.817  21.428  0.00  0.00    +0.000 A 
ATOM      3  C   UNL     1      -0.024   9.955  21.681  0.00  0.00    +0.000 A 
ATOM      4  C   UNL     1      -0.311  10.879  20.663  0.00  0.00    +0.000 A 
ATOM      5  C   UNL     1       0.213  10.640  19.385  0.00  0.00    +0.000 A 
ATOM      6  C   UNL     1       1.003   9.501  19.137  0.00  0.00    +0.000 A 
ENDROOT
BRANCH   1  10
ATOM      7  C   UNL     1       3.408   6.032  18.962  0.00  0.00    +0.000 A 
ATOM      8  N   UNL     1       2.853   5.350  19.943  0.00  0.00    +0.000 NA
ATOM      9  N   UNL     1       1.973   6.203  20.571  0.00  0.00    +0.000 NA
ATOM     10  C   UNL     1       2.023   7.344  19.915  0.00  0.00    +0.000 A 
ATOM     11  O   UNL     1       2.930   7.324  18.886  0.00  0.00    +0.000 OA
BRANCH   7  15
ATOM     12  C   UNL     1       6.342   4.909  16.049  0.00  0.00    +0.000 A 
ATOM     13  C   UNL     1       6.569   5.979  16.913  0.00  0.00    +0.000 A 
ATOM     14  C   UNL     1       5.608   6.340  17.862  0.00  0.00    +0.000 A 
ATOM     15  C   UNL     1       4.401   5.630  17.971  0.00  0.00    +0.000 A 
ATOM     16  C   UNL     1       4.185   4.528  17.115  0.00  0.00    +0.000 A 
ATOM     17  C   UNL     1       5.154   4.184  16.158  0.00  0.00    +0.000 A 
BRANCH  12  19
ATOM     18  C   UNL     1       6.967   4.584  13.776  0.00  0.00    +0.000 C 
ATOM     19  O   UNL     1       7.343   4.670  15.147  0.00  0.00    +0.000 OA
ENDBRANCH  12  19
BRANCH  16  20
ATOM     20  O   UNL     1       2.996   3.859  17.258  0.00  0.00    +0.000 OA
ATOM     21  C   UNL     1       3.035   2.495  17.658  0.00  0.00    +0.000 C 
ENDBRANCH  16  20
ENDBRANCH   7  15
ENDBRANCH   1  10
BRANCH   4  22
ATOM     22  C   UNL     1      -1.172  12.054  21.030  0.00  0.00    +0.000 C 
ATOM     23  O   UNL     1      -1.071  13.085  20.366  0.00  0.00    +0.000 OA
ATOM     24  N   UNL     1      -2.043  11.912  22.105  0.00  0.00    +0.000 N 
ATOM     25  H   UNL     1      -2.112  11.062  22.645  0.00  0.00    +0.000 HD
BRANCH  24  26
ATOM     26  N   UNL     1      -2.846  12.967  22.441  0.00  0.00    +0.000 NA
ATOM     27  C   UNL     1      -2.573  13.587  23.544  0.00  0.00    +0.000 C 
BRANCH  27  28
ATOM     28  C   UNL     1      -3.388  14.737  23.996  0.00  0.00    +0.000 A 
ATOM     29  C   UNL     1      -2.821  15.745  24.782  0.00  0.00    +0.000 A 
ATOM     30  C   UNL     1      -3.597  16.829  25.200  0.00  0.00    +0.000 A 
ATOM     31  C   UNL     1      -4.943  16.904  24.838  0.00  0.00    +0.000 A 
ATOM     32  C   UNL     1      -5.498  15.893  24.056  0.00  0.00    +0.000 A 
ATOM     33  C   UNL     1      -4.735  14.811  23.629  0.00  0.00    +0.000 A 
BRANCH  32  34
ATOM     34  O   UNL     1      -6.809  15.933  23.682  0.00  0.00    +0.000 OA
ATOM     35  H   UNL     1      -7.275  16.570  24.246  0.00  0.00    +0.000 HD
ENDBRANCH  32  34
ENDBRANCH  27  28
ENDBRANCH  24  26
ENDBRANCH   4  22
TORSDOF 8
ENDMDL
MODEL 9
REMARK VINA RESULT:      -7.5      1.623      2.625
REMARK  Name = 
REMARK  10 active torsions:
REMARK  status: ('A' for Active; 'I' for Inactive)
REMARK    1  A    between atoms: C_1  and  O_2
REMARK    2  A    between atoms: O_2  and  C_3
REMARK    3  A    between atoms: C_6  and  C_7
REMARK    4  A    between atoms: C_10  and  C_11
REMARK    5  A    between atoms: C_14  and  C_15
REMARK    6  A    between atoms: N_17  and  N_18
REMARK    7  A    between atoms: C_19  and  C_20
REMARK    8  A    between atoms: C_24  and  O_25
REMARK    9  A    between atoms: C_30  and  O_31
REMARK   10  A    between atoms: O_31  and  C_32
REMARK                            x       y       z     vdW  Elec       q    Type
REMARK                         _______ _______ _______ _____ _____    ______ ____
ROOT
ATOM      1  C   UNL     1       1.200   8.595  20.305  0.00  0.00    +0.000 A 
ATOM      2  C   UNL     1       0.691   8.815  21.591  0.00  0.00    +0.000 A 
ATOM      3  C   UNL     1      -0.034   9.975  21.888  0.00  0.00    +0.000 A 
ATOM      4  C   UNL     1      -0.286  10.946  20.905  0.00  0.00    +0.000 A 
ATOM      5  C   UNL     1       0.225  10.732  19.617  0.00  0.00    +0.000 A 
ATOM      6  C   UNL     1       0.967   9.570  19.325  0.00  0.00    +0.000 A 
ENDROOT
BRANCH   1  10
ATOM      7  C   UNL     1       3.187   5.999  18.985  0.00  0.00    +0.000 A 
ATOM      8  N   UNL     1       2.668   5.329  19.994  0.00  0.00    +0.000 NA
ATOM      9  N   UNL     1       1.851   6.204  20.675  0.00  0.00    +0.000 NA
ATOM     10  C   UNL     1       1.898   7.347  20.021  0.00  0.00    +0.000 A 
ATOM     11  O   UNL     1       2.744   7.305  18.942  0.00  0.00    +0.000 OA
BRANCH   7  15
ATOM     12  C   UNL     1       5.907   4.805  15.899  0.00  0.00    +0.000 A 
ATOM     13  C   UNL     1       6.116   5.980  16.618  0.00  0.00    +0.000 A 
ATOM     14  C   UNL     1       5.226   6.364  17.624  0.00  0.00    +0.000 A 
ATOM     15  C   UNL     1       4.109   5.572  17.938  0.00  0.00    +0.000 A 
ATOM     16  C   UNL     1       3.913   4.367  17.229  0.00  0.00    +0.000 A 
ATOM     17  C   UNL     1       4.810   4.000  16.212  0.00  0.00    +0.000 A 
BRANCH  12  19
ATOM     18  C   UNL     1       6.345   3.978  13.711  0.00  0.00    +0.000 C 
ATOM     19  O   UNL     1       6.830   4.551  14.921  0.00  0.00    +0.000 OA
ENDBRANCH  12  19
BRANCH  16  20
ATOM     20  O   UNL     1       2.813   3.622  17.570  0.00  0.00    +0.000 OA
ATOM     21  C   UNL     1       3.003   2.248  17.881  0.00  0.00    +0.000 C 
ENDBRANCH  16  20
ENDBRANCH   7  15
ENDBRANCH   1  10
BRANCH   4  22
ATOM     22  C   UNL     1      -1.096  12.142  21.317  0.00  0.00    +0.000 C 
ATOM     23  O   UNL     1      -0.893  13.213  20.746  0.00  0.00    +0.000 OA
ATOM     24  N   UNL     1      -2.038  11.973  22.326  0.00  0.00    +0.000 N 
ATOM     25  H   UNL     1      -2.190  11.089  22.791  0.00  0.00    +0.000 HD
BRANCH  24  26
ATOM     26  N   UNL     1      -2.796  13.048  22.702  0.00  0.00    +0.000 NA
ATOM     27  C   UNL     1      -4.066  12.986  22.462  0.00  0.00    +0.000 C 
BRANCH  27  28
ATOM     28  C   UNL     1      -4.967  14.102  22.825  0.00  0.00    +0.000 A 
ATOM     29  C   UNL     1      -6.166  14.302  22.133  0.00  0.00    +0.000 A 
ATOM     30  C   UNL     1      -7.013  15.355  22.485  0.00  0.00    +0.000 A 
ATOM     31  C   UNL     1      -6.661  16.214  23.527  0.00  0.00    +0.000 A 
ATOM     32  C   UNL     1      -5.464  16.006  24.210  0.00  0.00    +0.000 A 
ATOM     33  C   UNL     1      -4.614  14.958  23.872  0.00  0.00    +0.000 A 
BRANCH  32  34
ATOM     34  O   UNL     1      -5.087  16.824  25.235  0.00  0.00    +0.000 OA
ATOM     35  H   UNL     1      -4.122  16.782  25.328  0.00  0.00    +0.000 HD
ENDBRANCH  32  34
ENDBRANCH  27  28
ENDBRANCH  24  26
ENDBRANCH   4  22
TORSDOF 8
ENDMDL
