MODEL 1
REMARK VINA RESULT:      -7.8      0.000      0.000
REMARK  Name = 
REMARK  9 active torsions:
REMARK  status: ('A' for Active; 'I' for Inactive)
REMARK    1  A    between atoms: C_1  and  C_2
REMARK    2  A    between atoms: C_2  and  C_3
REMARK    3  A    between atoms: C_3  and  O_4
REMARK    4  A    between atoms: C_16  and  C_17
REMARK    5  A    between atoms: C_17  and  C_18
REMARK    6  A    between atoms: C_18  and  O_20
REMARK    7  A    between atoms: O_20  and  C_21
REMARK    8  A    between atoms: C_21  and  C_22
REMARK    9  A    between atoms: C_22  and  O_23
REMARK                            x       y       z     vdW  Elec       q    Type
REMARK                         _______ _______ _______ _____ _____    ______ ____
ROOT
ATOM      1  C   UNL     1       5.461   5.137  15.631  0.00  0.00    +0.000 C 
ATOM      2  C   UNL     1       6.901   4.580  15.990  0.00  0.00    +0.000 C 
ATOM      3  O   UNL     1       7.976   4.847  15.432  0.00  0.00    +0.000 OA
ATOM      4  O   UNL     1       6.912   3.905  17.151  0.00  0.00    +0.000 OA
ATOM      5  C   UNL     1       6.949   4.933  18.126  0.00  0.00    +0.000 C 
ATOM      6  C   UNL     1       5.691   5.724  18.023  0.00  0.00    +0.000 A 
ATOM      7  C   UNL     1       5.111   6.154  16.852  0.00  0.00    +0.000 A 
ATOM      8  C   UNL     1       3.951   7.134  17.140  0.00  0.00    +0.000 A 
ATOM      9  C   UNL     1       3.267   7.073  18.336  0.00  0.00    +0.000 A 
ATOM     10  N   UNL     1       3.517   5.921  19.077  0.00  0.00    +0.000 N 
ATOM     11  C   UNL     1       4.680   5.219  19.006  0.00  0.00    +0.000 A 
ATOM     12  O   UNL     1       4.915   4.223  19.688  0.00  0.00    +0.000 OA
ATOM     13  C   UNL     1       2.392   5.540  19.927  0.00  0.00    +0.000 C 
ATOM     14  C   UNL     1       1.638   6.829  20.025  0.00  0.00    +0.000 A 
ATOM     15  C   UNL     1       0.658   7.117  20.959  0.00  0.00    +0.000 A 
ATOM     16  C   UNL     1       0.348   8.439  21.209  0.00  0.00    +0.000 A 
ATOM     17  C   UNL     1      -0.595   8.715  22.230  0.00  0.00    +0.000 A 
ATOM     18  C   UNL     1      -0.846  10.014  22.629  0.00  0.00    +0.000 A 
ATOM     19  C   UNL     1      -0.108  11.025  22.029  0.00  0.00    +0.000 A 
ATOM     20  C   UNL     1       0.813  10.734  20.988  0.00  0.00    +0.000 A 
ATOM     21  C   UNL     1       1.065   9.434  20.489  0.00  0.00    +0.000 A 
ATOM     22  N   UNL     1       1.948   9.112  19.434  0.00  0.00    +0.000 NA
ATOM     23  C   UNL     1       2.185   7.796  19.176  0.00  0.00    +0.000 A 
ENDROOT
BRANCH   1  25
ATOM     24  C   UNL     1       5.572   3.884  13.154  0.00  0.00    +0.000 C 
ATOM     25  C   UNL     1       5.462   5.154  14.029  0.00  0.00    +0.000 C 
ENDBRANCH   1  25
BRANCH   1  26
ATOM     26  O   UNL     1       4.416   4.145  15.893  0.00  0.00    +0.000 OA
ATOM     27  H   UNL     1       4.218   3.665  15.072  0.00  0.00    +0.000 HD
ENDBRANCH   1  26
BRANCH  13  28
ATOM     28  C   UNL     1       2.714   4.886  21.276  0.00  0.00    +0.000 C 
BRANCH  28  29
ATOM     29  C   UNL     1       2.211   3.468  21.387  0.00  0.00    +0.000 C 
ATOM     30  O   UNL     1       2.428   2.694  22.306  0.00  0.00    +0.000 OA
BRANCH  29  31
ATOM     31  O   UNL     1       1.491   3.149  20.273  0.00  0.00    +0.000 OA
BRANCH  31  32
ATOM     32  C   UNL     1       1.947   1.966  19.593  0.00  0.00    +0.000 C 
BRANCH  32  33
ATOM     33  C   UNL     1       2.419   2.242  18.166  0.00  0.00    +0.000 C 
BRANCH  33  34
ATOM     34  O   UNL     1       3.828   2.053  18.065  0.00  0.00    +0.000 OA
ATOM     35  H   UNL     1       3.958   1.194  17.626  0.00  0.00    +0.000 HD
ENDBRANCH  33  34
ENDBRANCH  32  33
ENDBRANCH  31  32
ENDBRANCH  29  31
ENDBRANCH  28  29
ENDBRANCH  13  28
TORSDOF 8
ENDMDL
MODEL 2
REMARK VINA RESULT:      -6.7      1.340      1.620
REMARK  Name = 
REMARK  9 active torsions:
REMARK  status: ('A' for Active; 'I' for Inactive)
REMARK    1  A    between atoms: C_1  and  C_2
REMARK    2  A    between atoms: C_2  and  C_3
REMARK    3  A    between atoms: C_3  and  O_4
REMARK    4  A    between atoms: C_16  and  C_17
REMARK    5  A    between atoms: C_17  and  C_18
REMARK    6  A    between atoms: C_18  and  O_20
REMARK    7  A    between atoms: O_20  and  C_21
REMARK    8  A    between atoms: C_21  and  C_22
REMARK    9  A    between atoms: C_22  and  O_23
REMARK                            x       y       z     vdW  Elec       q    Type
REMARK                         _______ _______ _______ _____ _____    ______ ____
ROOT
ATOM      1  C   UNL     1       5.838   5.016  15.805  0.00  0.00    +0.000 C 
ATOM      2  C   UNL     1       7.071   4.393  16.583  0.00  0.00    +0.000 C 
ATOM      3  O   UNL     1       8.264   4.403  16.243  0.00  0.00    +0.000 OA
ATOM      4  O   UNL     1       6.745   3.999  17.825  0.00  0.00    +0.000 OA
ATOM      5  C   UNL     1       6.752   5.209  18.563  0.00  0.00    +0.000 C 
ATOM      6  C   UNL     1       5.681   6.094  18.025  0.00  0.00    +0.000 A 
ATOM      7  C   UNL     1       5.421   6.314  16.692  0.00  0.00    +0.000 A 
ATOM      8  C   UNL     1       4.399   7.459  16.513  0.00  0.00    +0.000 A 
ATOM      9  C   UNL     1       3.491   7.746  17.510  0.00  0.00    +0.000 A 
ATOM     10  N   UNL     1       3.403   6.769  18.498  0.00  0.00    +0.000 N 
ATOM     11  C   UNL     1       4.429   5.942  18.832  0.00  0.00    +0.000 A 
ATOM     12  O   UNL     1       4.362   5.104  19.730  0.00  0.00    +0.000 OA
ATOM     13  C   UNL     1       2.085   6.720  19.129  0.00  0.00    +0.000 C 
ATOM     14  C   UNL     1       1.543   8.075  18.799  0.00  0.00    +0.000 A 
ATOM     15  C   UNL     1       0.456   8.675  19.412  0.00  0.00    +0.000 A 
ATOM     16  C   UNL     1       0.318  10.046  19.322  0.00  0.00    +0.000 A 
ATOM     17  C   UNL     1      -0.751  10.649  20.029  0.00  0.00    +0.000 A 
ATOM     18  C   UNL     1      -0.866  12.025  20.099  0.00  0.00    +0.000 A 
ATOM     19  C   UNL     1       0.128  12.785  19.497  0.00  0.00    +0.000 A 
ATOM     20  C   UNL     1       1.178  12.165  18.770  0.00  0.00    +0.000 A 
ATOM     21  C   UNL     1       1.313  10.765  18.604  0.00  0.00    +0.000 A 
ATOM     22  N   UNL     1       2.324  10.116  17.861  0.00  0.00    +0.000 NA
ATOM     23  C   UNL     1       2.394   8.757  17.926  0.00  0.00    +0.000 A 
ENDROOT
BRANCH   1  25
ATOM     24  C   UNL     1       5.365   3.641  13.437  0.00  0.00    +0.000 C 
ATOM     25  C   UNL     1       6.158   4.671  14.273  0.00  0.00    +0.000 C 
ENDBRANCH   1  25
BRANCH   1  26
ATOM     26  O   UNL     1       4.618   4.233  16.011  0.00  0.00    +0.000 OA
ATOM     27  H   UNL     1       4.387   4.243  16.954  0.00  0.00    +0.000 HD
ENDBRANCH   1  26
BRANCH  13  28
ATOM     28  C   UNL     1       2.026   6.353  20.616  0.00  0.00    +0.000 C 
BRANCH  28  29
ATOM     29  C   UNL     1       1.700   4.900  20.860  0.00  0.00    +0.000 C 
ATOM     30  O   UNL     1       2.160   4.196  21.745  0.00  0.00    +0.000 OA
BRANCH  29  31
ATOM     31  O   UNL     1       0.825   4.462  19.910  0.00  0.00    +0.000 OA
BRANCH  31  32
ATOM     32  C   UNL     1       1.099   3.136  19.423  0.00  0.00    +0.000 C 
BRANCH  32  33
ATOM     33  C   UNL     1       1.830   3.131  18.082  0.00  0.00    +0.000 C 
BRANCH  33  34
ATOM     34  O   UNL     1       3.211   2.832  18.271  0.00  0.00    +0.000 OA
ATOM     35  H   UNL     1       3.536   2.488  17.421  0.00  0.00    +0.000 HD
ENDBRANCH  33  34
ENDBRANCH  32  33
ENDBRANCH  31  32
ENDBRANCH  29  31
ENDBRANCH  28  29
ENDBRANCH  13  28
TORSDOF 8
ENDMDL
MODEL 3
REMARK VINA RESULT:      -6.2      1.004      1.193
REMARK  Name = 
REMARK  9 active torsions:
REMARK  status: ('A' for Active; 'I' for Inactive)
REMARK    1  A    between atoms: C_1  and  C_2
REMARK    2  A    between atoms: C_2  and  C_3
REMARK    3  A    between atoms: C_3  and  O_4
REMARK    4  A    between atoms: C_16  and  C_17
REMARK    5  A    between atoms: C_17  and  C_18
REMARK    6  A    between atoms: C_18  and  O_20
REMARK    7  A    between atoms: O_20  and  C_21
REMARK    8  A    between atoms: C_21  and  C_22
REMARK    9  A    between atoms: C_22  and  O_23
REMARK                            x       y       z     vdW  Elec       q    Type
REMARK                         _______ _______ _______ _____ _____    ______ ____
ROOT
ATOM      1  C   UNL     1       5.543   5.047  15.478  0.00  0.00    +0.000 C 
ATOM      2  C   UNL     1       7.023   4.574  15.794  0.00  0.00    +0.000 C 
ATOM      3  O   UNL     1       8.061   4.885  15.191  0.00  0.00    +0.000 OA
ATOM      4  O   UNL     1       7.112   3.925  16.966  0.00  0.00    +0.000 OA
ATOM      5  C   UNL     1       7.129   4.973  17.920  0.00  0.00    +0.000 C 
ATOM      6  C   UNL     1       5.828   5.695  17.848  0.00  0.00    +0.000 A 
ATOM      7  C   UNL     1       5.184   6.070  16.692  0.00  0.00    +0.000 A 
ATOM      8  C   UNL     1       3.985   6.993  17.004  0.00  0.00    +0.000 A 
ATOM      9  C   UNL     1       3.349   6.922  18.225  0.00  0.00    +0.000 A 
ATOM     10  N   UNL     1       3.686   5.800  18.978  0.00  0.00    +0.000 N 
ATOM     11  C   UNL     1       4.881   5.159  18.878  0.00  0.00    +0.000 A 
ATOM     12  O   UNL     1       5.193   4.191  19.569  0.00  0.00    +0.000 OA
ATOM     13  C   UNL     1       2.614   5.379  19.877  0.00  0.00    +0.000 C 
ATOM     14  C   UNL     1       1.798   6.628  19.978  0.00  0.00    +0.000 A 
ATOM     15  C   UNL     1       0.838   6.884  20.942  0.00  0.00    +0.000 A 
ATOM     16  C   UNL     1       0.467   8.194  21.178  0.00  0.00    +0.000 A 
ATOM     17  C   UNL     1      -0.451   8.441  22.228  0.00  0.00    +0.000 A 
ATOM     18  C   UNL     1      -0.757   9.733  22.611  0.00  0.00    +0.000 A 
ATOM     19  C   UNL     1      -0.095  10.769  21.965  0.00  0.00    +0.000 A 
ATOM     20  C   UNL     1       0.802  10.505  20.897  0.00  0.00    +0.000 A 
ATOM     21  C   UNL     1       1.104   9.209  20.413  0.00  0.00    +0.000 A 
ATOM     22  N   UNL     1       1.964   8.911  19.332  0.00  0.00    +0.000 NA
ATOM     23  C   UNL     1       2.262   7.604  19.091  0.00  0.00    +0.000 A 
ENDROOT
BRANCH   1  25
ATOM     24  C   UNL     1       5.922   3.826  13.012  0.00  0.00    +0.000 C 
ATOM     25  C   UNL     1       5.485   5.030  13.877  0.00  0.00    +0.000 C 
ENDBRANCH   1  25
BRANCH   1  26
ATOM     26  O   UNL     1       4.563   4.008  15.797  0.00  0.00    +0.000 OA
ATOM     27  H   UNL     1       3.671   4.335  15.593  0.00  0.00    +0.000 HD
ENDBRANCH   1  26
BRANCH  13  28
ATOM     28  C   UNL     1       3.020   4.771  21.225  0.00  0.00    +0.000 C 
BRANCH  28  29
ATOM     29  C   UNL     1       2.380   3.431  21.492  0.00  0.00    +0.000 C 
ATOM     30  O   UNL     1       1.183   3.208  21.582  0.00  0.00    +0.000 OA
BRANCH  29  31
ATOM     31  O   UNL     1       3.349   2.485  21.656  0.00  0.00    +0.000 OA
BRANCH  31  32
ATOM     32  C   UNL     1       3.803   1.886  20.430  0.00  0.00    +0.000 C 
BRANCH  32  33
ATOM     33  C   UNL     1       5.019   0.981  20.621  0.00  0.00    +0.000 C 
BRANCH  33  34
ATOM     34  O   UNL     1       5.651   1.256  21.870  0.00  0.00    +0.000 OA
ATOM     35  H   UNL     1       6.575   0.969  21.778  0.00  0.00    +0.000 HD
ENDBRANCH  33  34
ENDBRANCH  32  33
ENDBRANCH  31  32
ENDBRANCH  29  31
ENDBRANCH  28  29
ENDBRANCH  13  28
TORSDOF 8
ENDMDL
MODEL 4
REMARK VINA RESULT:      -5.8      6.438     11.153
REMARK  Name = 
REMARK  9 active torsions:
REMARK  status: ('A' for Active; 'I' for Inactive)
REMARK    1  A    between atoms: C_1  and  C_2
REMARK    2  A    between atoms: C_2  and  C_3
REMARK    3  A    between atoms: C_3  and  O_4
REMARK    4  A    between atoms: C_16  and  C_17
REMARK    5  A    between atoms: C_17  and  C_18
REMARK    6  A    between atoms: C_18  and  O_20
REMARK    7  A    between atoms: O_20  and  C_21
REMARK    8  A    between atoms: C_21  and  C_22
REMARK    9  A    between atoms: C_22  and  O_23
REMARK                            x       y       z     vdW  Elec       q    Type
REMARK                         _______ _______ _______ _____ _____    ______ ____
ROOT
ATOM      1  C   UNL     1      -5.191  13.491  22.349  0.00  0.00    +0.000 C 
ATOM      2  C   UNL     1      -6.427  12.834  21.605  0.00  0.00    +0.000 C 
ATOM      3  O   UNL     1      -7.582  13.277  21.520  0.00  0.00    +0.000 OA
ATOM      4  O   UNL     1      -6.067  11.786  20.845  0.00  0.00    +0.000 OA
ATOM      5  C   UNL     1      -5.549  12.394  19.674  0.00  0.00    +0.000 C 
ATOM      6  C   UNL     1      -4.337  13.176  20.048  0.00  0.00    +0.000 A 
ATOM      7  C   UNL     1      -4.225  14.002  21.143  0.00  0.00    +0.000 A 
ATOM      8  C   UNL     1      -2.915  14.820  21.084  0.00  0.00    +0.000 A 
ATOM      9  C   UNL     1      -1.822  14.336  20.396  0.00  0.00    +0.000 A 
ATOM     10  N   UNL     1      -1.921  12.994  20.042  0.00  0.00    +0.000 N 
ATOM     11  C   UNL     1      -3.103  12.358  19.826  0.00  0.00    +0.000 A 
ATOM     12  O   UNL     1      -3.188  11.182  19.476  0.00  0.00    +0.000 OA
ATOM     13  C   UNL     1      -0.618  12.339  19.939  0.00  0.00    +0.000 C 
ATOM     14  C   UNL     1       0.295  13.510  19.763  0.00  0.00    +0.000 A 
ATOM     15  C   UNL     1       1.601  13.449  19.310  0.00  0.00    +0.000 A 
ATOM     16  C   UNL     1       2.182  14.595  18.803  0.00  0.00    +0.000 A 
ATOM     17  C   UNL     1       3.488  14.490  18.264  0.00  0.00    +0.000 A 
ATOM     18  C   UNL     1       4.074  15.560  17.613  0.00  0.00    +0.000 A 
ATOM     19  C   UNL     1       3.317  16.715  17.467  0.00  0.00    +0.000 A 
ATOM     20  C   UNL     1       2.020  16.812  18.037  0.00  0.00    +0.000 A 
ATOM     21  C   UNL     1       1.394  15.777  18.772  0.00  0.00    +0.000 A 
ATOM     22  N   UNL     1       0.121  15.851  19.381  0.00  0.00    +0.000 NA
ATOM     23  C   UNL     1      -0.397  14.715  19.923  0.00  0.00    +0.000 A 
ENDROOT
BRANCH   1  25
ATOM     24  C   UNL     1      -5.732  15.563  24.118  0.00  0.00    +0.000 C 
ATOM     25  C   UNL     1      -5.840  14.082  23.689  0.00  0.00    +0.000 C 
ENDBRANCH   1  25
BRANCH   1  26
ATOM     26  O   UNL     1      -4.293  12.477  22.905  0.00  0.00    +0.000 OA
ATOM     27  H   UNL     1      -3.710  12.146  22.202  0.00  0.00    +0.000 HD
ENDBRANCH   1  26
BRANCH  13  28
ATOM     28  C   UNL     1      -0.460  11.241  18.880  0.00  0.00    +0.000 C 
BRANCH  28  29
ATOM     29  C   UNL     1       0.202   9.993  19.409  0.00  0.00    +0.000 C 
ATOM     30  O   UNL     1       1.027   9.310  18.823  0.00  0.00    +0.000 OA
BRANCH  29  31
ATOM     31  O   UNL     1      -0.287   9.706  20.650  0.00  0.00    +0.000 OA
BRANCH  31  32
ATOM     32  C   UNL     1       0.726   9.420  21.631  0.00  0.00    +0.000 C 
BRANCH  32  33
ATOM     33  C   UNL     1       0.203   9.482  23.065  0.00  0.00    +0.000 C 
BRANCH  33  34
ATOM     34  O   UNL     1      -0.400  10.749  23.319  0.00  0.00    +0.000 OA
ATOM     35  H   UNL     1      -1.347  10.578  23.459  0.00  0.00    +0.000 HD
ENDBRANCH  33  34
ENDBRANCH  32  33
ENDBRANCH  31  32
ENDBRANCH  29  31
ENDBRANCH  28  29
ENDBRANCH  13  28
TORSDOF 8
ENDMDL
MODEL 5
REMARK VINA RESULT:      -5.7      6.564     11.272
REMARK  Name = 
REMARK  9 active torsions:
REMARK  status: ('A' for Active; 'I' for Inactive)
REMARK    1  A    between atoms: C_1  and  C_2
REMARK    2  A    between atoms: C_2  and  C_3
REMARK    3  A    between atoms: C_3  and  O_4
REMARK    4  A    between atoms: C_16  and  C_17
REMARK    5  A    between atoms: C_17  and  C_18
REMARK    6  A    between atoms: C_18  and  O_20
REMARK    7  A    between atoms: O_20  and  C_21
REMARK    8  A    between atoms: C_21  and  C_22
REMARK    9  A    between atoms: C_22  and  O_23
REMARK                            x       y       z     vdW  Elec       q    Type
REMARK                         _______ _______ _______ _____ _____    ______ ____
ROOT
ATOM      1  C   UNL     1      -3.761  14.278  23.434  0.00  0.00    +0.000 C 
ATOM      2  C   UNL     1      -3.248  15.547  24.234  0.00  0.00    +0.000 C 
ATOM      3  O   UNL     1      -3.441  15.818  25.429  0.00  0.00    +0.000 OA
ATOM      4  O   UNL     1      -2.352  16.264  23.535  0.00  0.00    +0.000 OA
ATOM      5  C   UNL     1      -1.148  15.536  23.702  0.00  0.00    +0.000 C 
ATOM      6  C   UNL     1      -1.316  14.197  23.071  0.00  0.00    +0.000 A 
ATOM      7  C   UNL     1      -2.421  13.387  23.196  0.00  0.00    +0.000 A 
ATOM      8  C   UNL     1      -2.149  11.989  22.598  0.00  0.00    +0.000 A 
ATOM      9  C   UNL     1      -1.211  11.828  21.599  0.00  0.00    +0.000 A 
ATOM     10  N   UNL     1      -0.786  13.020  21.020  0.00  0.00    +0.000 N 
ATOM     11  C   UNL     1      -0.777  14.213  21.674  0.00  0.00    +0.000 A 
ATOM     12  O   UNL     1      -0.367  15.259  21.174  0.00  0.00    +0.000 OA
ATOM     13  C   UNL     1      -0.363  12.855  19.631  0.00  0.00    +0.000 C 
ATOM     14  C   UNL     1      -0.087  11.386  19.573  0.00  0.00    +0.000 A 
ATOM     15  C   UNL     1       0.635  10.744  18.582  0.00  0.00    +0.000 A 
ATOM     16  C   UNL     1       1.166   9.497  18.850  0.00  0.00    +0.000 A 
ATOM     17  C   UNL     1       1.974   8.896  17.854  0.00  0.00    +0.000 A 
ATOM     18  C   UNL     1       2.652   7.717  18.109  0.00  0.00    +0.000 A 
ATOM     19  C   UNL     1       2.548   7.180  19.385  0.00  0.00    +0.000 A 
ATOM     20  C   UNL     1       1.712   7.780  20.362  0.00  0.00    +0.000 A 
ATOM     21  C   UNL     1       0.941   8.947  20.142  0.00  0.00    +0.000 A 
ATOM     22  N   UNL     1       0.074   9.553  21.079  0.00  0.00    +0.000 NA
ATOM     23  C   UNL     1      -0.479  10.755  20.757  0.00  0.00    +0.000 A 
ENDROOT
BRANCH   1  25
ATOM     24  C   UNL     1      -6.213  12.973  23.487  0.00  0.00    +0.000 C 
ATOM     25  C   UNL     1      -5.248  14.070  23.993  0.00  0.00    +0.000 C 
ENDBRANCH   1  25
BRANCH   1  26
ATOM     26  O   UNL     1      -4.039  14.599  22.033  0.00  0.00    +0.000 OA
ATOM     27  H   UNL     1      -4.285  13.785  21.562  0.00  0.00    +0.000 HD
ENDBRANCH   1  26
BRANCH  13  28
ATOM     28  C   UNL     1       0.785  13.741  19.131  0.00  0.00    +0.000 C 
BRANCH  28  29
ATOM     29  C   UNL     1       2.126  13.362  19.710  0.00  0.00    +0.000 C 
ATOM     30  O   UNL     1       2.354  13.075  20.875  0.00  0.00    +0.000 OA
BRANCH  29  31
ATOM     31  O   UNL     1       3.078  13.418  18.735  0.00  0.00    +0.000 OA
BRANCH  31  32
ATOM     32  C   UNL     1       3.866  14.622  18.749  0.00  0.00    +0.000 C 
BRANCH  32  33
ATOM     33  C   UNL     1       3.512  15.580  17.613  0.00  0.00    +0.000 C 
BRANCH  33  34
ATOM     34  O   UNL     1       3.911  16.909  17.942  0.00  0.00    +0.000 OA
ATOM     35  H   UNL     1       3.149  17.480  17.745  0.00  0.00    +0.000 HD
ENDBRANCH  33  34
ENDBRANCH  32  33
ENDBRANCH  31  32
ENDBRANCH  29  31
ENDBRANCH  28  29
ENDBRANCH  13  28
TORSDOF 8
ENDMDL
MODEL 6
REMARK VINA RESULT:      -5.6      8.822     11.443
REMARK  Name = 
REMARK  9 active torsions:
REMARK  status: ('A' for Active; 'I' for Inactive)
REMARK    1  A    between atoms: C_1  and  C_2
REMARK    2  A    between atoms: C_2  and  C_3
REMARK    3  A    between atoms: C_3  and  O_4
REMARK    4  A    between atoms: C_16  and  C_17
REMARK    5  A    between atoms: C_17  and  C_18
REMARK    6  A    between atoms: C_18  and  O_20
REMARK    7  A    between atoms: O_20  and  C_21
REMARK    8  A    between atoms: C_21  and  C_22
REMARK    9  A    between atoms: C_22  and  O_23
REMARK                            x       y       z     vdW  Elec       q    Type
REMARK                         _______ _______ _______ _____ _____    ______ ____
ROOT
ATOM      1  C   UNL     1       1.724  16.789  18.932  0.00  0.00    +0.000 C 
ATOM      2  C   UNL     1       0.422  15.937  19.236  0.00  0.00    +0.000 C 
ATOM      3  O   UNL     1      -0.547  15.743  18.487  0.00  0.00    +0.000 OA
ATOM      4  O   UNL     1       0.535  15.218  20.365  0.00  0.00    +0.000 OA
ATOM      5  C   UNL     1       1.305  14.098  19.964  0.00  0.00    +0.000 C 
ATOM      6  C   UNL     1       2.651  14.579  19.545  0.00  0.00    +0.000 A 
ATOM      7  C   UNL     1       2.896  15.676  18.751  0.00  0.00    +0.000 A 
ATOM      8  C   UNL     1       4.385  15.735  18.339  0.00  0.00    +0.000 A 
ATOM      9  C   UNL     1       5.351  15.153  19.132  0.00  0.00    +0.000 A 
ATOM     10  N   UNL     1       4.907  14.797  20.402  0.00  0.00    +0.000 N 
ATOM     11  C   UNL     1       3.616  14.475  20.685  0.00  0.00    +0.000 A 
ATOM     12  O   UNL     1       3.232  14.125  21.799  0.00  0.00    +0.000 OA
ATOM     13  C   UNL     1       5.974  14.819  21.401  0.00  0.00    +0.000 C 
ATOM     14  C   UNL     1       7.194  14.723  20.540  0.00  0.00    +0.000 A 
ATOM     15  C   UNL     1       8.463  14.393  20.982  0.00  0.00    +0.000 A 
ATOM     16  C   UNL     1       9.388  13.937  20.063  0.00  0.00    +0.000 A 
ATOM     17  C   UNL     1      10.652  13.521  20.549  0.00  0.00    +0.000 A 
ATOM     18  C   UNL     1      11.572  12.923  19.707  0.00  0.00    +0.000 A 
ATOM     19  C   UNL     1      11.190  12.703  18.391  0.00  0.00    +0.000 A 
ATOM     20  C   UNL     1       9.930  13.150  17.914  0.00  0.00    +0.000 A 
ATOM     21  C   UNL     1       8.973  13.828  18.707  0.00  0.00    +0.000 A 
ATOM     22  N   UNL     1       7.726  14.316  18.258  0.00  0.00    +0.000 NA
ATOM     23  C   UNL     1       6.861  14.813  19.186  0.00  0.00    +0.000 A 
ENDROOT
BRANCH   1  25
ATOM     24  C   UNL     1       1.288  18.256  16.613  0.00  0.00    +0.000 C 
ATOM     25  C   UNL     1       1.154  18.060  18.141  0.00  0.00    +0.000 C 
ENDBRANCH   1  25
BRANCH   1  26
ATOM     26  O   UNL     1       2.245  17.431  20.141  0.00  0.00    +0.000 OA
ATOM     27  H   UNL     1       2.228  16.793  20.874  0.00  0.00    +0.000 HD
ENDBRANCH   1  26
BRANCH  13  28
ATOM     28  C   UNL     1       5.906  13.783  22.530  0.00  0.00    +0.000 C 
BRANCH  28  29
ATOM     29  C   UNL     1       5.887  14.402  23.906  0.00  0.00    +0.000 C 
ATOM     30  O   UNL     1       6.483  15.410  24.253  0.00  0.00    +0.000 OA
BRANCH  29  31
ATOM     31  O   UNL     1       5.121  13.642  24.739  0.00  0.00    +0.000 OA
BRANCH  31  32
ATOM     32  C   UNL     1       5.844  13.058  25.838  0.00  0.00    +0.000 C 
BRANCH  32  33
ATOM     33  C   UNL     1       5.518  11.581  26.050  0.00  0.00    +0.000 C 
BRANCH  33  34
ATOM     34  O   UNL     1       6.276  10.772  25.153  0.00  0.00    +0.000 OA
ATOM     35  H   UNL     1       7.211  10.977  25.324  0.00  0.00    +0.000 HD
ENDBRANCH  33  34
ENDBRANCH  32  33
ENDBRANCH  31  32
ENDBRANCH  29  31
ENDBRANCH  28  29
ENDBRANCH  13  28
TORSDOF 8
ENDMDL
MODEL 7
REMARK VINA RESULT:      -5.6      6.751     11.523
REMARK  Name = 
REMARK  9 active torsions:
REMARK  status: ('A' for Active; 'I' for Inactive)
REMARK    1  A    between atoms: C_1  and  C_2
REMARK    2  A    between atoms: C_2  and  C_3
REMARK    3  A    between atoms: C_3  and  O_4
REMARK    4  A    between atoms: C_16  and  C_17
REMARK    5  A    between atoms: C_17  and  C_18
REMARK    6  A    between atoms: C_18  and  O_20
REMARK    7  A    between atoms: O_20  and  C_21
REMARK    8  A    between atoms: C_21  and  C_22
REMARK    9  A    between atoms: C_22  and  O_23
REMARK                            x       y       z     vdW  Elec       q    Type
REMARK                         _______ _______ _______ _____ _____    ______ ____
ROOT
ATOM      1  C   UNL     1      -3.598  14.469  23.515  0.00  0.00    +0.000 C 
ATOM      2  C   UNL     1      -3.054  15.580  24.507  0.00  0.00    +0.000 C 
ATOM      3  O   UNL     1      -3.428  15.808  25.667  0.00  0.00    +0.000 OA
ATOM      4  O   UNL     1      -1.939  16.172  24.048  0.00  0.00    +0.000 OA
ATOM      5  C   UNL     1      -0.920  15.239  24.362  0.00  0.00    +0.000 C 
ATOM      6  C   UNL     1      -1.173  13.989  23.591  0.00  0.00    +0.000 A 
ATOM      7  C   UNL     1      -2.395  13.376  23.442  0.00  0.00    +0.000 A 
ATOM      8  C   UNL     1      -2.238  11.990  22.777  0.00  0.00    +0.000 A 
ATOM      9  C   UNL     1      -1.164  11.730  21.952  0.00  0.00    +0.000 A 
ATOM     10  N   UNL     1      -0.452  12.863  21.570  0.00  0.00    +0.000 N 
ATOM     11  C   UNL     1      -0.380  13.995  22.321  0.00  0.00    +0.000 A 
ATOM     12  O   UNL     1       0.279  14.982  22.000  0.00  0.00    +0.000 OA
ATOM     13  C   UNL     1       0.199  12.711  20.271  0.00  0.00    +0.000 C 
ATOM     14  C   UNL     1       0.245  11.222  20.130  0.00  0.00    +0.000 A 
ATOM     15  C   UNL     1       1.033  10.525  19.231  0.00  0.00    +0.000 A 
ATOM     16  C   UNL     1       1.297   9.192  19.475  0.00  0.00    +0.000 A 
ATOM     17  C   UNL     1       2.177   8.520  18.590  0.00  0.00    +0.000 A 
ATOM     18  C   UNL     1       2.597   7.230  18.853  0.00  0.00    +0.000 A 
ATOM     19  C   UNL     1       2.166   6.642  20.035  0.00  0.00    +0.000 A 
ATOM     20  C   UNL     1       1.264   7.319  20.898  0.00  0.00    +0.000 A 
ATOM     21  C   UNL     1       0.745   8.613  20.650  0.00  0.00    +0.000 A 
ATOM     22  N   UNL     1      -0.180   9.301  21.467  0.00  0.00    +0.000 NA
ATOM     23  C   UNL     1      -0.462  10.598  21.162  0.00  0.00    +0.000 A 
ENDROOT
BRANCH   1  25
ATOM     24  C   UNL     1      -6.109  15.647  23.354  0.00  0.00    +0.000 C 
ATOM     25  C   UNL     1      -5.179  14.487  23.776  0.00  0.00    +0.000 C 
ENDBRANCH   1  25
BRANCH   1  26
ATOM     26  O   UNL     1      -3.547  14.916  22.122  0.00  0.00    +0.000 OA
ATOM     27  H   UNL     1      -4.372  15.381  21.905  0.00  0.00    +0.000 HD
ENDBRANCH   1  26
BRANCH  13  28
ATOM     28  C   UNL     1       1.547  13.413  20.068  0.00  0.00    +0.000 C 
BRANCH  28  29
ATOM     29  C   UNL     1       1.650  14.137  18.749  0.00  0.00    +0.000 C 
ATOM     30  O   UNL     1       2.046  13.665  17.695  0.00  0.00    +0.000 OA
BRANCH  29  31
ATOM     31  O   UNL     1       1.261  15.435  18.908  0.00  0.00    +0.000 OA
BRANCH  31  32
ATOM     32  C   UNL     1      -0.046  15.729  18.384  0.00  0.00    +0.000 C 
BRANCH  32  33
ATOM     33  C   UNL     1      -0.864  16.642  19.296  0.00  0.00    +0.000 C 
BRANCH  33  34
ATOM     34  O   UNL     1      -1.915  15.909  19.920  0.00  0.00    +0.000 OA
ATOM     35  H   UNL     1      -2.576  16.565  20.202  0.00  0.00    +0.000 HD
ENDBRANCH  33  34
ENDBRANCH  32  33
ENDBRANCH  31  32
ENDBRANCH  29  31
ENDBRANCH  28  29
ENDBRANCH  13  28
TORSDOF 8
ENDMDL
MODEL 8
REMARK VINA RESULT:      -5.6      6.630     11.340
REMARK  Name = 
REMARK  9 active torsions:
REMARK  status: ('A' for Active; 'I' for Inactive)
REMARK    1  A    between atoms: C_1  and  C_2
REMARK    2  A    between atoms: C_2  and  C_3
REMARK    3  A    between atoms: C_3  and  O_4
REMARK    4  A    between atoms: C_16  and  C_17
REMARK    5  A    between atoms: C_17  and  C_18
REMARK    6  A    between atoms: C_18  and  O_20
REMARK    7  A    between atoms: O_20  and  C_21
REMARK    8  A    between atoms: C_21  and  C_22
REMARK    9  A    between atoms: C_22  and  O_23
REMARK                            x       y       z     vdW  Elec       q    Type
REMARK                         _______ _______ _______ _____ _____    ______ ____
ROOT
ATOM      1  C   UNL     1      -3.569  14.395  23.218  0.00  0.00    +0.000 C 
ATOM      2  C   UNL     1      -3.053  15.490  24.241  0.00  0.00    +0.000 C 
ATOM      3  O   UNL     1      -3.479  15.719  25.383  0.00  0.00    +0.000 OA
ATOM      4  O   UNL     1      -1.907  16.065  23.839  0.00  0.00    +0.000 OA
ATOM      5  C   UNL     1      -0.921  15.111  24.196  0.00  0.00    +0.000 C 
ATOM      6  C   UNL     1      -1.159  13.871  23.406  0.00  0.00    +0.000 A 
ATOM      7  C   UNL     1      -2.384  13.281  23.195  0.00  0.00    +0.000 A 
ATOM      8  C   UNL     1      -2.220  11.896  22.529  0.00  0.00    +0.000 A 
ATOM      9  C   UNL     1      -1.112  11.621  21.755  0.00  0.00    +0.000 A 
ATOM     10  N   UNL     1      -0.363  12.743  21.415  0.00  0.00    +0.000 N 
ATOM     11  C   UNL     1      -0.307  13.869  22.175  0.00  0.00    +0.000 A 
ATOM     12  O   UNL     1       0.385  14.847  21.892  0.00  0.00    +0.000 OA
ATOM     13  C   UNL     1       0.347  12.586  20.147  0.00  0.00    +0.000 C 
ATOM     14  C   UNL     1       0.373  11.098  19.999  0.00  0.00    +0.000 A 
ATOM     15  C   UNL     1       1.191  10.392  19.133  0.00  0.00    +0.000 A 
ATOM     16  C   UNL     1       1.420   9.053  19.382  0.00  0.00    +0.000 A 
ATOM     17  C   UNL     1       2.329   8.371  18.535  0.00  0.00    +0.000 A 
ATOM     18  C   UNL     1       2.713   7.071  18.810  0.00  0.00    +0.000 A 
ATOM     19  C   UNL     1       2.216   6.485  19.967  0.00  0.00    +0.000 A 
ATOM     20  C   UNL     1       1.286   7.173  20.789  0.00  0.00    +0.000 A 
ATOM     21  C   UNL     1       0.802   8.477  20.525  0.00  0.00    +0.000 A 
ATOM     22  N   UNL     1      -0.148   9.178  21.302  0.00  0.00    +0.000 NA
ATOM     23  C   UNL     1      -0.393  10.481  20.992  0.00  0.00    +0.000 A 
ENDROOT
BRANCH   1  25
ATOM     24  C   UNL     1      -6.014  13.222  23.823  0.00  0.00    +0.000 C 
ATOM     25  C   UNL     1      -5.160  14.440  23.403  0.00  0.00    +0.000 C 
ENDBRANCH   1  25
BRANCH   1  26
ATOM     26  O   UNL     1      -3.443  14.848  21.831  0.00  0.00    +0.000 OA
ATOM     27  H   UNL     1      -2.871  15.633  21.802  0.00  0.00    +0.000 HD
ENDBRANCH   1  26
BRANCH  13  28
ATOM     28  C   UNL     1       1.715  13.265  20.013  0.00  0.00    +0.000 C 
BRANCH  28  29
ATOM     29  C   UNL     1       1.920  13.937  18.678  0.00  0.00    +0.000 C 
ATOM     30  O   UNL     1       2.251  13.390  17.638  0.00  0.00    +0.000 OA
BRANCH  29  31
ATOM     31  O   UNL     1       1.712  15.279  18.803  0.00  0.00    +0.000 OA
BRANCH  31  32
ATOM     32  C   UNL     1       2.771  15.980  19.480  0.00  0.00    +0.000 C 
BRANCH  32  33
ATOM     33  C   UNL     1       3.765  16.631  18.520  0.00  0.00    +0.000 C 
BRANCH  33  34
ATOM     34  O   UNL     1       3.080  17.196  17.404  0.00  0.00    +0.000 OA
ATOM     35  H   UNL     1       2.151  17.297  17.676  0.00  0.00    +0.000 HD
ENDBRANCH  33  34
ENDBRANCH  32  33
ENDBRANCH  31  32
ENDBRANCH  29  31
ENDBRANCH  28  29
ENDBRANCH  13  28
TORSDOF 8
ENDMDL
MODEL 9
REMARK VINA RESULT:      -5.6      6.328     10.942
REMARK  Name = 
REMARK  9 active torsions:
REMARK  status: ('A' for Active; 'I' for Inactive)
REMARK    1  A    between atoms: C_1  and  C_2
REMARK    2  A    between atoms: C_2  and  C_3
REMARK    3  A    between atoms: C_3  and  O_4
REMARK    4  A    between atoms: C_16  and  C_17
REMARK    5  A    between atoms: C_17  and  C_18
REMARK    6  A    between atoms: C_18  and  O_20
REMARK    7  A    between atoms: O_20  and  C_21
REMARK    8  A    between atoms: C_21  and  C_22
REMARK    9  A    between atoms: C_22  and  O_23
REMARK                            x       y       z     vdW  Elec       q    Type
REMARK                         _______ _______ _______ _____ _____    ______ ____
ROOT
ATOM      1  C   UNL     1      -5.442  13.263  22.041  0.00  0.00    +0.000 C 
ATOM      2  C   UNL     1      -6.665  12.690  21.211  0.00  0.00    +0.000 C 
ATOM      3  O   UNL     1      -7.811  13.158  21.133  0.00  0.00    +0.000 OA
ATOM      4  O   UNL     1      -6.299  11.705  20.375  0.00  0.00    +0.000 OA
ATOM      5  C   UNL     1      -5.739  12.402  19.275  0.00  0.00    +0.000 C 
ATOM      6  C   UNL     1      -4.528  13.130  19.746  0.00  0.00    +0.000 A 
ATOM      7  C   UNL     1      -4.436  13.859  20.910  0.00  0.00    +0.000 A 
ATOM      8  C   UNL     1      -3.113  14.656  20.956  0.00  0.00    +0.000 A 
ATOM      9  C   UNL     1      -2.008  14.215  20.259  0.00  0.00    +0.000 A 
ATOM     10  N   UNL     1      -2.115  12.909  19.790  0.00  0.00    +0.000 N 
ATOM     11  C   UNL     1      -3.299  12.313  19.489  0.00  0.00    +0.000 A 
ATOM     12  O   UNL     1      -3.391  11.172  19.038  0.00  0.00    +0.000 OA
ATOM     13  C   UNL     1      -0.819  12.244  19.667  0.00  0.00    +0.000 C 
ATOM     14  C   UNL     1       0.115  13.412  19.616  0.00  0.00    +0.000 A 
ATOM     15  C   UNL     1       1.432  13.368  19.195  0.00  0.00    +0.000 A 
ATOM     16  C   UNL     1       2.043  14.543  18.803  0.00  0.00    +0.000 A 
ATOM     17  C   UNL     1       3.362  14.463  18.292  0.00  0.00    +0.000 A 
ATOM     18  C   UNL     1       3.981  15.575  17.751  0.00  0.00    +0.000 A 
ATOM     19  C   UNL     1       3.245  16.750  17.684  0.00  0.00    +0.000 A 
ATOM     20  C   UNL     1       1.934  16.820  18.224  0.00  0.00    +0.000 A 
ATOM     21  C   UNL     1       1.272  15.736  18.851  0.00  0.00    +0.000 A 
ATOM     22  N   UNL     1      -0.016  15.779  19.429  0.00  0.00    +0.000 NA
ATOM     23  C   UNL     1      -0.564  14.609  19.859  0.00  0.00    +0.000 A 
ENDROOT
BRANCH   1  25
ATOM     24  C   UNL     1      -6.967  12.835  24.324  0.00  0.00    +0.000 C 
ATOM     25  C   UNL     1      -6.121  13.749  23.408  0.00  0.00    +0.000 C 
ENDBRANCH   1  25
BRANCH   1  26
ATOM     26  O   UNL     1      -4.574  12.191  22.534  0.00  0.00    +0.000 OA
ATOM     27  H   UNL     1      -3.852  12.047  21.900  0.00  0.00    +0.000 HD
ENDBRANCH   1  26
BRANCH  13  28
ATOM     28  C   UNL     1      -0.646  11.238  18.523  0.00  0.00    +0.000 C 
BRANCH  28  29
ATOM     29  C   UNL     1       0.166  10.028  18.912  0.00  0.00    +0.000 C 
ATOM     30  O   UNL     1       0.969   9.439  18.205  0.00  0.00    +0.000 OA
BRANCH  29  31
ATOM     31  O   UNL     1      -0.154   9.650  20.183  0.00  0.00    +0.000 OA
BRANCH  31  32
ATOM     32  C   UNL     1       0.976   9.263  20.986  0.00  0.00    +0.000 C 
BRANCH  32  33
ATOM     33  C   UNL     1       1.201   7.753  21.012  0.00  0.00    +0.000 C 
BRANCH  33  34
ATOM     34  O   UNL     1       2.328   7.405  20.210  0.00  0.00    +0.000 OA
ATOM     35  H   UNL     1       3.050   7.197  20.828  0.00  0.00    +0.000 HD
ENDBRANCH  33  34
ENDBRANCH  32  33
ENDBRANCH  31  32
ENDBRANCH  29  31
ENDBRANCH  28  29
ENDBRANCH  13  28
TORSDOF 8
ENDMDL
