MODEL 1
REMARK VINA RESULT:      -7.4      0.000      0.000
REMARK  Name = 
REMARK  5 active torsions:
REMARK  status: ('A' for Active; 'I' for Inactive)
REMARK    1  A    between atoms: C_1  and  C_2
REMARK    2  A    between atoms: C_7  and  C_8
REMARK    3  A    between atoms: C_10  and  C_11
REMARK    4  A    between atoms: N_13  and  C_14
REMARK    5  A    between atoms: N_13  and  C_20
REMARK                            x       y       z     vdW  Elec       q    Type
REMARK                         _______ _______ _______ _____ _____    ______ ____
ROOT
ATOM      1  C   UNL     1       0.179  10.980  19.133  0.00  0.00    +0.000 A 
ATOM      2  C   UNL     1      -1.167  11.025  19.462  0.00  0.00    +0.000 A 
ATOM      3  C   UNL     1      -1.792  12.276  19.650  0.00  0.00    +0.000 A 
ATOM      4  C   UNL     1      -0.975  13.441  19.651  0.00  0.00    +0.000 A 
ATOM      5  C   UNL     1      -1.325  14.749  20.102  0.00  0.00    +0.000 A 
ATOM      6  C   UNL     1      -0.675  15.865  19.575  0.00  0.00    +0.000 A 
ATOM      7  C   UNL     1       0.396  15.696  18.709  0.00  0.00    +0.000 A 
ATOM      8  C   UNL     1       0.904  14.416  18.513  0.00  0.00    +0.000 A 
ATOM      9  C   UNL     1       0.253  13.301  19.021  0.00  0.00    +0.000 A 
ATOM     10  N   UNL     1       0.834  12.117  18.816  0.00  0.00    +0.000 NA
ENDROOT
BRANCH   1  17
ATOM     11  C   UNL     1       0.606   9.262  21.618  0.00  0.00    +0.000 C 
ATOM     12  C   UNL     1       1.188   8.919  20.266  0.00  0.00    +0.000 A 
ATOM     13  C   UNL     1       1.894   7.706  20.162  0.00  0.00    +0.000 A 
ATOM     14  C   UNL     1       2.457   7.302  18.955  0.00  0.00    +0.000 A 
ATOM     15  C   UNL     1       2.318   8.114  17.834  0.00  0.00    +0.000 A 
ATOM     16  C   UNL     1       1.614   9.320  17.919  0.00  0.00    +0.000 A 
ATOM     17  C   UNL     1       1.024   9.757  19.129  0.00  0.00    +0.000 A 
ENDBRANCH   1  17
BRANCH   3  18
ATOM     18  C   UNL     1      -3.310  12.218  19.729  0.00  0.00    +0.000 C 
ATOM     19  O   UNL     1      -3.837  11.730  18.729  0.00  0.00    +0.000 OA
ATOM     20  N   UNL     1      -4.088  12.785  20.789  0.00  0.00    +0.000 N 
BRANCH  20  21
ATOM     21  C   UNL     1      -5.577  12.957  20.651  0.00  0.00    +0.000 C 
ATOM     22  C   UNL     1      -5.974  13.971  19.572  0.00  0.00    +0.000 C 
ATOM     23  C   UNL     1      -6.058  13.357  18.189  0.00  0.00    +0.000 C 
ATOM     24  C   UNL     1      -7.106  12.258  18.145  0.00  0.00    +0.000 C 
ATOM     25  C   UNL     1      -6.891  11.190  19.212  0.00  0.00    +0.000 C 
ATOM     26  C   UNL     1      -6.521  11.731  20.598  0.00  0.00    +0.000 C 
ENDBRANCH  20  21
BRANCH  20  27
ATOM     27  C   UNL     1      -3.480  13.333  22.038  0.00  0.00    +0.000 C 
ATOM     28  C   UNL     1      -3.991  14.651  22.610  0.00  0.00    +0.000 C 
ATOM     29  C   UNL     1      -4.840  14.558  23.870  0.00  0.00    +0.000 C 
ATOM     30  C   UNL     1      -4.512  13.421  24.833  0.00  0.00    +0.000 C 
ATOM     31  C   UNL     1      -4.064  12.109  24.207  0.00  0.00    +0.000 C 
ATOM     32  C   UNL     1      -3.054  12.304  23.092  0.00  0.00    +0.000 C 
ENDBRANCH  20  27
ENDBRANCH   3  18
TORSDOF 4
ENDMDL
MODEL 2
REMARK VINA RESULT:      -7.2      0.887      1.228
REMARK  Name = 
REMARK  5 active torsions:
REMARK  status: ('A' for Active; 'I' for Inactive)
REMARK    1  A    between atoms: C_1  and  C_2
REMARK    2  A    between atoms: C_7  and  C_8
REMARK    3  A    between atoms: C_10  and  C_11
REMARK    4  A    between atoms: N_13  and  C_14
REMARK    5  A    between atoms: N_13  and  C_20
REMARK                            x       y       z     vdW  Elec       q    Type
REMARK                         _______ _______ _______ _____ _____    ______ ____
ROOT
ATOM      1  C   UNL     1       0.430  10.897  19.261  0.00  0.00    +0.000 A 
ATOM      2  C   UNL     1      -0.874  11.068  19.698  0.00  0.00    +0.000 A 
ATOM      3  C   UNL     1      -1.377  12.372  19.884  0.00  0.00    +0.000 A 
ATOM      4  C   UNL     1      -0.471  13.464  19.768  0.00  0.00    +0.000 A 
ATOM      5  C   UNL     1      -0.674  14.811  20.191  0.00  0.00    +0.000 A 
ATOM      6  C   UNL     1       0.016  15.850  19.565  0.00  0.00    +0.000 A 
ATOM      7  C   UNL     1       0.992  15.561  18.621  0.00  0.00    +0.000 A 
ATOM      8  C   UNL     1       1.376  14.236  18.439  0.00  0.00    +0.000 A 
ATOM      9  C   UNL     1       0.683  13.199  19.045  0.00  0.00    +0.000 A 
ATOM     10  N   UNL     1       1.146  11.963  18.843  0.00  0.00    +0.000 NA
ENDROOT
BRANCH   1  17
ATOM     11  C   UNL     1       0.830   9.183  21.753  0.00  0.00    +0.000 C 
ATOM     12  C   UNL     1       1.318   8.774  20.382  0.00  0.00    +0.000 A 
ATOM     13  C   UNL     1       1.914   7.505  20.266  0.00  0.00    +0.000 A 
ATOM     14  C   UNL     1       2.385   7.040  19.042  0.00  0.00    +0.000 A 
ATOM     15  C   UNL     1       2.261   7.846  17.914  0.00  0.00    +0.000 A 
ATOM     16  C   UNL     1       1.664   9.108  18.011  0.00  0.00    +0.000 A 
ATOM     17  C   UNL     1       1.170   9.608  19.239  0.00  0.00    +0.000 A 
ENDBRANCH   1  17
BRANCH   3  18
ATOM     18  C   UNL     1      -2.883  12.446  20.090  0.00  0.00    +0.000 C 
ATOM     19  O   UNL     1      -3.525  12.418  19.040  0.00  0.00    +0.000 OA
ATOM     20  N   UNL     1      -3.517  12.659  21.356  0.00  0.00    +0.000 N 
BRANCH  20  21
ATOM     21  C   UNL     1      -4.975  13.022  21.440  0.00  0.00    +0.000 C 
ATOM     22  C   UNL     1      -5.223  14.533  21.525  0.00  0.00    +0.000 C 
ATOM     23  C   UNL     1      -5.279  15.198  20.165  0.00  0.00    +0.000 C 
ATOM     24  C   UNL     1      -6.414  14.628  19.329  0.00  0.00    +0.000 C 
ATOM     25  C   UNL     1      -6.353  13.111  19.200  0.00  0.00    +0.000 C 
ATOM     26  C   UNL     1      -6.016  12.368  20.500  0.00  0.00    +0.000 C 
ENDBRANCH  20  21
BRANCH  20  27
ATOM     27  C   UNL     1      -2.772  12.643  22.650  0.00  0.00    +0.000 C 
ATOM     28  C   UNL     1      -1.836  13.796  22.995  0.00  0.00    +0.000 C 
ATOM     29  C   UNL     1      -2.321  14.764  24.064  0.00  0.00    +0.000 C 
ATOM     30  C   UNL     1      -3.201  14.181  25.166  0.00  0.00    +0.000 C 
ATOM     31  C   UNL     1      -4.159  13.074  24.755  0.00  0.00    +0.000 C 
ATOM     32  C   UNL     1      -3.512  12.042  23.850  0.00  0.00    +0.000 C 
ENDBRANCH  20  27
ENDBRANCH   3  18
TORSDOF 4
ENDMDL
MODEL 3
REMARK VINA RESULT:      -7.2      6.945     10.790
REMARK  Name = 
REMARK  5 active torsions:
REMARK  status: ('A' for Active; 'I' for Inactive)
REMARK    1  A    between atoms: C_1  and  C_2
REMARK    2  A    between atoms: C_7  and  C_8
REMARK    3  A    between atoms: C_10  and  C_11
REMARK    4  A    between atoms: N_13  and  C_14
REMARK    5  A    between atoms: N_13  and  C_20
REMARK                            x       y       z     vdW  Elec       q    Type
REMARK                         _______ _______ _______ _____ _____    ______ ____
ROOT
ATOM      1  C   UNL     1       5.897   4.692  15.180  0.00  0.00    +0.000 A 
ATOM      2  C   UNL     1       4.995   4.183  16.102  0.00  0.00    +0.000 A 
ATOM      3  C   UNL     1       5.166   4.476  17.471  0.00  0.00    +0.000 A 
ATOM      4  C   UNL     1       6.354   5.151  17.870  0.00  0.00    +0.000 A 
ATOM      5  C   UNL     1       6.875   5.289  19.191  0.00  0.00    +0.000 A 
ATOM      6  C   UNL     1       7.693   6.373  19.508  0.00  0.00    +0.000 A 
ATOM      7  C   UNL     1       8.104   7.245  18.508  0.00  0.00    +0.000 A 
ATOM      8  C   UNL     1       7.823   6.924  17.184  0.00  0.00    +0.000 A 
ATOM      9  C   UNL     1       6.997   5.858  16.864  0.00  0.00    +0.000 A 
ATOM     10  N   UNL     1       6.815   5.603  15.566  0.00  0.00    +0.000 NA
ENDROOT
BRANCH   1  17
ATOM     11  C   UNL     1       8.248   5.459  13.393  0.00  0.00    +0.000 C 
ATOM     12  C   UNL     1       7.100   4.597  12.922  0.00  0.00    +0.000 A 
ATOM     13  C   UNL     1       7.183   4.076  11.618  0.00  0.00    +0.000 A 
ATOM     14  C   UNL     1       6.178   3.264  11.101  0.00  0.00    +0.000 A 
ATOM     15  C   UNL     1       5.073   2.963  11.892  0.00  0.00    +0.000 A 
ATOM     16  C   UNL     1       4.978   3.468  13.194  0.00  0.00    +0.000 A 
ATOM     17  C   UNL     1       5.986   4.290  13.751  0.00  0.00    +0.000 A 
ENDBRANCH   1  17
BRANCH   3  18
ATOM     18  C   UNL     1       3.980   4.108  18.350  0.00  0.00    +0.000 C 
ATOM     19  O   UNL     1       3.755   2.898  18.391  0.00  0.00    +0.000 OA
ATOM     20  N   UNL     1       3.110   5.057  18.975  0.00  0.00    +0.000 N 
BRANCH  20  21
ATOM     21  C   UNL     1       1.795   4.629  19.569  0.00  0.00    +0.000 C 
ATOM     22  C   UNL     1       0.890   3.891  18.575  0.00  0.00    +0.000 C 
ATOM     23  C   UNL     1       1.182   2.406  18.504  0.00  0.00    +0.000 C 
ATOM     24  C   UNL     1       0.960   1.743  19.853  0.00  0.00    +0.000 C 
ATOM     25  C   UNL     1       1.746   2.407  20.978  0.00  0.00    +0.000 C 
ATOM     26  C   UNL     1       1.731   3.941  20.954  0.00  0.00    +0.000 C 
ENDBRANCH  20  21
BRANCH  20  27
ATOM     27  C   UNL     1       3.387   6.525  18.990  0.00  0.00    +0.000 C 
ATOM     28  C   UNL     1       3.400   7.302  17.677  0.00  0.00    +0.000 C 
ATOM     29  C   UNL     1       2.210   8.215  17.420  0.00  0.00    +0.000 C 
ATOM     30  C   UNL     1       1.563   8.856  18.644  0.00  0.00    +0.000 C 
ATOM     31  C   UNL     1       1.523   8.014  19.910  0.00  0.00    +0.000 C 
ATOM     32  C   UNL     1       2.836   7.306  20.187  0.00  0.00    +0.000 C 
ENDBRANCH  20  27
ENDBRANCH   3  18
TORSDOF 4
ENDMDL
MODEL 4
REMARK VINA RESULT:      -7.2      2.030      7.536
REMARK  Name = 
REMARK  5 active torsions:
REMARK  status: ('A' for Active; 'I' for Inactive)
REMARK    1  A    between atoms: C_1  and  C_2
REMARK    2  A    between atoms: C_7  and  C_8
REMARK    3  A    between atoms: C_10  and  C_11
REMARK    4  A    between atoms: N_13  and  C_14
REMARK    5  A    between atoms: N_13  and  C_20
REMARK                            x       y       z     vdW  Elec       q    Type
REMARK                         _______ _______ _______ _____ _____    ______ ____
ROOT
ATOM      1  C   UNL     1      -4.760  12.940  20.579  0.00  0.00    +0.000 A 
ATOM      2  C   UNL     1      -3.388  12.995  20.778  0.00  0.00    +0.000 A 
ATOM      3  C   UNL     1      -2.526  12.442  19.809  0.00  0.00    +0.000 A 
ATOM      4  C   UNL     1      -3.104  11.706  18.737  0.00  0.00    +0.000 A 
ATOM      5  C   UNL     1      -2.442  10.830  17.826  0.00  0.00    +0.000 A 
ATOM      6  C   UNL     1      -2.976  10.611  16.556  0.00  0.00    +0.000 A 
ATOM      7  C   UNL     1      -4.215  11.144  16.226  0.00  0.00    +0.000 A 
ATOM      8  C   UNL     1      -4.972  11.748  17.226  0.00  0.00    +0.000 A 
ATOM      9  C   UNL     1      -4.440  11.982  18.485  0.00  0.00    +0.000 A 
ATOM     10  N   UNL     1      -5.253  12.532  19.391  0.00  0.00    +0.000 NA
ENDROOT
BRANCH   1  17
ATOM     11  C   UNL     1      -7.072  14.855  20.034  0.00  0.00    +0.000 C 
ATOM     12  C   UNL     1      -6.903  14.114  21.341  0.00  0.00    +0.000 A 
ATOM     13  C   UNL     1      -7.914  14.277  22.306  0.00  0.00    +0.000 A 
ATOM     14  C   UNL     1      -7.848  13.628  23.534  0.00  0.00    +0.000 A 
ATOM     15  C   UNL     1      -6.763  12.803  23.811  0.00  0.00    +0.000 A 
ATOM     16  C   UNL     1      -5.752  12.625  22.860  0.00  0.00    +0.000 A 
ATOM     17  C   UNL     1      -5.792  13.265  21.599  0.00  0.00    +0.000 A 
ENDBRANCH   1  17
BRANCH   3  18
ATOM     18  C   UNL     1      -1.058  12.802  19.990  0.00  0.00    +0.000 C 
ATOM     19  O   UNL     1      -0.808  13.982  19.745  0.00  0.00    +0.000 OA
ATOM     20  N   UNL     1      -0.024  11.858  20.287  0.00  0.00    +0.000 N 
BRANCH  20  21
ATOM     21  C   UNL     1       1.428  12.231  20.151  0.00  0.00    +0.000 C 
ATOM     22  C   UNL     1       1.939  12.170  18.707  0.00  0.00    +0.000 C 
ATOM     23  C   UNL     1       1.682  13.449  17.936  0.00  0.00    +0.000 C 
ATOM     24  C   UNL     1       2.389  14.626  18.588  0.00  0.00    +0.000 C 
ATOM     25  C   UNL     1       2.037  14.789  20.062  0.00  0.00    +0.000 C 
ATOM     26  C   UNL     1       2.001  13.480  20.862  0.00  0.00    +0.000 C 
ENDBRANCH  20  21
BRANCH  20  27
ATOM     27  C   UNL     1      -0.302  10.434  20.643  0.00  0.00    +0.000 C 
ATOM     28  C   UNL     1       0.280   9.315  19.786  0.00  0.00    +0.000 C 
ATOM     29  C   UNL     1       1.437   8.533  20.389  0.00  0.00    +0.000 C 
ATOM     30  C   UNL     1       1.432   8.365  21.906  0.00  0.00    +0.000 C 
ATOM     31  C   UNL     1       0.895   9.536  22.716  0.00  0.00    +0.000 C 
ATOM     32  C   UNL     1      -0.383  10.113  22.139  0.00  0.00    +0.000 C 
ENDBRANCH  20  27
ENDBRANCH   3  18
TORSDOF 4
ENDMDL
MODEL 5
REMARK VINA RESULT:      -7.2      2.000      4.161
REMARK  Name = 
REMARK  5 active torsions:
REMARK  status: ('A' for Active; 'I' for Inactive)
REMARK    1  A    between atoms: C_1  and  C_2
REMARK    2  A    between atoms: C_7  and  C_8
REMARK    3  A    between atoms: C_10  and  C_11
REMARK    4  A    between atoms: N_13  and  C_14
REMARK    5  A    between atoms: N_13  and  C_20
REMARK                            x       y       z     vdW  Elec       q    Type
REMARK                         _______ _______ _______ _____ _____    ______ ____
ROOT
ATOM      1  C   UNL     1      -1.443  12.334  21.127  0.00  0.00    +0.000 A 
ATOM      2  C   UNL     1      -2.664  12.745  21.641  0.00  0.00    +0.000 A 
ATOM      3  C   UNL     1      -3.071  14.085  21.471  0.00  0.00    +0.000 A 
ATOM      4  C   UNL     1      -2.137  15.005  20.918  0.00  0.00    +0.000 A 
ATOM      5  C   UNL     1      -2.212  16.430  20.924  0.00  0.00    +0.000 A 
ATOM      6  C   UNL     1      -1.565  17.166  19.931  0.00  0.00    +0.000 A 
ATOM      7  C   UNL     1      -0.746  16.520  19.015  0.00  0.00    +0.000 A 
ATOM      8  C   UNL     1      -0.458  15.173  19.208  0.00  0.00    +0.000 A 
ATOM      9  C   UNL     1      -1.110  14.432  20.182  0.00  0.00    +0.000 A 
ATOM     10  N   UNL     1      -0.741  13.156  20.320  0.00  0.00    +0.000 NA
ENDROOT
BRANCH   1  17
ATOM     11  C   UNL     1      -0.475  10.447  18.934  0.00  0.00    +0.000 C 
ATOM     12  C   UNL     1      -0.276  10.173  20.407  0.00  0.00    +0.000 A 
ATOM     13  C   UNL     1       0.458   9.023  20.752  0.00  0.00    +0.000 A 
ATOM     14  C   UNL     1       0.700   8.696  22.082  0.00  0.00    +0.000 A 
ATOM     15  C   UNL     1       0.206   9.521  23.087  0.00  0.00    +0.000 A 
ATOM     16  C   UNL     1      -0.521  10.671  22.761  0.00  0.00    +0.000 A 
ATOM     17  C   UNL     1      -0.779  11.037  21.419  0.00  0.00    +0.000 A 
ENDBRANCH   1  17
BRANCH   3  18
ATOM     18  C   UNL     1      -4.528  14.352  21.821  0.00  0.00    +0.000 C 
ATOM     19  O   UNL     1      -4.690  14.769  22.968  0.00  0.00    +0.000 OA
ATOM     20  N   UNL     1      -5.635  14.037  20.970  0.00  0.00    +0.000 N 
BRANCH  20  21
ATOM     21  C   UNL     1      -7.045  14.046  21.499  0.00  0.00    +0.000 C 
ATOM     22  C   UNL     1      -7.479  12.703  22.095  0.00  0.00    +0.000 C 
ATOM     23  C   UNL     1      -7.084  12.548  23.550  0.00  0.00    +0.000 C 
ATOM     24  C   UNL     1      -7.733  13.623  24.406  0.00  0.00    +0.000 C 
ATOM     25  C   UNL     1      -7.451  15.034  23.903  0.00  0.00    +0.000 C 
ATOM     26  C   UNL     1      -7.559  15.208  22.382  0.00  0.00    +0.000 C 
ENDBRANCH  20  21
BRANCH  20  27
ATOM     27  C   UNL     1      -5.470  13.584  19.557  0.00  0.00    +0.000 C 
ATOM     28  C   UNL     1      -5.017  12.155  19.272  0.00  0.00    +0.000 C 
ATOM     29  C   UNL     1      -6.078  11.202  18.742  0.00  0.00    +0.000 C 
ATOM     30  C   UNL     1      -7.169  11.812  17.867  0.00  0.00    +0.000 C 
ATOM     31  C   UNL     1      -7.626  13.216  18.232  0.00  0.00    +0.000 C 
ATOM     32  C   UNL     1      -6.470  14.148  18.542  0.00  0.00    +0.000 C 
ENDBRANCH  20  27
ENDBRANCH   3  18
TORSDOF 4
ENDMDL
MODEL 6
REMARK VINA RESULT:      -7.2      0.894      1.175
REMARK  Name = 
REMARK  5 active torsions:
REMARK  status: ('A' for Active; 'I' for Inactive)
REMARK    1  A    between atoms: C_1  and  C_2
REMARK    2  A    between atoms: C_7  and  C_8
REMARK    3  A    between atoms: C_10  and  C_11
REMARK    4  A    between atoms: N_13  and  C_14
REMARK    5  A    between atoms: N_13  and  C_20
REMARK                            x       y       z     vdW  Elec       q    Type
REMARK                         _______ _______ _______ _____ _____    ______ ____
ROOT
ATOM      1  C   UNL     1       0.701  10.519  19.188  0.00  0.00    +0.000 A 
ATOM      2  C   UNL     1      -0.642  10.776  19.419  0.00  0.00    +0.000 A 
ATOM      3  C   UNL     1      -1.088  12.112  19.497  0.00  0.00    +0.000 A 
ATOM      4  C   UNL     1      -0.112  13.147  19.495  0.00  0.00    +0.000 A 
ATOM      5  C   UNL     1      -0.294  14.516  19.852  0.00  0.00    +0.000 A 
ATOM      6  C   UNL     1       0.543  15.494  19.314  0.00  0.00    +0.000 A 
ATOM      7  C   UNL     1       1.629  15.122  18.536  0.00  0.00    +0.000 A 
ATOM      8  C   UNL     1       1.956  13.772  18.443  0.00  0.00    +0.000 A 
ATOM      9  C   UNL     1       1.120  12.795  18.961  0.00  0.00    +0.000 A 
ATOM     10  N   UNL     1       1.534  11.530  18.859  0.00  0.00    +0.000 NA
ENDROOT
BRANCH   1  17
ATOM     11  C   UNL     1       0.793   8.954  21.806  0.00  0.00    +0.000 C 
ATOM     12  C   UNL     1       1.361   8.428  20.508  0.00  0.00    +0.000 A 
ATOM     13  C   UNL     1       1.883   7.121  20.521  0.00  0.00    +0.000 A 
ATOM     14  C   UNL     1       2.419   6.549  19.371  0.00  0.00    +0.000 A 
ATOM     15  C   UNL     1       2.436   7.284  18.190  0.00  0.00    +0.000 A 
ATOM     16  C   UNL     1       1.915   8.582  18.158  0.00  0.00    +0.000 A 
ATOM     17  C   UNL     1       1.357   9.190  19.308  0.00  0.00    +0.000 A 
ENDBRANCH   1  17
BRANCH   3  18
ATOM     18  C   UNL     1      -2.601  12.275  19.472  0.00  0.00    +0.000 C 
ATOM     19  O   UNL     1      -3.119  11.896  18.421  0.00  0.00    +0.000 OA
ATOM     20  N   UNL     1      -3.362  12.923  20.497  0.00  0.00    +0.000 N 
BRANCH  20  21
ATOM     21  C   UNL     1      -4.797  13.315  20.264  0.00  0.00    +0.000 C 
ATOM     22  C   UNL     1      -5.419  12.645  19.033  0.00  0.00    +0.000 C 
ATOM     23  C   UNL     1      -5.989  11.274  19.333  0.00  0.00    +0.000 C 
ATOM     24  C   UNL     1      -7.094  11.361  20.373  0.00  0.00    +0.000 C 
ATOM     25  C   UNL     1      -6.654  12.068  21.650  0.00  0.00    +0.000 C 
ATOM     26  C   UNL     1      -5.817  13.335  21.427  0.00  0.00    +0.000 C 
ENDBRANCH  20  21
BRANCH  20  27
ATOM     27  C   UNL     1      -2.773  13.343  21.803  0.00  0.00    +0.000 C 
ATOM     28  C   UNL     1      -3.089  14.726  22.362  0.00  0.00    +0.000 C 
ATOM     29  C   UNL     1      -4.042  14.775  23.547  0.00  0.00    +0.000 C 
ATOM     30  C   UNL     1      -4.001  13.589  24.507  0.00  0.00    +0.000 C 
ATOM     31  C   UNL     1      -3.740  12.224  23.888  0.00  0.00    +0.000 C 
ATOM     32  C   UNL     1      -2.623  12.247  22.863  0.00  0.00    +0.000 C 
ENDBRANCH  20  27
ENDBRANCH   3  18
TORSDOF 4
ENDMDL
MODEL 7
REMARK VINA RESULT:      -7.2      2.957      5.062
REMARK  Name = 
REMARK  5 active torsions:
REMARK  status: ('A' for Active; 'I' for Inactive)
REMARK    1  A    between atoms: C_1  and  C_2
REMARK    2  A    between atoms: C_7  and  C_8
REMARK    3  A    between atoms: C_10  and  C_11
REMARK    4  A    between atoms: N_13  and  C_14
REMARK    5  A    between atoms: N_13  and  C_20
REMARK                            x       y       z     vdW  Elec       q    Type
REMARK                         _______ _______ _______ _____ _____    ______ ____
ROOT
ATOM      1  C   UNL     1       2.840  15.086  18.945  0.00  0.00    +0.000 A 
ATOM      2  C   UNL     1       2.031  13.964  18.843  0.00  0.00    +0.000 A 
ATOM      3  C   UNL     1       0.638  14.098  19.019  0.00  0.00    +0.000 A 
ATOM      4  C   UNL     1       0.134  15.355  19.455  0.00  0.00    +0.000 A 
ATOM      5  C   UNL     1      -1.165  15.640  19.972  0.00  0.00    +0.000 A 
ATOM      6  C   UNL     1      -1.697  16.924  19.852  0.00  0.00    +0.000 A 
ATOM      7  C   UNL     1      -0.914  17.952  19.346  0.00  0.00    +0.000 A 
ATOM      8  C   UNL     1       0.439  17.716  19.122  0.00  0.00    +0.000 A 
ATOM      9  C   UNL     1       0.970  16.439  19.223  0.00  0.00    +0.000 A 
ATOM     10  N   UNL     1       2.284  16.313  19.028  0.00  0.00    +0.000 NA
ENDROOT
BRANCH   1  17
ATOM     11  C   UNL     1       4.370  15.211  21.583  0.00  0.00    +0.000 C 
ATOM     12  C   UNL     1       5.049  15.078  20.239  0.00  0.00    +0.000 A 
ATOM     13  C   UNL     1       6.449  14.931  20.240  0.00  0.00    +0.000 A 
ATOM     14  C   UNL     1       7.159  14.793  19.052  0.00  0.00    +0.000 A 
ATOM     15  C   UNL     1       6.470  14.799  17.843  0.00  0.00    +0.000 A 
ATOM     16  C   UNL     1       5.078  14.937  17.824  0.00  0.00    +0.000 A 
ATOM     17  C   UNL     1       4.325  15.073  19.015  0.00  0.00    +0.000 A 
ENDBRANCH   1  17
BRANCH   3  18
ATOM     18  C   UNL     1      -0.170  12.875  18.613  0.00  0.00    +0.000 C 
ATOM     19  O   UNL     1      -0.656  12.959  17.485  0.00  0.00    +0.000 OA
ATOM     20  N   UNL     1      -0.466  11.775  19.480  0.00  0.00    +0.000 N 
BRANCH  20  21
ATOM     21  C   UNL     1      -1.513  10.758  19.112  0.00  0.00    +0.000 C 
ATOM     22  C   UNL     1      -2.939  11.196  19.470  0.00  0.00    +0.000 C 
ATOM     23  C   UNL     1      -3.583  12.043  18.391  0.00  0.00    +0.000 C 
ATOM     24  C   UNL     1      -3.690  11.271  17.086  0.00  0.00    +0.000 C 
ATOM     25  C   UNL     1      -2.354  10.705  16.620  0.00  0.00    +0.000 C 
ATOM     26  C   UNL     1      -1.504  10.068  17.727  0.00  0.00    +0.000 C 
ENDBRANCH  20  21
BRANCH  20  27
ATOM     27  C   UNL     1       0.151  11.618  20.831  0.00  0.00    +0.000 C 
ATOM     28  C   UNL     1      -0.541  12.220  22.050  0.00  0.00    +0.000 C 
ATOM     29  C   UNL     1      -1.223  11.240  22.993  0.00  0.00    +0.000 C 
ATOM     30  C   UNL     1      -0.589   9.858  23.120  0.00  0.00    +0.000 C 
ATOM     31  C   UNL     1       0.035   9.279  21.859  0.00  0.00    +0.000 C 
ATOM     32  C   UNL     1       0.870  10.291  21.098  0.00  0.00    +0.000 C 
ENDBRANCH  20  27
ENDBRANCH   3  18
TORSDOF 4
ENDMDL
MODEL 8
REMARK VINA RESULT:      -7.1      2.531      5.857
REMARK  Name = 
REMARK  5 active torsions:
REMARK  status: ('A' for Active; 'I' for Inactive)
REMARK    1  A    between atoms: C_1  and  C_2
REMARK    2  A    between atoms: C_7  and  C_8
REMARK    3  A    between atoms: C_10  and  C_11
REMARK    4  A    between atoms: N_13  and  C_14
REMARK    5  A    between atoms: N_13  and  C_20
REMARK                            x       y       z     vdW  Elec       q    Type
REMARK                         _______ _______ _______ _____ _____    ______ ____
ROOT
ATOM      1  C   UNL     1      -1.817  11.009  19.270  0.00  0.00    +0.000 A 
ATOM      2  C   UNL     1      -2.024  11.944  20.274  0.00  0.00    +0.000 A 
ATOM      3  C   UNL     1      -1.376  11.780  21.516  0.00  0.00    +0.000 A 
ATOM      4  C   UNL     1      -0.659  10.572  21.745  0.00  0.00    +0.000 A 
ATOM      5  C   UNL     1      -0.184  10.064  22.991  0.00  0.00    +0.000 A 
ATOM      6  C   UNL     1       0.916   9.208  23.021  0.00  0.00    +0.000 A 
ATOM      7  C   UNL     1       1.467   8.749  21.833  0.00  0.00    +0.000 A 
ATOM      8  C   UNL     1       0.808   9.023  20.639  0.00  0.00    +0.000 A 
ATOM      9  C   UNL     1      -0.276   9.887  20.600  0.00  0.00    +0.000 A 
ATOM     10  N   UNL     1      -0.868  10.061  19.417  0.00  0.00    +0.000 NA
ENDROOT
BRANCH   1  17
ATOM     11  C   UNL     1      -4.649  12.110  18.992  0.00  0.00    +0.000 C 
ATOM     12  C   UNL     1      -3.895  11.472  17.848  0.00  0.00    +0.000 A 
ATOM     13  C   UNL     1      -4.524  11.466  16.590  0.00  0.00    +0.000 A 
ATOM     14  C   UNL     1      -3.902  10.909  15.477  0.00  0.00    +0.000 A 
ATOM     15  C   UNL     1      -2.636  10.349  15.613  0.00  0.00    +0.000 A 
ATOM     16  C   UNL     1      -1.994  10.353  16.857  0.00  0.00    +0.000 A 
ATOM     17  C   UNL     1      -2.595  10.917  18.006  0.00  0.00    +0.000 A 
ENDBRANCH   1  17
BRANCH   3  18
ATOM     18  C   UNL     1      -1.449  12.993  22.432  0.00  0.00    +0.000 C 
ATOM     19  O   UNL     1      -2.311  12.897  23.306  0.00  0.00    +0.000 OA
ATOM     20  N   UNL     1      -0.696  14.196  22.244  0.00  0.00    +0.000 N 
BRANCH  20  21
ATOM     21  C   UNL     1      -1.041  15.451  23.000  0.00  0.00    +0.000 C 
ATOM     22  C   UNL     1      -2.176  16.256  22.357  0.00  0.00    +0.000 C 
ATOM     23  C   UNL     1      -3.550  15.786  22.788  0.00  0.00    +0.000 C 
ATOM     24  C   UNL     1      -3.726  15.930  24.291  0.00  0.00    +0.000 C 
ATOM     25  C   UNL     1      -2.629  15.233  25.087  0.00  0.00    +0.000 C 
ATOM     26  C   UNL     1      -1.210  15.435  24.538  0.00  0.00    +0.000 C 
ENDBRANCH  20  21
BRANCH  20  27
ATOM     27  C   UNL     1       0.393  14.322  21.230  0.00  0.00    +0.000 C 
ATOM     28  C   UNL     1       0.068  14.854  19.837  0.00  0.00    +0.000 C 
ATOM     29  C   UNL     1       0.539  16.267  19.527  0.00  0.00    +0.000 C 
ATOM     30  C   UNL     1       1.830  16.722  20.201  0.00  0.00    +0.000 C 
ATOM     31  C   UNL     1       2.076  16.209  21.612  0.00  0.00    +0.000 C 
ATOM     32  C   UNL     1       1.770  14.731  21.762  0.00  0.00    +0.000 C 
ENDBRANCH  20  27
ENDBRANCH   3  18
TORSDOF 4
ENDMDL
MODEL 9
REMARK VINA RESULT:      -7.1      1.495      2.544
REMARK  Name = 
REMARK  5 active torsions:
REMARK  status: ('A' for Active; 'I' for Inactive)
REMARK    1  A    between atoms: C_1  and  C_2
REMARK    2  A    between atoms: C_7  and  C_8
REMARK    3  A    between atoms: C_10  and  C_11
REMARK    4  A    between atoms: N_13  and  C_14
REMARK    5  A    between atoms: N_13  and  C_20
REMARK                            x       y       z     vdW  Elec       q    Type
REMARK                         _______ _______ _______ _____ _____    ______ ____
ROOT
ATOM      1  C   UNL     1      -0.427  11.464  19.882  0.00  0.00    +0.000 A 
ATOM      2  C   UNL     1      -1.764  11.556  20.239  0.00  0.00    +0.000 A 
ATOM      3  C   UNL     1      -2.377  12.825  20.301  0.00  0.00    +0.000 A 
ATOM      4  C   UNL     1      -1.555  13.976  20.148  0.00  0.00    +0.000 A 
ATOM      5  C   UNL     1      -1.886  15.329  20.458  0.00  0.00    +0.000 A 
ATOM      6  C   UNL     1      -1.246  16.374  19.790  0.00  0.00    +0.000 A 
ATOM      7  C   UNL     1      -0.200  16.100  18.921  0.00  0.00    +0.000 A 
ATOM      8  C   UNL     1       0.297  14.801  18.858  0.00  0.00    +0.000 A 
ATOM      9  C   UNL     1      -0.345  13.757  19.506  0.00  0.00    +0.000 A 
ATOM     10  N   UNL     1       0.225  12.552  19.421  0.00  0.00    +0.000 NA
ENDROOT
BRANCH   1  17
ATOM     11  C   UNL     1      -0.198   9.852  22.462  0.00  0.00    +0.000 C 
ATOM     12  C   UNL     1       0.485   9.452  21.175  0.00  0.00    +0.000 A 
ATOM     13  C   UNL     1       1.193   8.235  21.176  0.00  0.00    +0.000 A 
ATOM     14  C   UNL     1       1.846   7.781  20.034  0.00  0.00    +0.000 A 
ATOM     15  C   UNL     1       1.796   8.545  18.872  0.00  0.00    +0.000 A 
ATOM     16  C   UNL     1       1.091   9.754  18.853  0.00  0.00    +0.000 A 
ATOM     17  C   UNL     1       0.412  10.241  19.994  0.00  0.00    +0.000 A 
ENDBRANCH   1  17
BRANCH   3  18
ATOM     18  C   UNL     1      -3.893  12.788  20.426  0.00  0.00    +0.000 C 
ATOM     19  O   UNL     1      -4.473  12.681  19.346  0.00  0.00    +0.000 OA
ATOM     20  N   UNL     1      -4.610  12.988  21.649  0.00  0.00    +0.000 N 
BRANCH  20  21
ATOM     21  C   UNL     1      -6.093  13.240  21.645  0.00  0.00    +0.000 C 
ATOM     22  C   UNL     1      -6.887  12.219  22.469  0.00  0.00    +0.000 C 
ATOM     23  C   UNL     1      -6.970  12.585  23.937  0.00  0.00    +0.000 C 
ATOM     24  C   UNL     1      -7.673  13.920  24.125  0.00  0.00    +0.000 C 
ATOM     25  C   UNL     1      -7.041  15.043  23.311  0.00  0.00    +0.000 C 
ATOM     26  C   UNL     1      -6.663  14.661  21.874  0.00  0.00    +0.000 C 
ENDBRANCH  20  21
BRANCH  20  27
ATOM     27  C   UNL     1      -3.937  13.066  22.980  0.00  0.00    +0.000 C 
ATOM     28  C   UNL     1      -2.755  12.151  23.282  0.00  0.00    +0.000 C 
ATOM     29  C   UNL     1      -1.381  12.805  23.306  0.00  0.00    +0.000 C 
ATOM     30  C   UNL     1      -1.323  14.255  23.777  0.00  0.00    +0.000 C 
ATOM     31  C   UNL     1      -2.501  15.140  23.397  0.00  0.00    +0.000 C 
ATOM     32  C   UNL     1      -3.839  14.460  23.609  0.00  0.00    +0.000 C 
ENDBRANCH  20  27
ENDBRANCH   3  18
TORSDOF 4
ENDMDL
