MODEL 1
REMARK VINA RESULT:      -7.6      0.000      0.000
REMARK  Name = 
REMARK  7 active torsions:
REMARK  status: ('A' for Active; 'I' for Inactive)
REMARK    1  A    between atoms: C_1  and  C_2
REMARK    2  A    between atoms: C_2  and  N_3
REMARK    3  A    between atoms: C_5  and  C_6
REMARK    4  A    between atoms: C_6  and  C_7
REMARK    5  A    between atoms: C_7  and  N_8
REMARK    6  A    between atoms: N_12  and  C_13
REMARK    7  A    between atoms: C_13  and  C_14
REMARK                            x       y       z     vdW  Elec       q    Type
REMARK                         _______ _______ _______ _____ _____    ______ ____
ROOT
ATOM      1  N   UNL     1       7.591   6.317  17.263  0.00  0.00    +0.000 NA
ATOM      2  C   UNL     1       7.076   5.557  18.419  0.00  0.00    +0.000 C 
ATOM      3  C   UNL     1       5.712   4.965  18.044  0.00  0.00    +0.000 C 
ATOM      4  C   UNL     1       4.568   5.253  19.009  0.00  0.00    +0.000 C 
ATOM      5  N   UNL     1       3.778   6.374  18.462  0.00  0.00    +0.000 NA
ATOM      6  C   UNL     1       4.446   6.827  17.236  0.00  0.00    +0.000 C 
ATOM      7  C   UNL     1       5.324   5.675  16.769  0.00  0.00    +0.000 C 
ATOM      8  C   UNL     1       6.659   6.047  16.150  0.00  0.00    +0.000 C 
ENDROOT
BRANCH   1   9
ATOM      9  C   UNL     1       7.734   7.764  17.509  0.00  0.00    +0.000 C 
BRANCH   9  10
ATOM     10  C   UNL     1       8.557   8.184  18.740  0.00  0.00    +0.000 C 
BRANCH  10  13
ATOM     11  N   UNL     1       9.366  11.725  19.206  0.00  0.00    +0.000 N 
ATOM     12  C   UNL     1       9.422  10.442  19.669  0.00  0.00    +0.000 A 
ATOM     13  C   UNL     1       8.838   9.655  18.695  0.00  0.00    +0.000 A 
ATOM     14  C   UNL     1       8.496  10.568  17.674  0.00  0.00    +0.000 A 
ATOM     15  N   UNL     1       8.819  11.826  17.980  0.00  0.00    +0.000 NA
BRANCH  11  17
ATOM     16  C   UNL     1       9.776  12.732  21.417  0.00  0.00    +0.000 C 
ATOM     17  C   UNL     1       9.782  12.922  19.907  0.00  0.00    +0.000 C 
ENDBRANCH  11  17
ENDBRANCH  10  13
ENDBRANCH   9  10
ENDBRANCH   1   9
BRANCH   5  18
ATOM     18  C   UNL     1       2.383   6.024  18.169  0.00  0.00    +0.000 C 
BRANCH  18  19
ATOM     19  C   UNL     1       1.874   4.800  18.895  0.00  0.00    +0.000 A 
ATOM     20  C   UNL     1       1.547   3.628  18.197  0.00  0.00    +0.000 A 
ATOM     21  C   UNL     1       1.141   2.485  18.888  0.00  0.00    +0.000 A 
ATOM     22  C   UNL     1       1.061   2.503  20.280  0.00  0.00    +0.000 A 
ATOM     23  C   UNL     1       1.382   3.665  20.981  0.00  0.00    +0.000 A 
ATOM     24  C   UNL     1       1.785   4.805  20.292  0.00  0.00    +0.000 A 
ENDBRANCH  18  19
ENDBRANCH   5  18
TORSDOF 6
ENDMDL
MODEL 2
REMARK VINA RESULT:      -7.6      0.797      1.401
REMARK  Name = 
REMARK  7 active torsions:
REMARK  status: ('A' for Active; 'I' for Inactive)
REMARK    1  A    between atoms: C_1  and  C_2
REMARK    2  A    between atoms: C_2  and  N_3
REMARK    3  A    between atoms: C_5  and  C_6
REMARK    4  A    between atoms: C_6  and  C_7
REMARK    5  A    between atoms: C_7  and  N_8
REMARK    6  A    between atoms: N_12  and  C_13
REMARK    7  A    between atoms: C_13  and  C_14
REMARK                            x       y       z     vdW  Elec       q    Type
REMARK                         _______ _______ _______ _____ _____    ______ ____
ROOT
ATOM      1  N   UNL     1       7.663   6.506  17.459  0.00  0.00    +0.000 NA
ATOM      2  C   UNL     1       7.115   5.856  18.666  0.00  0.00    +0.000 C 
ATOM      3  C   UNL     1       5.805   5.154  18.289  0.00  0.00    +0.000 C 
ATOM      4  C   UNL     1       4.592   5.489  19.150  0.00  0.00    +0.000 C 
ATOM      5  N   UNL     1       3.786   6.497  18.433  0.00  0.00    +0.000 NA
ATOM      6  C   UNL     1       4.505   6.842  17.201  0.00  0.00    +0.000 C 
ATOM      7  C   UNL     1       5.462   5.693  16.920  0.00  0.00    +0.000 C 
ATOM      8  C   UNL     1       6.813   6.061  16.336  0.00  0.00    +0.000 C 
ENDROOT
BRANCH   1   9
ATOM      9  C   UNL     1       7.723   7.977  17.542  0.00  0.00    +0.000 C 
BRANCH   9  10
ATOM     10  C   UNL     1       8.588   8.576  18.666  0.00  0.00    +0.000 C 
BRANCH  10  13
ATOM     11  N   UNL     1       9.651  12.073  18.427  0.00  0.00    +0.000 N 
ATOM     12  C   UNL     1       9.891  10.806  18.874  0.00  0.00    +0.000 A 
ATOM     13  C   UNL     1       8.859  10.024  18.391  0.00  0.00    +0.000 A 
ATOM     14  C   UNL     1       8.073  10.921  17.635  0.00  0.00    +0.000 A 
ATOM     15  N   UNL     1       8.553  12.166  17.653  0.00  0.00    +0.000 NA
BRANCH  11  17
ATOM     16  C   UNL     1      11.336  13.666  17.598  0.00  0.00    +0.000 C 
ATOM     17  C   UNL     1      10.413  13.265  18.738  0.00  0.00    +0.000 C 
ENDBRANCH  11  17
ENDBRANCH  10  13
ENDBRANCH   9  10
ENDBRANCH   1   9
BRANCH   5  18
ATOM     18  C   UNL     1       2.428   6.043  18.107  0.00  0.00    +0.000 C 
BRANCH  18  19
ATOM     19  C   UNL     1       2.046   4.712  18.714  0.00  0.00    +0.000 A 
ATOM     20  C   UNL     1       1.596   4.623  20.039  0.00  0.00    +0.000 A 
ATOM     21  C   UNL     1       1.185   3.396  20.563  0.00  0.00    +0.000 A 
ATOM     22  C   UNL     1       1.218   2.251  19.768  0.00  0.00    +0.000 A 
ATOM     23  C   UNL     1       1.668   2.332  18.450  0.00  0.00    +0.000 A 
ATOM     24  C   UNL     1       2.078   3.554  17.927  0.00  0.00    +0.000 A 
ENDBRANCH  18  19
ENDBRANCH   5  18
TORSDOF 6
ENDMDL
MODEL 3
REMARK VINA RESULT:      -7.6      3.787      6.228
REMARK  Name = 
REMARK  7 active torsions:
REMARK  status: ('A' for Active; 'I' for Inactive)
REMARK    1  A    between atoms: C_1  and  C_2
REMARK    2  A    between atoms: C_2  and  N_3
REMARK    3  A    between atoms: C_5  and  C_6
REMARK    4  A    between atoms: C_6  and  C_7
REMARK    5  A    between atoms: C_7  and  N_8
REMARK    6  A    between atoms: N_12  and  C_13
REMARK    7  A    between atoms: C_13  and  C_14
REMARK                            x       y       z     vdW  Elec       q    Type
REMARK                         _______ _______ _______ _____ _____    ______ ____
ROOT
ATOM      1  N   UNL     1       5.995   6.667  17.403  0.00  0.00    +0.000 NA
ATOM      2  C   UNL     1       4.539   6.851  17.558  0.00  0.00    +0.000 C 
ATOM      3  C   UNL     1       3.982   5.671  18.365  0.00  0.00    +0.000 C 
ATOM      4  C   UNL     1       2.803   4.931  17.746  0.00  0.00    +0.000 C 
ATOM      5  N   UNL     1       3.320   3.713  17.090  0.00  0.00    +0.000 NA
ATOM      6  C   UNL     1       4.782   3.727  17.225  0.00  0.00    +0.000 C 
ATOM      7  C   UNL     1       5.102   4.658  18.384  0.00  0.00    +0.000 C 
ATOM      8  C   UNL     1       6.352   5.509  18.246  0.00  0.00    +0.000 C 
ENDROOT
BRANCH   1   9
ATOM      9  C   UNL     1       6.433   6.475  16.008  0.00  0.00    +0.000 C 
BRANCH   9  10
ATOM     10  C   UNL     1       7.270   5.219  15.707  0.00  0.00    +0.000 C 
BRANCH  10  13
ATOM     11  N   UNL     1       6.277   3.617  12.566  0.00  0.00    +0.000 N 
ATOM     12  C   UNL     1       6.085   3.779  13.908  0.00  0.00    +0.000 A 
ATOM     13  C   UNL     1       6.994   4.737  14.315  0.00  0.00    +0.000 A 
ATOM     14  C   UNL     1       7.659   5.107  13.125  0.00  0.00    +0.000 A 
ATOM     15  N   UNL     1       7.223   4.431  12.061  0.00  0.00    +0.000 NA
BRANCH  11  17
ATOM     16  C   UNL     1       4.222   3.126  11.300  0.00  0.00    +0.000 C 
ATOM     17  C   UNL     1       5.615   2.663  11.701  0.00  0.00    +0.000 C 
ENDBRANCH  11  17
ENDBRANCH  10  13
ENDBRANCH   9  10
ENDBRANCH   1   9
BRANCH   5  18
ATOM     18  C   UNL     1       2.780   2.468  17.649  0.00  0.00    +0.000 C 
BRANCH  18  19
ATOM     19  C   UNL     1       2.323   2.568  19.086  0.00  0.00    +0.000 A 
ATOM     20  C   UNL     1       3.225   2.400  20.147  0.00  0.00    +0.000 A 
ATOM     21  C   UNL     1       2.800   2.561  21.467  0.00  0.00    +0.000 A 
ATOM     22  C   UNL     1       1.473   2.892  21.737  0.00  0.00    +0.000 A 
ATOM     23  C   UNL     1       0.569   3.058  20.688  0.00  0.00    +0.000 A 
ATOM     24  C   UNL     1       0.992   2.897  19.372  0.00  0.00    +0.000 A 
ENDBRANCH  18  19
ENDBRANCH   5  18
TORSDOF 6
ENDMDL
MODEL 4
REMARK VINA RESULT:      -7.4      3.768      6.940
REMARK  Name = 
REMARK  7 active torsions:
REMARK  status: ('A' for Active; 'I' for Inactive)
REMARK    1  A    between atoms: C_1  and  C_2
REMARK    2  A    between atoms: C_2  and  N_3
REMARK    3  A    between atoms: C_5  and  C_6
REMARK    4  A    between atoms: C_6  and  C_7
REMARK    5  A    between atoms: C_7  and  N_8
REMARK    6  A    between atoms: N_12  and  C_13
REMARK    7  A    between atoms: C_13  and  C_14
REMARK                            x       y       z     vdW  Elec       q    Type
REMARK                         _______ _______ _______ _____ _____    ______ ____
ROOT
ATOM      1  N   UNL     1       7.289   4.832  16.543  0.00  0.00    +0.000 NA
ATOM      2  C   UNL     1       6.864   6.246  16.540  0.00  0.00    +0.000 C 
ATOM      3  C   UNL     1       5.952   6.483  17.749  0.00  0.00    +0.000 C 
ATOM      4  C   UNL     1       4.603   7.128  17.456  0.00  0.00    +0.000 C 
ATOM      5  N   UNL     1       3.584   6.059  17.409  0.00  0.00    +0.000 NA
ATOM      6  C   UNL     1       4.281   4.779  17.590  0.00  0.00    +0.000 C 
ATOM      7  C   UNL     1       5.613   5.099  18.251  0.00  0.00    +0.000 C 
ATOM      8  C   UNL     1       6.804   4.264  17.817  0.00  0.00    +0.000 C 
ENDROOT
BRANCH   1   9
ATOM      9  C   UNL     1       6.807   4.055  15.387  0.00  0.00    +0.000 C 
BRANCH   9  10
ATOM     10  C   UNL     1       7.109   4.626  13.989  0.00  0.00    +0.000 C 
BRANCH  10  13
ATOM     11  N   UNL     1       4.681   3.189  11.654  0.00  0.00    +0.000 N 
ATOM     12  C   UNL     1       5.013   4.179  12.534  0.00  0.00    +0.000 A 
ATOM     13  C   UNL     1       6.302   3.907  12.953  0.00  0.00    +0.000 A 
ATOM     14  C   UNL     1       6.659   2.746  12.232  0.00  0.00    +0.000 A 
ATOM     15  N   UNL     1       5.677   2.310  11.440  0.00  0.00    +0.000 NA
BRANCH  11  17
ATOM     16  C   UNL     1       3.245   3.876   9.774  0.00  0.00    +0.000 C 
ATOM     17  C   UNL     1       3.400   2.995  11.005  0.00  0.00    +0.000 C 
ENDBRANCH  11  17
ENDBRANCH  10  13
ENDBRANCH   9  10
ENDBRANCH   1   9
BRANCH   5  18
ATOM     18  C   UNL     1       2.533   6.202  18.424  0.00  0.00    +0.000 C 
BRANCH  18  19
ATOM     19  C   UNL     1       2.187   4.926  19.157  0.00  0.00    +0.000 A 
ATOM     20  C   UNL     1       2.561   4.735  20.495  0.00  0.00    +0.000 A 
ATOM     21  C   UNL     1       2.177   3.579  21.177  0.00  0.00    +0.000 A 
ATOM     22  C   UNL     1       1.415   2.608  20.529  0.00  0.00    +0.000 A 
ATOM     23  C   UNL     1       1.041   2.789  19.198  0.00  0.00    +0.000 A 
ATOM     24  C   UNL     1       1.425   3.941  18.517  0.00  0.00    +0.000 A 
ENDBRANCH  18  19
ENDBRANCH   5  18
TORSDOF 6
ENDMDL
MODEL 5
REMARK VINA RESULT:      -7.4      0.774      1.220
REMARK  Name = 
REMARK  7 active torsions:
REMARK  status: ('A' for Active; 'I' for Inactive)
REMARK    1  A    between atoms: C_1  and  C_2
REMARK    2  A    between atoms: C_2  and  N_3
REMARK    3  A    between atoms: C_5  and  C_6
REMARK    4  A    between atoms: C_6  and  C_7
REMARK    5  A    between atoms: C_7  and  N_8
REMARK    6  A    between atoms: N_12  and  C_13
REMARK    7  A    between atoms: C_13  and  C_14
REMARK                            x       y       z     vdW  Elec       q    Type
REMARK                         _______ _______ _______ _____ _____    ______ ____
ROOT
ATOM      1  N   UNL     1       7.516   6.411  17.590  0.00  0.00    +0.000 NA
ATOM      2  C   UNL     1       6.949   5.693  18.749  0.00  0.00    +0.000 C 
ATOM      3  C   UNL     1       5.586   5.117  18.347  0.00  0.00    +0.000 C 
ATOM      4  C   UNL     1       4.418   5.453  19.266  0.00  0.00    +0.000 C 
ATOM      5  N   UNL     1       3.668   6.573  18.662  0.00  0.00    +0.000 NA
ATOM      6  C   UNL     1       4.384   6.979  17.446  0.00  0.00    +0.000 C 
ATOM      7  C   UNL     1       5.253   5.798  17.040  0.00  0.00    +0.000 C 
ATOM      8  C   UNL     1       6.615   6.127  16.456  0.00  0.00    +0.000 C 
ENDROOT
BRANCH   1   9
ATOM      9  C   UNL     1       7.679   7.861  17.801  0.00  0.00    +0.000 C 
BRANCH   9  10
ATOM     10  C   UNL     1       8.673   8.299  18.891  0.00  0.00    +0.000 C 
BRANCH  10  13
ATOM     11  N   UNL     1       9.002  11.889  18.246  0.00  0.00    +0.000 N 
ATOM     12  C   UNL     1       8.600  10.657  17.819  0.00  0.00    +0.000 A 
ATOM     13  C   UNL     1       8.844   9.787  18.865  0.00  0.00    +0.000 A 
ATOM     14  C   UNL     1       9.363  10.615  19.885  0.00  0.00    +0.000 A 
ATOM     15  N   UNL     1       9.457  11.893  19.512  0.00  0.00    +0.000 NA
BRANCH  11  17
ATOM     16  C   UNL     1      10.040  14.110  18.004  0.00  0.00    +0.000 C 
ATOM     17  C   UNL     1       9.020  13.115  17.473  0.00  0.00    +0.000 C 
ENDBRANCH  11  17
ENDBRANCH  10  13
ENDBRANCH   9  10
ENDBRANCH   1   9
BRANCH   5  18
ATOM     18  C   UNL     1       2.276   6.242  18.333  0.00  0.00    +0.000 C 
BRANCH  18  19
ATOM     19  C   UNL     1       1.810   4.898  18.846  0.00  0.00    +0.000 A 
ATOM     20  C   UNL     1       1.723   3.788  17.993  0.00  0.00    +0.000 A 
ATOM     21  C   UNL     1       1.353   2.539  18.496  0.00  0.00    +0.000 A 
ATOM     22  C   UNL     1       1.071   2.390  19.853  0.00  0.00    +0.000 A 
ATOM     23  C   UNL     1       1.152   3.489  20.707  0.00  0.00    +0.000 A 
ATOM     24  C   UNL     1       1.519   4.735  20.206  0.00  0.00    +0.000 A 
ENDBRANCH  18  19
ENDBRANCH   5  18
TORSDOF 6
ENDMDL
MODEL 6
REMARK VINA RESULT:      -7.4      3.465      6.822
REMARK  Name = 
REMARK  7 active torsions:
REMARK  status: ('A' for Active; 'I' for Inactive)
REMARK    1  A    between atoms: C_1  and  C_2
REMARK    2  A    between atoms: C_2  and  N_3
REMARK    3  A    between atoms: C_5  and  C_6
REMARK    4  A    between atoms: C_6  and  C_7
REMARK    5  A    between atoms: C_7  and  N_8
REMARK    6  A    between atoms: N_12  and  C_13
REMARK    7  A    between atoms: C_13  and  C_14
REMARK                            x       y       z     vdW  Elec       q    Type
REMARK                         _______ _______ _______ _____ _____    ______ ____
ROOT
ATOM      1  N   UNL     1       1.624   2.935  20.042  0.00  0.00    +0.000 NA
ATOM      2  C   UNL     1       1.589   2.412  18.662  0.00  0.00    +0.000 C 
ATOM      3  C   UNL     1       3.029   2.166  18.198  0.00  0.00    +0.000 C 
ATOM      4  C   UNL     1       3.424   2.801  16.870  0.00  0.00    +0.000 C 
ATOM      5  N   UNL     1       4.160   4.048  17.159  0.00  0.00    +0.000 NA
ATOM      6  C   UNL     1       4.160   4.232  18.616  0.00  0.00    +0.000 C 
ATOM      7  C   UNL     1       3.887   2.865  19.226  0.00  0.00    +0.000 C 
ATOM      8  C   UNL     1       3.031   2.839  20.479  0.00  0.00    +0.000 C 
ENDROOT
BRANCH   1   9
ATOM      9  C   UNL     1       1.108   4.310  20.177  0.00  0.00    +0.000 C 
BRANCH   9  10
ATOM     10  C   UNL     1       1.936   5.283  21.037  0.00  0.00    +0.000 C 
BRANCH  10  13
ATOM     11  N   UNL     1       1.326   8.775  20.113  0.00  0.00    +0.000 N 
ATOM     12  C   UNL     1       1.239   7.779  21.042  0.00  0.00    +0.000 A 
ATOM     13  C   UNL     1       1.843   6.671  20.479  0.00  0.00    +0.000 A 
ATOM     14  C   UNL     1       2.288   7.126  19.218  0.00  0.00    +0.000 A 
ATOM     15  N   UNL     1       1.979   8.405  18.995  0.00  0.00    +0.000 NA
BRANCH  11  17
ATOM     16  C   UNL     1       0.730  10.811  18.861  0.00  0.00    +0.000 C 
ATOM     17  C   UNL     1       0.765  10.107  20.209  0.00  0.00    +0.000 C 
ENDBRANCH  11  17
ENDBRANCH  10  13
ENDBRANCH   9  10
ENDBRANCH   1   9
BRANCH   5  18
ATOM     18  C   UNL     1       5.539   4.050  16.656  0.00  0.00    +0.000 C 
BRANCH  18  19
ATOM     19  C   UNL     1       6.422   5.128  17.240  0.00  0.00    +0.000 A 
ATOM     20  C   UNL     1       6.359   6.449  16.771  0.00  0.00    +0.000 A 
ATOM     21  C   UNL     1       7.134   7.446  17.365  0.00  0.00    +0.000 A 
ATOM     22  C   UNL     1       7.975   7.133  18.433  0.00  0.00    +0.000 A 
ATOM     23  C   UNL     1       8.046   5.822  18.902  0.00  0.00    +0.000 A 
ATOM     24  C   UNL     1       7.274   4.827  18.310  0.00  0.00    +0.000 A 
ENDBRANCH  18  19
ENDBRANCH   5  18
TORSDOF 6
ENDMDL
MODEL 7
REMARK VINA RESULT:      -7.4      3.425      6.956
REMARK  Name = 
REMARK  7 active torsions:
REMARK  status: ('A' for Active; 'I' for Inactive)
REMARK    1  A    between atoms: C_1  and  C_2
REMARK    2  A    between atoms: C_2  and  N_3
REMARK    3  A    between atoms: C_5  and  C_6
REMARK    4  A    between atoms: C_6  and  C_7
REMARK    5  A    between atoms: C_7  and  N_8
REMARK    6  A    between atoms: N_12  and  C_13
REMARK    7  A    between atoms: C_13  and  C_14
REMARK                            x       y       z     vdW  Elec       q    Type
REMARK                         _______ _______ _______ _____ _____    ______ ____
ROOT
ATOM      1  N   UNL     1       1.799   2.807  19.998  0.00  0.00    +0.000 NA
ATOM      2  C   UNL     1       1.834   2.276  18.621  0.00  0.00    +0.000 C 
ATOM      3  C   UNL     1       3.299   2.114  18.198  0.00  0.00    +0.000 C 
ATOM      4  C   UNL     1       3.692   2.766  16.878  0.00  0.00    +0.000 C 
ATOM      5  N   UNL     1       4.344   4.056  17.179  0.00  0.00    +0.000 NA
ATOM      6  C   UNL     1       4.293   4.246  18.634  0.00  0.00    +0.000 C 
ATOM      7  C   UNL     1       4.085   2.868  19.245  0.00  0.00    +0.000 C 
ATOM      8  C   UNL     1       3.197   2.797  20.474  0.00  0.00    +0.000 C 
ENDROOT
BRANCH   1   9
ATOM      9  C   UNL     1       1.199   4.149  20.111  0.00  0.00    +0.000 C 
BRANCH   9  10
ATOM     10  C   UNL     1       1.876   5.136  21.080  0.00  0.00    +0.000 C 
BRANCH  10  13
ATOM     11  N   UNL     1       1.338   8.639  20.156  0.00  0.00    +0.000 N 
ATOM     12  C   UNL     1       1.216   7.642  21.080  0.00  0.00    +0.000 A 
ATOM     13  C   UNL     1       1.815   6.526  20.525  0.00  0.00    +0.000 A 
ATOM     14  C   UNL     1       2.294   6.980  19.276  0.00  0.00    +0.000 A 
ATOM     15  N   UNL     1       2.009   8.264  19.051  0.00  0.00    +0.000 NA
BRANCH  11  17
ATOM     16  C   UNL     1      -0.443  10.153  19.379  0.00  0.00    +0.000 C 
ATOM     17  C   UNL     1       0.795   9.979  20.245  0.00  0.00    +0.000 C 
ENDBRANCH  11  17
ENDBRANCH  10  13
ENDBRANCH   9  10
ENDBRANCH   1   9
BRANCH   5  18
ATOM     18  C   UNL     1       5.734   4.137  16.714  0.00  0.00    +0.000 C 
BRANCH  18  19
ATOM     19  C   UNL     1       6.555   5.225  17.368  0.00  0.00    +0.000 A 
ATOM     20  C   UNL     1       7.356   4.955  18.487  0.00  0.00    +0.000 A 
ATOM     21  C   UNL     1       8.158   5.956  19.039  0.00  0.00    +0.000 A 
ATOM     22  C   UNL     1       8.168   7.231  18.475  0.00  0.00    +0.000 A 
ATOM     23  C   UNL     1       7.372   7.508  17.364  0.00  0.00    +0.000 A 
ATOM     24  C   UNL     1       6.572   6.512  16.815  0.00  0.00    +0.000 A 
ENDBRANCH  18  19
ENDBRANCH   5  18
TORSDOF 6
ENDMDL
MODEL 8
REMARK VINA RESULT:      -7.3      0.929      1.678
REMARK  Name = 
REMARK  7 active torsions:
REMARK  status: ('A' for Active; 'I' for Inactive)
REMARK    1  A    between atoms: C_1  and  C_2
REMARK    2  A    between atoms: C_2  and  N_3
REMARK    3  A    between atoms: C_5  and  C_6
REMARK    4  A    between atoms: C_6  and  C_7
REMARK    5  A    between atoms: C_7  and  N_8
REMARK    6  A    between atoms: N_12  and  C_13
REMARK    7  A    between atoms: C_13  and  C_14
REMARK                            x       y       z     vdW  Elec       q    Type
REMARK                         _______ _______ _______ _____ _____    ______ ____
ROOT
ATOM      1  N   UNL     1       7.157   6.653  17.027  0.00  0.00    +0.000 NA
ATOM      2  C   UNL     1       6.837   5.677  18.088  0.00  0.00    +0.000 C 
ATOM      3  C   UNL     1       5.421   5.141  17.846  0.00  0.00    +0.000 C 
ATOM      4  C   UNL     1       4.464   5.217  19.029  0.00  0.00    +0.000 C 
ATOM      5  N   UNL     1       3.607   6.407  18.850  0.00  0.00    +0.000 NA
ATOM      6  C   UNL     1       4.062   7.098  17.637  0.00  0.00    +0.000 C 
ATOM      7  C   UNL     1       4.830   6.073  16.815  0.00  0.00    +0.000 C 
ATOM      8  C   UNL     1       6.044   6.581  16.060  0.00  0.00    +0.000 C 
ENDROOT
BRANCH   1   9
ATOM      9  C   UNL     1       7.360   8.029  17.517  0.00  0.00    +0.000 C 
BRANCH   9  10
ATOM     10  C   UNL     1       8.556   8.264  18.458  0.00  0.00    +0.000 C 
BRANCH  10  13
ATOM     11  N   UNL     1       8.954  11.902  18.325  0.00  0.00    +0.000 N 
ATOM     12  C   UNL     1       8.428  10.763  17.787  0.00  0.00    +0.000 A 
ATOM     13  C   UNL     1       8.793   9.733  18.633  0.00  0.00    +0.000 A 
ATOM     14  C   UNL     1       9.508  10.375  19.667  0.00  0.00    +0.000 A 
ATOM     15  N   UNL     1       9.604  11.693  19.484  0.00  0.00    +0.000 NA
BRANCH  11  17
ATOM     16  C   UNL     1       7.484  13.683  17.467  0.00  0.00    +0.000 C 
ATOM     17  C   UNL     1       8.908  13.234  17.757  0.00  0.00    +0.000 C 
ENDBRANCH  11  17
ENDBRANCH  10  13
ENDBRANCH   9  10
ENDBRANCH   1   9
BRANCH   5  18
ATOM     18  C   UNL     1       2.177   6.093  18.739  0.00  0.00    +0.000 C 
BRANCH  18  19
ATOM     19  C   UNL     1       1.804   4.693  19.168  0.00  0.00    +0.000 A 
ATOM     20  C   UNL     1       1.638   4.371  20.523  0.00  0.00    +0.000 A 
ATOM     21  C   UNL     1       1.230   3.090  20.899  0.00  0.00    +0.000 A 
ATOM     22  C   UNL     1       0.982   2.123  19.925  0.00  0.00    +0.000 A 
ATOM     23  C   UNL     1       1.148   2.435  18.576  0.00  0.00    +0.000 A 
ATOM     24  C   UNL     1       1.556   3.711  18.201  0.00  0.00    +0.000 A 
ENDBRANCH  18  19
ENDBRANCH   5  18
TORSDOF 6
ENDMDL
MODEL 9
REMARK VINA RESULT:      -7.3      3.432      6.844
REMARK  Name = 
REMARK  7 active torsions:
REMARK  status: ('A' for Active; 'I' for Inactive)
REMARK    1  A    between atoms: C_1  and  C_2
REMARK    2  A    between atoms: C_2  and  N_3
REMARK    3  A    between atoms: C_5  and  C_6
REMARK    4  A    between atoms: C_6  and  C_7
REMARK    5  A    between atoms: C_7  and  N_8
REMARK    6  A    between atoms: N_12  and  C_13
REMARK    7  A    between atoms: C_13  and  C_14
REMARK                            x       y       z     vdW  Elec       q    Type
REMARK                         _______ _______ _______ _____ _____    ______ ____
ROOT
ATOM      1  N   UNL     1       1.957   2.568  20.109  0.00  0.00    +0.000 NA
ATOM      2  C   UNL     1       2.011   1.969  18.761  0.00  0.00    +0.000 C 
ATOM      3  C   UNL     1       3.478   1.902  18.317  0.00  0.00    +0.000 C 
ATOM      4  C   UNL     1       3.795   2.511  16.957  0.00  0.00    +0.000 C 
ATOM      5  N   UNL     1       4.346   3.863  17.178  0.00  0.00    +0.000 NA
ATOM      6  C   UNL     1       4.304   4.126  18.622  0.00  0.00    +0.000 C 
ATOM      7  C   UNL     1       4.218   2.770  19.307  0.00  0.00    +0.000 C 
ATOM      8  C   UNL     1       3.358   2.694  20.556  0.00  0.00    +0.000 C 
ENDROOT
BRANCH   1   9
ATOM      9  C   UNL     1       1.253   3.863  20.164  0.00  0.00    +0.000 C 
BRANCH   9  10
ATOM     10  C   UNL     1       1.836   4.933  21.106  0.00  0.00    +0.000 C 
BRANCH  10  13
ATOM     11  N   UNL     1       2.110   7.971  19.079  0.00  0.00    +0.000 N 
ATOM     12  C   UNL     1       2.269   6.620  19.188  0.00  0.00    +0.000 A 
ATOM     13  C   UNL     1       1.803   6.276  20.442  0.00  0.00    +0.000 A 
ATOM     14  C   UNL     1       1.354   7.498  20.989  0.00  0.00    +0.000 A 
ATOM     15  N   UNL     1       1.536   8.529  20.162  0.00  0.00    +0.000 NA
BRANCH  11  17
ATOM     16  C   UNL     1       1.791  10.142  17.960  0.00  0.00    +0.000 C 
ATOM     17  C   UNL     1       2.525   8.810  17.974  0.00  0.00    +0.000 C 
ENDBRANCH  11  17
ENDBRANCH  10  13
ENDBRANCH   9  10
ENDBRANCH   1   9
BRANCH   5  18
ATOM     18  C   UNL     1       5.718   4.029  16.681  0.00  0.00    +0.000 C 
BRANCH  18  19
ATOM     19  C   UNL     1       6.462   5.208  17.266  0.00  0.00    +0.000 A 
ATOM     20  C   UNL     1       7.325   5.049  18.360  0.00  0.00    +0.000 A 
ATOM     21  C   UNL     1       8.054   6.135  18.847  0.00  0.00    +0.000 A 
ATOM     22  C   UNL     1       7.930   7.386  18.243  0.00  0.00    +0.000 A 
ATOM     23  C   UNL     1       7.072   7.552  17.157  0.00  0.00    +0.000 A 
ATOM     24  C   UNL     1       6.343   6.470  16.672  0.00  0.00    +0.000 A 
ENDBRANCH  18  19
ENDBRANCH   5  18
TORSDOF 6
ENDMDL
