MODEL 1
REMARK VINA RESULT:      -8.1      0.000      0.000
REMARK  Name = 
REMARK  6 active torsions:
REMARK  status: ('A' for Active; 'I' for Inactive)
REMARK    1  A    between atoms: C_1  and  C_2
REMARK    2  A    between atoms: C_2  and  N_3
REMARK    3  A    between atoms: N_3  and  C_4
REMARK    4  A    between atoms: N_3  and  C_5
REMARK    5  A    between atoms: N_13  and  S_14
REMARK    6  A    between atoms: S_14  and  C_17
REMARK                            x       y       z     vdW  Elec       q    Type
REMARK                         _______ _______ _______ _____ _____    ______ ____
ROOT
ATOM      1  C   UNL     1       2.230   6.444  19.795  0.00  0.00    +0.000 A 
ATOM      2  N   UNL     1       1.810   5.672  20.819  0.00  0.00    +0.000 NA
ATOM      3  C   UNL     1       1.876   4.344  20.663  0.00  0.00    +0.000 A 
ATOM      4  N   UNL     1       2.319   3.702  19.582  0.00  0.00    +0.000 NA
ATOM      5  C   UNL     1       2.720   4.482  18.558  0.00  0.00    +0.000 A 
ATOM      6  C   UNL     1       2.690   5.873  18.605  0.00  0.00    +0.000 A 
ATOM      7  C   UNL     1       3.187   6.657  17.418  0.00  0.00    +0.000 C 
ATOM      8  C   UNL     1       4.711   6.540  17.280  0.00  0.00    +0.000 C 
ATOM      9  N   UNL     1       5.175   5.287  16.584  0.00  0.00    +0.000 NA
ATOM     10  C   UNL     1       4.806   4.005  17.280  0.00  0.00    +0.000 C 
ATOM     11  C   UNL     1       3.300   3.769  17.367  0.00  0.00    +0.000 C 
ENDROOT
BRANCH   9  12
ATOM     12  S   UNL     1       6.889   5.340  16.258  0.00  0.00    +0.000 S 
ATOM     13  O   UNL     1       7.309   6.721  16.344  0.00  0.00    +0.000 OA
ATOM     14  O   UNL     1       7.539   4.305  17.040  0.00  0.00    +0.000 OA
BRANCH  12  15
ATOM     15  C   UNL     1       7.003   4.815  14.567  0.00  0.00    +0.000 A 
ATOM     16  C   UNL     1       6.165   3.809  14.081  0.00  0.00    +0.000 A 
ATOM     17  C   UNL     1       6.182   3.502  12.720  0.00  0.00    +0.000 A 
ATOM     18  C   UNL     1       7.029   4.200  11.855  0.00  0.00    +0.000 A 
ATOM     19  C   UNL     1       7.862   5.205  12.346  0.00  0.00    +0.000 A 
ATOM     20  C   UNL     1       7.853   5.518  13.705  0.00  0.00    +0.000 A 
ENDBRANCH  12  15
ENDBRANCH   9  12
BRANCH   1  21
ATOM     21  N   UNL     1       2.210   7.858  19.963  0.00  0.00    +0.000 N 
ATOM     22  C   UNL     1       1.405   8.218  21.138  0.00  0.00    +0.000 C 
BRANCH  21  24
ATOM     23  C   UNL     1       0.880   9.721  19.005  0.00  0.00    +0.000 C 
ATOM     24  C   UNL     1       1.797   8.538  18.716  0.00  0.00    +0.000 C 
ENDBRANCH  21  24
ENDBRANCH   1  21
TORSDOF 4
ENDMDL
MODEL 2
REMARK VINA RESULT:      -7.3      3.044      6.506
REMARK  Name = 
REMARK  6 active torsions:
REMARK  status: ('A' for Active; 'I' for Inactive)
REMARK    1  A    between atoms: C_1  and  C_2
REMARK    2  A    between atoms: C_2  and  N_3
REMARK    3  A    between atoms: N_3  and  C_4
REMARK    4  A    between atoms: N_3  and  C_5
REMARK    5  A    between atoms: N_13  and  S_14
REMARK    6  A    between atoms: S_14  and  C_17
REMARK                            x       y       z     vdW  Elec       q    Type
REMARK                         _______ _______ _______ _____ _____    ______ ____
ROOT
ATOM      1  C   UNL     1       7.067   5.784  16.839  0.00  0.00    +0.000 A 
ATOM      2  N   UNL     1       7.155   5.850  15.495  0.00  0.00    +0.000 NA
ATOM      3  C   UNL     1       6.399   5.007  14.781  0.00  0.00    +0.000 A 
ATOM      4  N   UNL     1       5.558   4.098  15.273  0.00  0.00    +0.000 NA
ATOM      5  C   UNL     1       5.489   4.028  16.618  0.00  0.00    +0.000 A 
ATOM      6  C   UNL     1       6.234   4.849  17.461  0.00  0.00    +0.000 A 
ATOM      7  C   UNL     1       6.065   4.714  18.952  0.00  0.00    +0.000 C 
ATOM      8  C   UNL     1       4.694   5.236  19.400  0.00  0.00    +0.000 C 
ATOM      9  N   UNL     1       3.570   4.246  19.233  0.00  0.00    +0.000 NA
ATOM     10  C   UNL     1       3.313   3.816  17.814  0.00  0.00    +0.000 C 
ATOM     11  C   UNL     1       4.481   3.064  17.183  0.00  0.00    +0.000 C 
ENDROOT
BRANCH   9  12
ATOM     12  S   UNL     1       2.101   4.823  19.978  0.00  0.00    +0.000 S 
ATOM     13  O   UNL     1       0.992   4.139  19.348  0.00  0.00    +0.000 OA
ATOM     14  O   UNL     1       2.276   4.806  21.417  0.00  0.00    +0.000 OA
BRANCH  12  15
ATOM     15  C   UNL     1       2.048   6.536  19.515  0.00  0.00    +0.000 A 
ATOM     16  C   UNL     1       2.292   6.917  18.193  0.00  0.00    +0.000 A 
ATOM     17  C   UNL     1       2.119   8.252  17.824  0.00  0.00    +0.000 A 
ATOM     18  C   UNL     1       1.702   9.192  18.769  0.00  0.00    +0.000 A 
ATOM     19  C   UNL     1       1.458   8.804  20.087  0.00  0.00    +0.000 A 
ATOM     20  C   UNL     1       1.629   7.473  20.465  0.00  0.00    +0.000 A 
ENDBRANCH  12  15
ENDBRANCH   9  12
BRANCH   1  21
ATOM     21  N   UNL     1       7.830   6.705  17.612  0.00  0.00    +0.000 N 
ATOM     22  C   UNL     1       8.043   6.176  18.966  0.00  0.00    +0.000 C 
BRANCH  21  24
ATOM     23  C   UNL     1       8.230   9.120  18.020  0.00  0.00    +0.000 C 
ATOM     24  C   UNL     1       7.230   8.056  17.578  0.00  0.00    +0.000 C 
ENDBRANCH  21  24
ENDBRANCH   1  21
TORSDOF 4
ENDMDL
MODEL 3
REMARK VINA RESULT:      -7.3      1.008      1.586
REMARK  Name = 
REMARK  6 active torsions:
REMARK  status: ('A' for Active; 'I' for Inactive)
REMARK    1  A    between atoms: C_1  and  C_2
REMARK    2  A    between atoms: C_2  and  N_3
REMARK    3  A    between atoms: N_3  and  C_4
REMARK    4  A    between atoms: N_3  and  C_5
REMARK    5  A    between atoms: N_13  and  S_14
REMARK    6  A    between atoms: S_14  and  C_17
REMARK                            x       y       z     vdW  Elec       q    Type
REMARK                         _______ _______ _______ _____ _____    ______ ____
ROOT
ATOM      1  C   UNL     1       2.064   5.421  20.071  0.00  0.00    +0.000 A 
ATOM      2  N   UNL     1       1.993   4.773  21.251  0.00  0.00    +0.000 NA
ATOM      3  C   UNL     1       2.518   3.543  21.317  0.00  0.00    +0.000 A 
ATOM      4  N   UNL     1       3.111   2.888  20.320  0.00  0.00    +0.000 NA
ATOM      5  C   UNL     1       3.162   3.537  19.139  0.00  0.00    +0.000 A 
ATOM      6  C   UNL     1       2.643   4.816  18.951  0.00  0.00    +0.000 A 
ATOM      7  C   UNL     1       2.775   5.469  17.600  0.00  0.00    +0.000 C 
ATOM      8  C   UNL     1       4.234   5.850  17.314  0.00  0.00    +0.000 C 
ATOM      9  N   UNL     1       5.079   4.717  16.794  0.00  0.00    +0.000 NA
ATOM     10  C   UNL     1       5.221   3.552  17.735  0.00  0.00    +0.000 C 
ATOM     11  C   UNL     1       3.903   2.841  18.030  0.00  0.00    +0.000 C 
ENDROOT
BRANCH   9  12
ATOM     12  S   UNL     1       6.647   5.282  16.274  0.00  0.00    +0.000 S 
ATOM     13  O   UNL     1       6.655   6.724  16.391  0.00  0.00    +0.000 OA
ATOM     14  O   UNL     1       7.665   4.470  16.911  0.00  0.00    +0.000 OA
BRANCH  12  15
ATOM     15  C   UNL     1       6.690   4.853  14.552  0.00  0.00    +0.000 A 
ATOM     16  C   UNL     1       7.662   5.403  13.712  0.00  0.00    +0.000 A 
ATOM     17  C   UNL     1       7.757   4.955  12.393  0.00  0.00    +0.000 A 
ATOM     18  C   UNL     1       6.891   3.963  11.925  0.00  0.00    +0.000 A 
ATOM     19  C   UNL     1       5.924   3.418  12.771  0.00  0.00    +0.000 A 
ATOM     20  C   UNL     1       5.820   3.861  14.089  0.00  0.00    +0.000 A 
ENDBRANCH  12  15
ENDBRANCH   9  12
BRANCH   1  21
ATOM     21  N   UNL     1       1.552   6.748  19.996  0.00  0.00    +0.000 N 
ATOM     22  C   UNL     1       2.584   7.662  19.488  0.00  0.00    +0.000 C 
BRANCH  21  24
ATOM     23  C   UNL     1       1.124   8.661  21.517  0.00  0.00    +0.000 C 
ATOM     24  C   UNL     1       0.956   7.164  21.284  0.00  0.00    +0.000 C 
ENDBRANCH  21  24
ENDBRANCH   1  21
TORSDOF 4
ENDMDL
MODEL 4
REMARK VINA RESULT:      -7.1      3.555      5.503
REMARK  Name = 
REMARK  6 active torsions:
REMARK  status: ('A' for Active; 'I' for Inactive)
REMARK    1  A    between atoms: C_1  and  C_2
REMARK    2  A    between atoms: C_2  and  N_3
REMARK    3  A    between atoms: N_3  and  C_4
REMARK    4  A    between atoms: N_3  and  C_5
REMARK    5  A    between atoms: N_13  and  S_14
REMARK    6  A    between atoms: S_14  and  C_17
REMARK                            x       y       z     vdW  Elec       q    Type
REMARK                         _______ _______ _______ _____ _____    ______ ____
ROOT
ATOM      1  C   UNL     1       1.040  11.358  19.646  0.00  0.00    +0.000 A 
ATOM      2  N   UNL     1       1.047  11.952  20.857  0.00  0.00    +0.000 NA
ATOM      3  C   UNL     1       0.978  11.163  21.936  0.00  0.00    +0.000 A 
ATOM      4  N   UNL     1       0.901   9.832  21.932  0.00  0.00    +0.000 NA
ATOM      5  C   UNL     1       0.876   9.249  20.717  0.00  0.00    +0.000 A 
ATOM      6  C   UNL     1       0.935   9.969  19.527  0.00  0.00    +0.000 A 
ATOM      7  C   UNL     1       0.931   9.222  18.218  0.00  0.00    +0.000 C 
ATOM      8  C   UNL     1       2.251   8.469  18.009  0.00  0.00    +0.000 C 
ATOM      9  N   UNL     1       2.323   7.139  18.711  0.00  0.00    +0.000 NA
ATOM     10  C   UNL     1       2.215   7.209  20.211  0.00  0.00    +0.000 C 
ATOM     11  C   UNL     1       0.873   7.744  20.702  0.00  0.00    +0.000 C 
ENDROOT
BRANCH   9  12
ATOM     12  S   UNL     1       3.746   6.247  18.237  0.00  0.00    +0.000 S 
ATOM     13  O   UNL     1       4.160   6.738  16.941  0.00  0.00    +0.000 OA
ATOM     14  O   UNL     1       4.666   6.215  19.358  0.00  0.00    +0.000 OA
BRANCH  12  15
ATOM     15  C   UNL     1       3.149   4.586  18.050  0.00  0.00    +0.000 A 
ATOM     16  C   UNL     1       4.045   3.532  17.847  0.00  0.00    +0.000 A 
ATOM     17  C   UNL     1       3.566   2.221  17.832  0.00  0.00    +0.000 A 
ATOM     18  C   UNL     1       2.205   1.970  18.022  0.00  0.00    +0.000 A 
ATOM     19  C   UNL     1       1.316   3.027  18.226  0.00  0.00    +0.000 A 
ATOM     20  C   UNL     1       1.786   4.340  18.241  0.00  0.00    +0.000 A 
ENDBRANCH  12  15
ENDBRANCH   9  12
BRANCH   1  21
ATOM     21  N   UNL     1       1.159  12.180  18.490  0.00  0.00    +0.000 N 
ATOM     22  C   UNL     1       2.493  12.792  18.439  0.00  0.00    +0.000 C 
BRANCH  21  24
ATOM     23  C   UNL     1      -1.276  12.453  18.095  0.00  0.00    +0.000 C 
ATOM     24  C   UNL     1       0.045  13.149  18.406  0.00  0.00    +0.000 C 
ENDBRANCH  21  24
ENDBRANCH   1  21
TORSDOF 4
ENDMDL
MODEL 5
REMARK VINA RESULT:      -7.1      2.225      3.108
REMARK  Name = 
REMARK  6 active torsions:
REMARK  status: ('A' for Active; 'I' for Inactive)
REMARK    1  A    between atoms: C_1  and  C_2
REMARK    2  A    between atoms: C_2  and  N_3
REMARK    3  A    between atoms: N_3  and  C_4
REMARK    4  A    between atoms: N_3  and  C_5
REMARK    5  A    between atoms: N_13  and  S_14
REMARK    6  A    between atoms: S_14  and  C_17
REMARK                            x       y       z     vdW  Elec       q    Type
REMARK                         _______ _______ _______ _____ _____    ______ ____
ROOT
ATOM      1  C   UNL     1       2.146   6.249  19.931  0.00  0.00    +0.000 A 
ATOM      2  N   UNL     1       1.842   5.498  21.009  0.00  0.00    +0.000 NA
ATOM      3  C   UNL     1       1.803   4.169  20.850  0.00  0.00    +0.000 A 
ATOM      4  N   UNL     1       2.038   3.507  19.717  0.00  0.00    +0.000 NA
ATOM      5  C   UNL     1       2.324   4.267  18.641  0.00  0.00    +0.000 A 
ATOM      6  C   UNL     1       2.386   5.657  18.686  0.00  0.00    +0.000 A 
ATOM      7  C   UNL     1       2.743   6.416  17.435  0.00  0.00    +0.000 C 
ATOM      8  C   UNL     1       4.218   6.208  17.067  0.00  0.00    +0.000 C 
ATOM      9  N   UNL     1       4.495   4.934  16.314  0.00  0.00    +0.000 NA
ATOM     10  C   UNL     1       4.159   3.672  17.063  0.00  0.00    +0.000 C 
ATOM     11  C   UNL     1       2.673   3.526  17.378  0.00  0.00    +0.000 C 
ENDROOT
BRANCH   9  12
ATOM     12  S   UNL     1       6.140   4.885  15.731  0.00  0.00    +0.000 S 
ATOM     13  O   UNL     1       6.548   3.498  15.687  0.00  0.00    +0.000 OA
ATOM     14  O   UNL     1       6.240   5.736  14.562  0.00  0.00    +0.000 OA
BRANCH  12  15
ATOM     15  C   UNL     1       7.056   5.706  17.011  0.00  0.00    +0.000 A 
ATOM     16  C   UNL     1       7.351   7.067  16.904  0.00  0.00    +0.000 A 
ATOM     17  C   UNL     1       7.959   7.721  17.978  0.00  0.00    +0.000 A 
ATOM     18  C   UNL     1       8.262   7.017  19.146  0.00  0.00    +0.000 A 
ATOM     19  C   UNL     1       7.962   5.657  19.246  0.00  0.00    +0.000 A 
ATOM     20  C   UNL     1       7.356   4.996  18.178  0.00  0.00    +0.000 A 
ENDBRANCH  12  15
ENDBRANCH   9  12
BRANCH   1  21
ATOM     21  N   UNL     1       2.237   7.660  20.094  0.00  0.00    +0.000 N 
ATOM     22  C   UNL     1       1.486   8.083  21.283  0.00  0.00    +0.000 C 
BRANCH  21  24
ATOM     23  C   UNL     1       1.001   9.595  19.154  0.00  0.00    +0.000 C 
ATOM     24  C   UNL     1       1.853   8.367  18.853  0.00  0.00    +0.000 C 
ENDBRANCH  21  24
ENDBRANCH   1  21
TORSDOF 4
ENDMDL
MODEL 6
REMARK VINA RESULT:      -7.1      2.315      3.071
REMARK  Name = 
REMARK  6 active torsions:
REMARK  status: ('A' for Active; 'I' for Inactive)
REMARK    1  A    between atoms: C_1  and  C_2
REMARK    2  A    between atoms: C_2  and  N_3
REMARK    3  A    between atoms: N_3  and  C_4
REMARK    4  A    between atoms: N_3  and  C_5
REMARK    5  A    between atoms: N_13  and  S_14
REMARK    6  A    between atoms: S_14  and  C_17
REMARK                            x       y       z     vdW  Elec       q    Type
REMARK                         _______ _______ _______ _____ _____    ______ ____
ROOT
ATOM      1  C   UNL     1       1.933   6.407  19.972  0.00  0.00    +0.000 A 
ATOM      2  N   UNL     1       1.566   5.635  21.015  0.00  0.00    +0.000 NA
ATOM      3  C   UNL     1       1.522   4.311  20.823  0.00  0.00    +0.000 A 
ATOM      4  N   UNL     1       1.807   3.672  19.688  0.00  0.00    +0.000 NA
ATOM      5  C   UNL     1       2.155   4.454  18.646  0.00  0.00    +0.000 A 
ATOM      6  C   UNL     1       2.229   5.842  18.728  0.00  0.00    +0.000 A 
ATOM      7  C   UNL     1       2.657   6.625  17.514  0.00  0.00    +0.000 C 
ATOM      8  C   UNL     1       4.147   6.409  17.217  0.00  0.00    +0.000 C 
ATOM      9  N   UNL     1       4.448   5.149  16.449  0.00  0.00    +0.000 NA
ATOM     10  C   UNL     1       4.062   3.874  17.149  0.00  0.00    +0.000 C 
ATOM     11  C   UNL     1       2.560   3.738  17.385  0.00  0.00    +0.000 C 
ENDROOT
BRANCH   9  12
ATOM     12  S   UNL     1       6.120   5.094  15.948  0.00  0.00    +0.000 S 
ATOM     13  O   UNL     1       6.551   3.715  16.009  0.00  0.00    +0.000 OA
ATOM     14  O   UNL     1       6.264   5.875  14.734  0.00  0.00    +0.000 OA
BRANCH  12  15
ATOM     15  C   UNL     1       6.960   6.008  17.217  0.00  0.00    +0.000 A 
ATOM     16  C   UNL     1       7.404   5.364  18.374  0.00  0.00    +0.000 A 
ATOM     17  C   UNL     1       8.174   6.072  19.299  0.00  0.00    +0.000 A 
ATOM     18  C   UNL     1       8.498   7.410  19.061  0.00  0.00    +0.000 A 
ATOM     19  C   UNL     1       8.053   8.047  17.902  0.00  0.00    +0.000 A 
ATOM     20  C   UNL     1       7.282   7.347  16.974  0.00  0.00    +0.000 A 
ENDBRANCH  12  15
ENDBRANCH   9  12
BRANCH   1  21
ATOM     21  N   UNL     1       2.030   7.813  20.173  0.00  0.00    +0.000 N 
ATOM     22  C   UNL     1       1.374   8.192  21.432  0.00  0.00    +0.000 C 
BRANCH  21  24
ATOM     23  C   UNL     1       0.925   9.892  19.389  0.00  0.00    +0.000 C 
ATOM     24  C   UNL     1       1.544   8.556  18.990  0.00  0.00    +0.000 C 
ENDBRANCH  21  24
ENDBRANCH   1  21
TORSDOF 4
ENDMDL
MODEL 7
REMARK VINA RESULT:      -7.0      2.480      3.213
REMARK  Name = 
REMARK  6 active torsions:
REMARK  status: ('A' for Active; 'I' for Inactive)
REMARK    1  A    between atoms: C_1  and  C_2
REMARK    2  A    between atoms: C_2  and  N_3
REMARK    3  A    between atoms: N_3  and  C_4
REMARK    4  A    between atoms: N_3  and  C_5
REMARK    5  A    between atoms: N_13  and  S_14
REMARK    6  A    between atoms: S_14  and  C_17
REMARK                            x       y       z     vdW  Elec       q    Type
REMARK                         _______ _______ _______ _____ _____    ______ ____
ROOT
ATOM      1  C   UNL     1       1.923   5.326  20.186  0.00  0.00    +0.000 A 
ATOM      2  N   UNL     1       1.974   4.716  21.388  0.00  0.00    +0.000 NA
ATOM      3  C   UNL     1       2.405   3.449  21.423  0.00  0.00    +0.000 A 
ATOM      4  N   UNL     1       2.793   2.722  20.376  0.00  0.00    +0.000 NA
ATOM      5  C   UNL     1       2.722   3.335  19.176  0.00  0.00    +0.000 A 
ATOM      6  C   UNL     1       2.283   4.647  19.018  0.00  0.00    +0.000 A 
ATOM      7  C   UNL     1       2.267   5.253  17.639  0.00  0.00    +0.000 C 
ATOM      8  C   UNL     1       3.694   5.505  17.133  0.00  0.00    +0.000 C 
ATOM      9  N   UNL     1       4.363   4.294  16.539  0.00  0.00    +0.000 NA
ATOM     10  C   UNL     1       4.549   3.144  17.492  0.00  0.00    +0.000 C 
ATOM     11  C   UNL     1       3.236   2.553  17.999  0.00  0.00    +0.000 C 
ENDROOT
BRANCH   9  12
ATOM     12  S   UNL     1       5.877   4.714  15.779  0.00  0.00    +0.000 S 
ATOM     13  O   UNL     1       6.607   3.486  15.547  0.00  0.00    +0.000 OA
ATOM     14  O   UNL     1       5.608   5.645  14.699  0.00  0.00    +0.000 OA
BRANCH  12  15
ATOM     15  C   UNL     1       6.722   5.649  17.028  0.00  0.00    +0.000 A 
ATOM     16  C   UNL     1       7.268   5.006  18.142  0.00  0.00    +0.000 A 
ATOM     17  C   UNL     1       8.038   5.741  19.046  0.00  0.00    +0.000 A 
ATOM     18  C   UNL     1       8.260   7.103  18.832  0.00  0.00    +0.000 A 
ATOM     19  C   UNL     1       7.712   7.738  17.716  0.00  0.00    +0.000 A 
ATOM     20  C   UNL     1       6.941   7.013  16.809  0.00  0.00    +0.000 A 
ENDBRANCH  12  15
ENDBRANCH   9  12
BRANCH   1  21
ATOM     21  N   UNL     1       1.511   6.688  20.137  0.00  0.00    +0.000 N 
ATOM     22  C   UNL     1       2.596   7.528  19.612  0.00  0.00    +0.000 C 
BRANCH  21  24
ATOM     23  C   UNL     1       0.689   8.630  21.446  0.00  0.00    +0.000 C 
ATOM     24  C   UNL     1       0.980   7.133  21.444  0.00  0.00    +0.000 C 
ENDBRANCH  21  24
ENDBRANCH   1  21
TORSDOF 4
ENDMDL
MODEL 8
REMARK VINA RESULT:      -7.0      1.631      2.905
REMARK  Name = 
REMARK  6 active torsions:
REMARK  status: ('A' for Active; 'I' for Inactive)
REMARK    1  A    between atoms: C_1  and  C_2
REMARK    2  A    between atoms: C_2  and  N_3
REMARK    3  A    between atoms: N_3  and  C_4
REMARK    4  A    between atoms: N_3  and  C_5
REMARK    5  A    between atoms: N_13  and  S_14
REMARK    6  A    between atoms: S_14  and  C_17
REMARK                            x       y       z     vdW  Elec       q    Type
REMARK                         _______ _______ _______ _____ _____    ______ ____
ROOT
ATOM      1  C   UNL     1       1.238   9.296  19.299  0.00  0.00    +0.000 A 
ATOM      2  N   UNL     1       0.883   9.570  20.571  0.00  0.00    +0.000 NA
ATOM      3  C   UNL     1       1.071   8.613  21.488  0.00  0.00    +0.000 A 
ATOM      4  N   UNL     1       1.580   7.402  21.265  0.00  0.00    +0.000 NA
ATOM      5  C   UNL     1       1.916   7.131  19.988  0.00  0.00    +0.000 A 
ATOM      6  C   UNL     1       1.759   8.047  18.951  0.00  0.00    +0.000 A 
ATOM      7  C   UNL     1       2.193   7.660  17.561  0.00  0.00    +0.000 C 
ATOM      8  C   UNL     1       3.722   7.577  17.464  0.00  0.00    +0.000 C 
ATOM      9  N   UNL     1       4.304   6.277  17.954  0.00  0.00    +0.000 NA
ATOM     10  C   UNL     1       4.048   5.978  19.406  0.00  0.00    +0.000 C 
ATOM     11  C   UNL     1       2.570   5.798  19.741  0.00  0.00    +0.000 C 
ENDROOT
BRANCH   9  12
ATOM     12  S   UNL     1       6.009   6.170  17.594  0.00  0.00    +0.000 S 
ATOM     13  O   UNL     1       6.510   7.518  17.440  0.00  0.00    +0.000 OA
ATOM     14  O   UNL     1       6.619   5.242  18.528  0.00  0.00    +0.000 OA
BRANCH  12  15
ATOM     15  C   UNL     1       6.047   5.365  16.013  0.00  0.00    +0.000 A 
ATOM     16  C   UNL     1       7.149   5.522  15.168  0.00  0.00    +0.000 A 
ATOM     17  C   UNL     1       7.217   4.779  13.988  0.00  0.00    +0.000 A 
ATOM     18  C   UNL     1       6.192   3.886  13.662  0.00  0.00    +0.000 A 
ATOM     19  C   UNL     1       5.096   3.734  14.512  0.00  0.00    +0.000 A 
ATOM     20  C   UNL     1       5.019   4.473  15.692  0.00  0.00    +0.000 A 
ENDBRANCH  12  15
ENDBRANCH   9  12
BRANCH   1  21
ATOM     21  N   UNL     1       1.088  10.320  18.321  0.00  0.00    +0.000 N 
ATOM     22  C   UNL     1       2.173  11.303  18.445  0.00  0.00    +0.000 C 
BRANCH  21  24
ATOM     23  C   UNL     1      -1.270  10.052  17.597  0.00  0.00    +0.000 C 
ATOM     24  C   UNL     1      -0.269  10.907  18.366  0.00  0.00    +0.000 C 
ENDBRANCH  21  24
ENDBRANCH   1  21
TORSDOF 4
ENDMDL
MODEL 9
REMARK VINA RESULT:      -7.0      3.039      6.430
REMARK  Name = 
REMARK  6 active torsions:
REMARK  status: ('A' for Active; 'I' for Inactive)
REMARK    1  A    between atoms: C_1  and  C_2
REMARK    2  A    between atoms: C_2  and  N_3
REMARK    3  A    between atoms: N_3  and  C_4
REMARK    4  A    between atoms: N_3  and  C_5
REMARK    5  A    between atoms: N_13  and  S_14
REMARK    6  A    between atoms: S_14  and  C_17
REMARK                            x       y       z     vdW  Elec       q    Type
REMARK                         _______ _______ _______ _____ _____    ______ ____
ROOT
ATOM      1  C   UNL     1       7.032   5.769  16.849  0.00  0.00    +0.000 A 
ATOM      2  N   UNL     1       7.119   5.850  15.506  0.00  0.00    +0.000 NA
ATOM      3  C   UNL     1       6.374   5.006  14.782  0.00  0.00    +0.000 A 
ATOM      4  N   UNL     1       5.545   4.081  15.264  0.00  0.00    +0.000 NA
ATOM      5  C   UNL     1       5.477   3.995  16.608  0.00  0.00    +0.000 A 
ATOM      6  C   UNL     1       6.210   4.816  17.460  0.00  0.00    +0.000 A 
ATOM      7  C   UNL     1       6.043   4.662  18.949  0.00  0.00    +0.000 C 
ATOM      8  C   UNL     1       4.664   5.161  19.402  0.00  0.00    +0.000 C 
ATOM      9  N   UNL     1       3.554   4.159  19.224  0.00  0.00    +0.000 NA
ATOM     10  C   UNL     1       3.303   3.742  17.800  0.00  0.00    +0.000 C 
ATOM     11  C   UNL     1       4.481   3.012  17.161  0.00  0.00    +0.000 C 
ENDROOT
BRANCH   9  12
ATOM     12  S   UNL     1       2.077   4.709  19.974  0.00  0.00    +0.000 S 
ATOM     13  O   UNL     1       0.984   3.961  19.390  0.00  0.00    +0.000 OA
ATOM     14  O   UNL     1       2.276   4.751  21.410  0.00  0.00    +0.000 OA
BRANCH  12  15
ATOM     15  C   UNL     1       1.951   6.400  19.450  0.00  0.00    +0.000 A 
ATOM     16  C   UNL     1       1.614   7.399  20.366  0.00  0.00    +0.000 A 
ATOM     17  C   UNL     1       1.647   8.735  19.962  0.00  0.00    +0.000 A 
ATOM     18  C   UNL     1       2.019   9.064  18.656  0.00  0.00    +0.000 A 
ATOM     19  C   UNL     1       2.356   8.061  17.747  0.00  0.00    +0.000 A 
ATOM     20  C   UNL     1       2.325   6.723  18.141  0.00  0.00    +0.000 A 
ENDBRANCH  12  15
ENDBRANCH   9  12
BRANCH   1  21
ATOM     21  N   UNL     1       7.782   6.690  17.633  0.00  0.00    +0.000 N 
ATOM     22  C   UNL     1       8.053   6.124  18.961  0.00  0.00    +0.000 C 
BRANCH  21  24
ATOM     23  C   UNL     1       8.148   9.129  17.908  0.00  0.00    +0.000 C 
ATOM     24  C   UNL     1       7.132   8.019  17.663  0.00  0.00    +0.000 C 
ENDBRANCH  21  24
ENDBRANCH   1  21
TORSDOF 4
ENDMDL
