MODEL 1
REMARK VINA RESULT:      -7.5      0.000      0.000
REMARK  Name = 
REMARK  6 active torsions:
REMARK  status: ('A' for Active; 'I' for Inactive)
REMARK    1  A    between atoms: C_1  and  C_2
REMARK    2  A    between atoms: C_2  and  C_3
REMARK    3  A    between atoms: C_2  and  N_4
REMARK    4  A    between atoms: N_9  and  C_10
REMARK    5  A    between atoms: C_12  and  N_13
REMARK    6  A    between atoms: N_20  and  C_21
REMARK                            x       y       z     vdW  Elec       q    Type
REMARK                         _______ _______ _______ _____ _____    ______ ____
ROOT
ATOM      1  N   UNL     1       1.787   3.795  19.181  0.00  0.00    +0.000 N 
ATOM      2  C   UNL     1       2.471   3.200  18.153  0.00  0.00    +0.000 A 
ATOM      3  N   UNL     1       3.173   4.069  17.466  0.00  0.00    +0.000 NA
ATOM      4  C   UNL     1       2.926   5.286  18.066  0.00  0.00    +0.000 A 
ATOM      5  C   UNL     1       3.386   6.586  17.800  0.00  0.00    +0.000 A 
ATOM      6  N   UNL     1       4.328   6.903  16.804  0.00  0.00    +0.000 N 
ATOM      7  N   UNL     1       2.855   7.599  18.538  0.00  0.00    +0.000 NA
ATOM      8  C   UNL     1       2.040   7.327  19.582  0.00  0.00    +0.000 A 
ATOM      9  N   UNL     1       1.638   8.432  20.298  0.00  0.00    +0.000 N 
ATOM     10  N   UNL     1       1.619   6.104  19.956  0.00  0.00    +0.000 NA
ATOM     11  C   UNL     1       2.065   5.137  19.140  0.00  0.00    +0.000 A 
ATOM     12  H   UNL     1       4.558   7.890  16.856  0.00  0.00    +0.000 HD
ATOM     13  H   UNL     1       1.322   9.172  19.686  0.00  0.00    +0.000 HD
ENDROOT
BRANCH   6  14
ATOM     14  C   UNL     1       5.400   6.098  16.354  0.00  0.00    +0.000 A 
ATOM     15  C   UNL     1       6.311   5.590  17.294  0.00  0.00    +0.000 A 
ATOM     16  C   UNL     1       7.435   4.851  16.900  0.00  0.00    +0.000 A 
ATOM     17  C   UNL     1       7.576   4.504  15.555  0.00  0.00    +0.000 A 
ATOM     18  C   UNL     1       6.656   4.966  14.617  0.00  0.00    +0.000 A 
ATOM     19 CL   UNL     1       6.857   4.556  12.955  0.00  0.00    +0.000 Cl
ATOM     20  C   UNL     1       5.574   5.751  15.010  0.00  0.00    +0.000 A 
BRANCH  16  21
ATOM     21  N   UNL     1       8.281   4.283  17.863  0.00  0.00    +0.000 N 
ATOM     22  H   UNL     1       8.645   3.373  17.597  0.00  0.00    +0.000 HD
ATOM     23  H   UNL     1       7.885   4.274  18.799  0.00  0.00    +0.000 HD
ENDBRANCH  16  21
ENDBRANCH   6  14
BRANCH   9  24
ATOM     24  C   UNL     1       1.052   8.284  21.612  0.00  0.00    +0.000 C 
ATOM     25  C   UNL     1       1.482   9.444  22.500  0.00  0.00    +0.000 C 
ATOM     26  C   UNL     1       0.409   9.443  23.566  0.00  0.00    +0.000 C 
ATOM     27  N   UNL     1      -0.837   9.222  22.822  0.00  0.00    +0.000 NA
ATOM     28  C   UNL     1      -0.479   8.356  21.672  0.00  0.00    +0.000 C 
ATOM     29  H   UNL     1      -1.157  10.120  22.457  0.00  0.00    +0.000 HD
ENDBRANCH   9  24
BRANCH   1  31
ATOM     30  C   UNL     1       0.397   1.793  19.518  0.00  0.00    +0.000 C 
ATOM     31  C   UNL     1       0.904   3.110  20.112  0.00  0.00    +0.000 C 
ATOM     32  C   UNL     1       1.587   2.875  21.461  0.00  0.00    +0.000 C 
ENDBRANCH   1  31
TORSDOF 4
ENDMDL
MODEL 2
REMARK VINA RESULT:      -7.3      3.119      7.518
REMARK  Name = 
REMARK  6 active torsions:
REMARK  status: ('A' for Active; 'I' for Inactive)
REMARK    1  A    between atoms: C_1  and  C_2
REMARK    2  A    between atoms: C_2  and  C_3
REMARK    3  A    between atoms: C_2  and  N_4
REMARK    4  A    between atoms: N_9  and  C_10
REMARK    5  A    between atoms: C_12  and  N_13
REMARK    6  A    between atoms: N_20  and  C_21
REMARK                            x       y       z     vdW  Elec       q    Type
REMARK                         _______ _______ _______ _____ _____    ______ ____
ROOT
ATOM      1  N   UNL     1       2.247   5.385  20.068  0.00  0.00    +0.000 N 
ATOM      2  C   UNL     1       1.360   6.169  20.760  0.00  0.00    +0.000 A 
ATOM      3  N   UNL     1       1.314   7.391  20.287  0.00  0.00    +0.000 NA
ATOM      4  C   UNL     1       2.221   7.407  19.247  0.00  0.00    +0.000 A 
ATOM      5  C   UNL     1       2.619   8.412  18.351  0.00  0.00    +0.000 A 
ATOM      6  N   UNL     1       2.059   9.704  18.312  0.00  0.00    +0.000 N 
ATOM      7  N   UNL     1       3.632   8.118  17.491  0.00  0.00    +0.000 NA
ATOM      8  C   UNL     1       4.113   6.857  17.413  0.00  0.00    +0.000 A 
ATOM      9  N   UNL     1       5.078   6.672  16.448  0.00  0.00    +0.000 N 
ATOM     10  N   UNL     1       3.729   5.817  18.176  0.00  0.00    +0.000 NA
ATOM     11  C   UNL     1       2.812   6.165  19.092  0.00  0.00    +0.000 A 
ATOM     12  H   UNL     1       2.453  10.221  17.533  0.00  0.00    +0.000 HD
ATOM     13  H   UNL     1       5.778   7.399  16.481  0.00  0.00    +0.000 HD
ENDROOT
BRANCH   6  14
ATOM     14  C   UNL     1       0.726  10.067  18.612  0.00  0.00    +0.000 A 
ATOM     15  C   UNL     1       0.466  10.799  19.781  0.00  0.00    +0.000 A 
ATOM     16  C   UNL     1      -0.843  11.121  20.168  0.00  0.00    +0.000 A 
ATOM     17  C   UNL     1      -1.895  10.818  19.304  0.00  0.00    +0.000 A 
ATOM     18  C   UNL     1      -1.647  10.128  18.120  0.00  0.00    +0.000 A 
ATOM     19 CL   UNL     1      -2.959   9.733  17.075  0.00  0.00    +0.000 Cl
ATOM     20  C   UNL     1      -0.349   9.760  17.771  0.00  0.00    +0.000 A 
BRANCH  16  21
ATOM     21  N   UNL     1      -1.069  11.927  21.294  0.00  0.00    +0.000 N 
ATOM     22  H   UNL     1      -1.926  11.702  21.788  0.00  0.00    +0.000 HD
ATOM     23  H   UNL     1      -0.989  12.922  21.105  0.00  0.00    +0.000 HD
ENDBRANCH  16  21
ENDBRANCH   6  14
BRANCH   9  24
ATOM     24  C   UNL     1       5.444   5.339  16.021  0.00  0.00    +0.000 C 
ATOM     25  C   UNL     1       5.618   5.314  14.508  0.00  0.00    +0.000 C 
ATOM     26  C   UNL     1       6.489   4.093  14.309  0.00  0.00    +0.000 C 
ATOM     27  N   UNL     1       7.486   4.184  15.383  0.00  0.00    +0.000 NA
ATOM     28  C   UNL     1       6.796   4.822  16.530  0.00  0.00    +0.000 C 
ATOM     29  H   UNL     1       8.234   4.807  15.075  0.00  0.00    +0.000 HD
ENDBRANCH   9  24
BRANCH   1  31
ATOM     30  C   UNL     1       2.183   3.644  21.805  0.00  0.00    +0.000 C 
ATOM     31  C   UNL     1       2.543   3.991  20.358  0.00  0.00    +0.000 C 
ATOM     32  C   UNL     1       1.834   3.053  19.378  0.00  0.00    +0.000 C 
ENDBRANCH   1  31
TORSDOF 4
ENDMDL
MODEL 3
REMARK VINA RESULT:      -7.2      3.546      7.675
REMARK  Name = 
REMARK  6 active torsions:
REMARK  status: ('A' for Active; 'I' for Inactive)
REMARK    1  A    between atoms: C_1  and  C_2
REMARK    2  A    between atoms: C_2  and  C_3
REMARK    3  A    between atoms: C_2  and  N_4
REMARK    4  A    between atoms: N_9  and  C_10
REMARK    5  A    between atoms: C_12  and  N_13
REMARK    6  A    between atoms: N_20  and  C_21
REMARK                            x       y       z     vdW  Elec       q    Type
REMARK                         _______ _______ _______ _____ _____    ______ ____
ROOT
ATOM      1  N   UNL     1       2.256   5.398  20.074  0.00  0.00    +0.000 N 
ATOM      2  C   UNL     1       1.378   6.187  20.772  0.00  0.00    +0.000 A 
ATOM      3  N   UNL     1       1.335   7.408  20.299  0.00  0.00    +0.000 NA
ATOM      4  C   UNL     1       2.234   7.420  19.253  0.00  0.00    +0.000 A 
ATOM      5  C   UNL     1       2.630   8.423  18.353  0.00  0.00    +0.000 A 
ATOM      6  N   UNL     1       2.077   9.717  18.318  0.00  0.00    +0.000 N 
ATOM      7  N   UNL     1       3.636   8.124  17.486  0.00  0.00    +0.000 NA
ATOM      8  C   UNL     1       4.111   6.861  17.405  0.00  0.00    +0.000 A 
ATOM      9  N   UNL     1       5.067   6.670  16.432  0.00  0.00    +0.000 N 
ATOM     10  N   UNL     1       3.726   5.822  18.171  0.00  0.00    +0.000 NA
ATOM     11  C   UNL     1       2.818   6.175  19.094  0.00  0.00    +0.000 A 
ATOM     12  H   UNL     1       2.468  10.233  17.536  0.00  0.00    +0.000 HD
ATOM     13  H   UNL     1       5.771   7.394  16.461  0.00  0.00    +0.000 HD
ENDROOT
BRANCH   6  14
ATOM     14  C   UNL     1       0.749  10.087  18.628  0.00  0.00    +0.000 A 
ATOM     15  C   UNL     1      -0.276   9.768  17.723  0.00  0.00    +0.000 A 
ATOM     16  C   UNL     1      -1.600  10.175  17.941  0.00  0.00    +0.000 A 
ATOM     17  C   UNL     1      -1.924  10.798  19.147  0.00  0.00    +0.000 A 
ATOM     18  C   UNL     1      -0.924  11.083  20.073  0.00  0.00    +0.000 A 
ATOM     19 CL   UNL     1      -1.331  11.879  21.546  0.00  0.00    +0.000 Cl
ATOM     20  C   UNL     1       0.400  10.727  19.822  0.00  0.00    +0.000 A 
BRANCH  16  21
ATOM     21  N   UNL     1      -2.618   9.770  17.065  0.00  0.00    +0.000 N 
ATOM     22  H   UNL     1      -2.330   9.745  16.092  0.00  0.00    +0.000 HD
ATOM     23  H   UNL     1      -3.489  10.278  17.190  0.00  0.00    +0.000 HD
ENDBRANCH  16  21
ENDBRANCH   6  14
BRANCH   9  24
ATOM     24  C   UNL     1       5.423   5.335  16.003  0.00  0.00    +0.000 C 
ATOM     25  C   UNL     1       5.630   5.319  14.494  0.00  0.00    +0.000 C 
ATOM     26  C   UNL     1       6.488   4.088  14.304  0.00  0.00    +0.000 C 
ATOM     27  N   UNL     1       7.462   4.156  15.401  0.00  0.00    +0.000 NA
ATOM     28  C   UNL     1       6.756   4.795  16.537  0.00  0.00    +0.000 C 
ATOM     29  H   UNL     1       8.225   4.770  15.114  0.00  0.00    +0.000 HD
ENDBRANCH   9  24
BRANCH   1  31
ATOM     30  C   UNL     1       2.218   3.663  21.818  0.00  0.00    +0.000 C 
ATOM     31  C   UNL     1       2.547   4.002  20.361  0.00  0.00    +0.000 C 
ATOM     32  C   UNL     1       1.809   3.067  19.401  0.00  0.00    +0.000 C 
ENDBRANCH   1  31
TORSDOF 4
ENDMDL
MODEL 4
REMARK VINA RESULT:      -7.1      3.295      7.579
REMARK  Name = 
REMARK  6 active torsions:
REMARK  status: ('A' for Active; 'I' for Inactive)
REMARK    1  A    between atoms: C_1  and  C_2
REMARK    2  A    between atoms: C_2  and  C_3
REMARK    3  A    between atoms: C_2  and  N_4
REMARK    4  A    between atoms: N_9  and  C_10
REMARK    5  A    between atoms: C_12  and  N_13
REMARK    6  A    between atoms: N_20  and  C_21
REMARK                            x       y       z     vdW  Elec       q    Type
REMARK                         _______ _______ _______ _____ _____    ______ ____
ROOT
ATOM      1  N   UNL     1       2.883   4.229  19.076  0.00  0.00    +0.000 N 
ATOM      2  C   UNL     1       2.068   4.917  19.936  0.00  0.00    +0.000 A 
ATOM      3  N   UNL     1       2.092   6.207  19.707  0.00  0.00    +0.000 NA
ATOM      4  C   UNL     1       2.973   6.369  18.658  0.00  0.00    +0.000 A 
ATOM      5  C   UNL     1       3.416   7.503  17.957  0.00  0.00    +0.000 A 
ATOM      6  N   UNL     1       2.943   8.809  18.186  0.00  0.00    +0.000 N 
ATOM      7  N   UNL     1       4.387   7.319  17.021  0.00  0.00    +0.000 NA
ATOM      8  C   UNL     1       4.781   6.070  16.687  0.00  0.00    +0.000 A 
ATOM      9  N   UNL     1       5.708   6.016  15.669  0.00  0.00    +0.000 N 
ATOM     10  N   UNL     1       4.346   4.927  17.249  0.00  0.00    +0.000 NA
ATOM     11  C   UNL     1       3.477   5.147  18.247  0.00  0.00    +0.000 A 
ATOM     12  H   UNL     1       3.352   9.442  17.507  0.00  0.00    +0.000 HD
ATOM     13  H   UNL     1       6.456   6.679  15.816  0.00  0.00    +0.000 HD
ENDROOT
BRANCH   6  14
ATOM     14  C   UNL     1       1.645   9.187  18.598  0.00  0.00    +0.000 A 
ATOM     15  C   UNL     1       0.673   9.458  17.622  0.00  0.00    +0.000 A 
ATOM     16  C   UNL     1      -0.608   9.911  17.970  0.00  0.00    +0.000 A 
ATOM     17  C   UNL     1      -0.961   9.967  19.319  0.00  0.00    +0.000 A 
ATOM     18  C   UNL     1      -0.019   9.660  20.297  0.00  0.00    +0.000 A 
ATOM     19 CL   UNL     1      -0.456   9.762  21.961  0.00  0.00    +0.000 Cl
ATOM     20  C   UNL     1       1.271   9.268  19.944  0.00  0.00    +0.000 A 
BRANCH  16  21
ATOM     21  N   UNL     1      -1.587  10.091  16.981  0.00  0.00    +0.000 N 
ATOM     22  H   UNL     1      -2.518   9.816  17.277  0.00  0.00    +0.000 HD
ATOM     23  H   UNL     1      -1.337   9.686  16.083  0.00  0.00    +0.000 HD
ENDBRANCH  16  21
ENDBRANCH   6  14
BRANCH   9  24
ATOM     24  C   UNL     1       5.974   4.771  14.982  0.00  0.00    +0.000 C 
ATOM     25  C   UNL     1       4.920   4.542  13.906  0.00  0.00    +0.000 C 
ATOM     26  C   UNL     1       5.618   3.573  12.979  0.00  0.00    +0.000 C 
ATOM     27  N   UNL     1       6.987   4.093  12.878  0.00  0.00    +0.000 NA
ATOM     28  C   UNL     1       7.288   4.712  14.192  0.00  0.00    +0.000 C 
ATOM     29  H   UNL     1       7.000   4.828  12.170  0.00  0.00    +0.000 HD
ENDBRANCH   9  24
BRANCH   1  31
ATOM     30  C   UNL     1       4.163   2.397  20.105  0.00  0.00    +0.000 C 
ATOM     31  C   UNL     1       3.093   2.789  19.082  0.00  0.00    +0.000 C 
ATOM     32  C   UNL     1       1.787   2.035  19.339  0.00  0.00    +0.000 C 
ENDBRANCH   1  31
TORSDOF 4
ENDMDL
MODEL 5
REMARK VINA RESULT:      -7.1      2.936      7.394
REMARK  Name = 
REMARK  6 active torsions:
REMARK  status: ('A' for Active; 'I' for Inactive)
REMARK    1  A    between atoms: C_1  and  C_2
REMARK    2  A    between atoms: C_2  and  C_3
REMARK    3  A    between atoms: C_2  and  N_4
REMARK    4  A    between atoms: N_9  and  C_10
REMARK    5  A    between atoms: C_12  and  N_13
REMARK    6  A    between atoms: N_20  and  C_21
REMARK                            x       y       z     vdW  Elec       q    Type
REMARK                         _______ _______ _______ _____ _____    ______ ____
ROOT
ATOM      1  N   UNL     1       2.751   4.332  19.073  0.00  0.00    +0.000 N 
ATOM      2  C   UNL     1       1.897   5.027  19.891  0.00  0.00    +0.000 A 
ATOM      3  N   UNL     1       1.928   6.315  19.650  0.00  0.00    +0.000 NA
ATOM      4  C   UNL     1       2.852   6.468  18.637  0.00  0.00    +0.000 A 
ATOM      5  C   UNL     1       3.320   7.595  17.942  0.00  0.00    +0.000 A 
ATOM      6  N   UNL     1       2.834   8.902  18.137  0.00  0.00    +0.000 N 
ATOM      7  N   UNL     1       4.330   7.404  17.049  0.00  0.00    +0.000 NA
ATOM      8  C   UNL     1       4.742   6.153  16.746  0.00  0.00    +0.000 A 
ATOM      9  N   UNL     1       5.710   6.091  15.768  0.00  0.00    +0.000 N 
ATOM     10  N   UNL     1       4.286   5.015  17.302  0.00  0.00    +0.000 NA
ATOM     11  C   UNL     1       3.375   5.243  18.261  0.00  0.00    +0.000 A 
ATOM     12  H   UNL     1       3.269   9.529  17.468  0.00  0.00    +0.000 HD
ATOM     13  H   UNL     1       6.449   6.759  15.939  0.00  0.00    +0.000 HD
ENDROOT
BRANCH   6  14
ATOM     14  C   UNL     1       1.519   9.281  18.490  0.00  0.00    +0.000 A 
ATOM     15  C   UNL     1       1.235   9.591  19.829  0.00  0.00    +0.000 A 
ATOM     16  C   UNL     1      -0.066   9.899  20.251  0.00  0.00    +0.000 A 
ATOM     17  C   UNL     1      -1.073  10.026  19.293  0.00  0.00    +0.000 A 
ATOM     18  C   UNL     1      -0.796   9.762  17.954  0.00  0.00    +0.000 A 
ATOM     19 CL   UNL     1      -2.054   9.893  16.783  0.00  0.00    +0.000 Cl
ATOM     20  C   UNL     1       0.488   9.399  17.551  0.00  0.00    +0.000 A 
BRANCH  16  21
ATOM     21  N   UNL     1      -0.307  10.288  21.576  0.00  0.00    +0.000 N 
ATOM     22  H   UNL     1       0.439  10.032  22.216  0.00  0.00    +0.000 HD
ATOM     23  H   UNL     1      -1.219  10.007  21.925  0.00  0.00    +0.000 HD
ENDBRANCH  16  21
ENDBRANCH   6  14
BRANCH   9  24
ATOM     24  C   UNL     1       6.008   4.840  15.107  0.00  0.00    +0.000 C 
ATOM     25  C   UNL     1       4.951   4.553  14.048  0.00  0.00    +0.000 C 
ATOM     26  C   UNL     1       5.670   3.585  13.136  0.00  0.00    +0.000 C 
ATOM     27  N   UNL     1       7.021   4.146  13.008  0.00  0.00    +0.000 NA
ATOM     28  C   UNL     1       7.315   4.804  14.304  0.00  0.00    +0.000 C 
ATOM     29  H   UNL     1       7.003   4.865  12.283  0.00  0.00    +0.000 HD
ENDBRANCH   9  24
BRANCH   1  31
ATOM     30  C   UNL     1       4.094   2.528  20.070  0.00  0.00    +0.000 C 
ATOM     31  C   UNL     1       2.964   2.893  19.105  0.00  0.00    +0.000 C 
ATOM     32  C   UNL     1       1.677   2.145  19.460  0.00  0.00    +0.000 C 
ENDBRANCH   1  31
TORSDOF 4
ENDMDL
MODEL 6
REMARK VINA RESULT:      -6.8      8.200     11.589
REMARK  Name = 
REMARK  6 active torsions:
REMARK  status: ('A' for Active; 'I' for Inactive)
REMARK    1  A    between atoms: C_1  and  C_2
REMARK    2  A    between atoms: C_2  and  C_3
REMARK    3  A    between atoms: C_2  and  N_4
REMARK    4  A    between atoms: N_9  and  C_10
REMARK    5  A    between atoms: C_12  and  N_13
REMARK    6  A    between atoms: N_20  and  C_21
REMARK                            x       y       z     vdW  Elec       q    Type
REMARK                         _______ _______ _______ _____ _____    ______ ____
ROOT
ATOM      1  N   UNL     1       6.883  14.986  21.552  0.00  0.00    +0.000 N 
ATOM      2  C   UNL     1       5.566  15.303  21.764  0.00  0.00    +0.000 A 
ATOM      3  N   UNL     1       4.884  15.335  20.645  0.00  0.00    +0.000 NA
ATOM      4  C   UNL     1       5.800  15.037  19.657  0.00  0.00    +0.000 A 
ATOM      5  C   UNL     1       5.686  14.911  18.263  0.00  0.00    +0.000 A 
ATOM      6  N   UNL     1       4.474  15.021  17.556  0.00  0.00    +0.000 N 
ATOM      7  N   UNL     1       6.832  14.702  17.559  0.00  0.00    +0.000 NA
ATOM      8  C   UNL     1       7.996  14.472  18.206  0.00  0.00    +0.000 A 
ATOM      9  N   UNL     1       9.063  14.193  17.382  0.00  0.00    +0.000 N 
ATOM     10  N   UNL     1       8.175  14.491  19.540  0.00  0.00    +0.000 NA
ATOM     11  C   UNL     1       7.053  14.814  20.203  0.00  0.00    +0.000 A 
ATOM     12  H   UNL     1       4.633  14.815  16.576  0.00  0.00    +0.000 HD
ATOM     13  H   UNL     1       9.119  14.849  16.615  0.00  0.00    +0.000 HD
ENDROOT
BRANCH   6  14
ATOM     14  C   UNL     1       3.186  14.651  18.007  0.00  0.00    +0.000 A 
ATOM     15  C   UNL     1       2.850  13.289  18.066  0.00  0.00    +0.000 A 
ATOM     16  C   UNL     1       1.564  12.866  18.432  0.00  0.00    +0.000 A 
ATOM     17  C   UNL     1       0.641  13.817  18.871  0.00  0.00    +0.000 A 
ATOM     18  C   UNL     1       0.975  15.169  18.858  0.00  0.00    +0.000 A 
ATOM     19 CL   UNL     1      -0.183  16.336  19.374  0.00  0.00    +0.000 Cl
ATOM     20  C   UNL     1       2.237  15.585  18.436  0.00  0.00    +0.000 A 
BRANCH  16  21
ATOM     21  N   UNL     1       1.280  11.499  18.566  0.00  0.00    +0.000 N 
ATOM     22  H   UNL     1       2.109  10.921  18.663  0.00  0.00    +0.000 HD
ATOM     23  H   UNL     1       0.649  11.143  17.853  0.00  0.00    +0.000 HD
ENDBRANCH  16  21
ENDBRANCH   6  14
BRANCH   9  24
ATOM     24  C   UNL     1      10.273  13.607  17.917  0.00  0.00    +0.000 C 
ATOM     25  C   UNL     1      10.169  12.088  17.879  0.00  0.00    +0.000 C 
ATOM     26  C   UNL     1      11.621  11.669  17.932  0.00  0.00    +0.000 C 
ATOM     27  N   UNL     1      12.298  12.603  17.023  0.00  0.00    +0.000 NA
ATOM     28  C   UNL     1      11.557  13.883  17.124  0.00  0.00    +0.000 C 
ATOM     29  H   UNL     1      12.199  12.252  16.070  0.00  0.00    +0.000 HD
ENDBRANCH   9  24
BRANCH   1  31
ATOM     30  C   UNL     1       7.562  15.789  23.776  0.00  0.00    +0.000 C 
ATOM     31  C   UNL     1       7.903  14.891  22.584  0.00  0.00    +0.000 C 
ATOM     32  C   UNL     1       8.112  13.443  23.032  0.00  0.00    +0.000 C 
ENDBRANCH   1  31
TORSDOF 4
ENDMDL
MODEL 7
REMARK VINA RESULT:      -6.7      8.507      9.712
REMARK  Name = 
REMARK  6 active torsions:
REMARK  status: ('A' for Active; 'I' for Inactive)
REMARK    1  A    between atoms: C_1  and  C_2
REMARK    2  A    between atoms: C_2  and  C_3
REMARK    3  A    between atoms: C_2  and  N_4
REMARK    4  A    between atoms: N_9  and  C_10
REMARK    5  A    between atoms: C_12  and  N_13
REMARK    6  A    between atoms: N_20  and  C_21
REMARK                            x       y       z     vdW  Elec       q    Type
REMARK                         _______ _______ _______ _____ _____    ______ ____
ROOT
ATOM      1  N   UNL     1       5.991  14.694  21.856  0.00  0.00    +0.000 N 
ATOM      2  C   UNL     1       6.717  14.787  20.697  0.00  0.00    +0.000 A 
ATOM      3  N   UNL     1       7.814  14.071  20.747  0.00  0.00    +0.000 NA
ATOM      4  C   UNL     1       7.809  13.494  22.000  0.00  0.00    +0.000 A 
ATOM      5  C   UNL     1       8.701  12.623  22.647  0.00  0.00    +0.000 A 
ATOM      6  N   UNL     1       9.851  12.078  22.045  0.00  0.00    +0.000 N 
ATOM      7  N   UNL     1       8.443  12.319  23.949  0.00  0.00    +0.000 NA
ATOM      8  C   UNL     1       7.290  12.723  24.526  0.00  0.00    +0.000 A 
ATOM      9  N   UNL     1       7.112  12.281  25.818  0.00  0.00    +0.000 N 
ATOM     10  N   UNL     1       6.344  13.489  23.950  0.00  0.00    +0.000 NA
ATOM     11  C   UNL     1       6.679  13.868  22.708  0.00  0.00    +0.000 A 
ATOM     12  H   UNL     1      10.288  11.420  22.682  0.00  0.00    +0.000 HD
ATOM     13  H   UNL     1       7.944  12.421  26.374  0.00  0.00    +0.000 HD
ENDROOT
BRANCH   6  14
ATOM     14  C   UNL     1      10.024  11.742  20.683  0.00  0.00    +0.000 A 
ATOM     15  C   UNL     1      11.063  12.348  19.959  0.00  0.00    +0.000 A 
ATOM     16  C   UNL     1      11.235  12.111  18.587  0.00  0.00    +0.000 A 
ATOM     17  C   UNL     1      10.436  11.153  17.962  0.00  0.00    +0.000 A 
ATOM     18  C   UNL     1       9.428  10.513  18.679  0.00  0.00    +0.000 A 
ATOM     19 CL   UNL     1       8.427   9.354  17.890  0.00  0.00    +0.000 Cl
ATOM     20  C   UNL     1       9.224  10.798  20.028  0.00  0.00    +0.000 A 
BRANCH  16  21
ATOM     21  N   UNL     1      12.332  12.661  17.907  0.00  0.00    +0.000 N 
ATOM     22  H   UNL     1      12.531  12.205  17.022  0.00  0.00    +0.000 HD
ATOM     23  H   UNL     1      13.165  12.751  18.483  0.00  0.00    +0.000 HD
ENDBRANCH  16  21
ENDBRANCH   6  14
BRANCH   9  24
ATOM     24  C   UNL     1       5.809  12.344  26.444  0.00  0.00    +0.000 C 
ATOM     25  C   UNL     1       5.143  10.976  26.385  0.00  0.00    +0.000 C 
ATOM     26  C   UNL     1       4.125  11.070  27.499  0.00  0.00    +0.000 C 
ATOM     27  N   UNL     1       4.847  11.733  28.592  0.00  0.00    +0.000 NA
ATOM     28  C   UNL     1       5.804  12.663  27.945  0.00  0.00    +0.000 C 
ATOM     29  H   UNL     1       5.382  11.027  29.098  0.00  0.00    +0.000 HD
ENDBRANCH   9  24
BRANCH   1  31
ATOM     30  C   UNL     1       4.828  16.858  21.722  0.00  0.00    +0.000 C 
ATOM     31  C   UNL     1       4.739  15.383  22.124  0.00  0.00    +0.000 C 
ATOM     32  C   UNL     1       3.562  14.696  21.428  0.00  0.00    +0.000 C 
ENDBRANCH   1  31
TORSDOF 4
ENDMDL
MODEL 8
REMARK VINA RESULT:      -6.7      8.475     11.733
REMARK  Name = 
REMARK  6 active torsions:
REMARK  status: ('A' for Active; 'I' for Inactive)
REMARK    1  A    between atoms: C_1  and  C_2
REMARK    2  A    between atoms: C_2  and  C_3
REMARK    3  A    between atoms: C_2  and  N_4
REMARK    4  A    between atoms: N_9  and  C_10
REMARK    5  A    between atoms: C_12  and  N_13
REMARK    6  A    between atoms: N_20  and  C_21
REMARK                            x       y       z     vdW  Elec       q    Type
REMARK                         _______ _______ _______ _____ _____    ______ ____
ROOT
ATOM      1  N   UNL     1       6.939  15.391  21.396  0.00  0.00    +0.000 N 
ATOM      2  C   UNL     1       5.630  15.740  21.608  0.00  0.00    +0.000 A 
ATOM      3  N   UNL     1       4.909  15.616  20.521  0.00  0.00    +0.000 NA
ATOM      4  C   UNL     1       5.789  15.180  19.553  0.00  0.00    +0.000 A 
ATOM      5  C   UNL     1       5.625  14.860  18.195  0.00  0.00    +0.000 A 
ATOM      6  N   UNL     1       4.388  14.873  17.524  0.00  0.00    +0.000 N 
ATOM      7  N   UNL     1       6.745  14.550  17.487  0.00  0.00    +0.000 NA
ATOM      8  C   UNL     1       7.932  14.409  18.118  0.00  0.00    +0.000 A 
ATOM      9  N   UNL     1       8.970  14.013  17.303  0.00  0.00    +0.000 N 
ATOM     10  N   UNL     1       8.159  14.614  19.429  0.00  0.00    +0.000 NA
ATOM     11  C   UNL     1       7.061  15.031  20.079  0.00  0.00    +0.000 A 
ATOM     12  H   UNL     1       4.512  14.531  16.577  0.00  0.00    +0.000 HD
ATOM     13  H   UNL     1       8.997  14.555  16.450  0.00  0.00    +0.000 HD
ENDROOT
BRANCH   6  14
ATOM     14  C   UNL     1       3.118  14.574  18.068  0.00  0.00    +0.000 A 
ATOM     15  C   UNL     1       2.216  15.623  18.307  0.00  0.00    +0.000 A 
ATOM     16  C   UNL     1       0.972  15.396  18.915  0.00  0.00    +0.000 A 
ATOM     17  C   UNL     1       0.574  14.082  19.166  0.00  0.00    +0.000 A 
ATOM     18  C   UNL     1       1.443  13.028  18.893  0.00  0.00    +0.000 A 
ATOM     19 CL   UNL     1       0.952  11.411  19.235  0.00  0.00    +0.000 Cl
ATOM     20  C   UNL     1       2.701  13.267  18.344  0.00  0.00    +0.000 A 
BRANCH  16  21
ATOM     21  N   UNL     1       0.056  16.447  19.065  0.00  0.00    +0.000 N 
ATOM     22  H   UNL     1      -0.487  16.633  18.228  0.00  0.00    +0.000 HD
ATOM     23  H   UNL     1       0.467  17.294  19.448  0.00  0.00    +0.000 HD
ENDBRANCH  16  21
ENDBRANCH   6  14
BRANCH   9  24
ATOM     24  C   UNL     1      10.198  13.504  17.872  0.00  0.00    +0.000 C 
ATOM     25  C   UNL     1      10.139  11.984  17.949  0.00  0.00    +0.000 C 
ATOM     26  C   UNL     1      11.603  11.612  18.022  0.00  0.00    +0.000 C 
ATOM     27  N   UNL     1      12.247  12.493  17.041  0.00  0.00    +0.000 NA
ATOM     28  C   UNL     1      11.469  13.756  17.050  0.00  0.00    +0.000 C 
ATOM     29  H   UNL     1      12.153  12.069  16.117  0.00  0.00    +0.000 HD
ENDBRANCH   9  24
BRANCH   1  31
ATOM     30  C   UNL     1       7.724  16.533  23.429  0.00  0.00    +0.000 C 
ATOM     31  C   UNL     1       7.996  15.438  22.394  0.00  0.00    +0.000 C 
ATOM     32  C   UNL     1       8.185  14.080  23.073  0.00  0.00    +0.000 C 
ENDBRANCH   1  31
TORSDOF 4
ENDMDL
MODEL 9
REMARK VINA RESULT:      -6.7      3.876      5.716
REMARK  Name = 
REMARK  6 active torsions:
REMARK  status: ('A' for Active; 'I' for Inactive)
REMARK    1  A    between atoms: C_1  and  C_2
REMARK    2  A    between atoms: C_2  and  C_3
REMARK    3  A    between atoms: C_2  and  N_4
REMARK    4  A    between atoms: N_9  and  C_10
REMARK    5  A    between atoms: C_12  and  N_13
REMARK    6  A    between atoms: N_20  and  C_21
REMARK                            x       y       z     vdW  Elec       q    Type
REMARK                         _______ _______ _______ _____ _____    ______ ____
ROOT
ATOM      1  N   UNL     1       0.625   9.579  21.254  0.00  0.00    +0.000 N 
ATOM      2  C   UNL     1       0.578   8.209  21.272  0.00  0.00    +0.000 A 
ATOM      3  N   UNL     1       1.108   7.687  20.193  0.00  0.00    +0.000 NA
ATOM      4  C   UNL     1       1.507   8.765  19.431  0.00  0.00    +0.000 A 
ATOM      5  C   UNL     1       2.141   8.862  18.181  0.00  0.00    +0.000 A 
ATOM      6  N   UNL     1       2.581   7.755  17.430  0.00  0.00    +0.000 N 
ATOM      7  N   UNL     1       2.305  10.108  17.658  0.00  0.00    +0.000 NA
ATOM      8  C   UNL     1       2.006  11.200  18.396  0.00  0.00    +0.000 A 
ATOM      9  N   UNL     1       2.296  12.400  17.785  0.00  0.00    +0.000 N 
ATOM     10  N   UNL     1       1.476  11.196  19.634  0.00  0.00    +0.000 NA
ATOM     11  C   UNL     1       1.217   9.956  20.076  0.00  0.00    +0.000 A 
ATOM     12  H   UNL     1       3.076   8.079  16.606  0.00  0.00    +0.000 HD
ATOM     13  H   UNL     1       1.960  12.419  16.832  0.00  0.00    +0.000 HD
ENDROOT
BRANCH   6  14
ATOM     14  C   UNL     1       3.064   6.523  17.928  0.00  0.00    +0.000 A 
ATOM     15  C   UNL     1       4.382   6.451  18.405  0.00  0.00    +0.000 A 
ATOM     16  C   UNL     1       4.940   5.240  18.840  0.00  0.00    +0.000 A 
ATOM     17  C   UNL     1       4.122   4.112  18.919  0.00  0.00    +0.000 A 
ATOM     18  C   UNL     1       2.800   4.179  18.488  0.00  0.00    +0.000 A 
ATOM     19 CL   UNL     1       1.808   2.772  18.563  0.00  0.00    +0.000 Cl
ATOM     20  C   UNL     1       2.270   5.373  18.002  0.00  0.00    +0.000 A 
BRANCH  16  21
ATOM     21  N   UNL     1       6.229   5.212  19.392  0.00  0.00    +0.000 N 
ATOM     22  H   UNL     1       6.317   5.760  20.242  0.00  0.00    +0.000 HD
ATOM     23  H   UNL     1       6.963   5.427  18.723  0.00  0.00    +0.000 HD
ENDBRANCH  16  21
ENDBRANCH   6  14
BRANCH   9  24
ATOM     24  C   UNL     1       2.347  13.624  18.555  0.00  0.00    +0.000 C 
ATOM     25  C   UNL     1       3.237  14.638  17.848  0.00  0.00    +0.000 C 
ATOM     26  C   UNL     1       2.758  15.946  18.439  0.00  0.00    +0.000 C 
ATOM     27  N   UNL     1       1.296  15.814  18.467  0.00  0.00    +0.000 NA
ATOM     28  C   UNL     1       1.019  14.377  18.702  0.00  0.00    +0.000 C 
ATOM     29  H   UNL     1       0.934  16.061  17.545  0.00  0.00    +0.000 HD
ENDBRANCH   9  24
BRANCH   1  31
ATOM     30  C   UNL     1      -1.063  11.295  21.764  0.00  0.00    +0.000 C 
ATOM     31  C   UNL     1       0.104  10.455  22.292  0.00  0.00    +0.000 C 
ATOM     32  C   UNL     1      -0.310   9.664  23.535  0.00  0.00    +0.000 C 
ENDBRANCH   1  31
TORSDOF 4
ENDMDL
