MODEL 1
REMARK VINA RESULT:      -6.6      0.000      0.000
REMARK  Name = 
REMARK  17 active torsions:
REMARK  status: ('A' for Active; 'I' for Inactive)
REMARK    1  A    between atoms: C_1  and  C_2
REMARK    2  A    between atoms: C_2  and  N_3
REMARK    3  A    between atoms: N_3  and  C_4
REMARK    4  A    between atoms: N_3  and  C_8
REMARK    5  A    between atoms: C_4  and  C_5
REMARK    6  A    between atoms: C_13  and  C_15
REMARK    7  A    between atoms: C_15  and  C_16
REMARK    8  A    between atoms: C_15  and  N_20
REMARK    9  A    between atoms: C_16  and  C_17
REMARK   10  A    between atoms: C_17  and  C_18
REMARK   11  A    between atoms: C_17  and  C_19
REMARK   12  A    between atoms: C_21  and  C_23
REMARK   13  A    between atoms: C_23  and  N_24
REMARK   14  A    between atoms: C_23  and  C_25
REMARK   15  A    between atoms: C_25  and  C_26
REMARK   16  A    between atoms: C_26  and  C_27
REMARK   17  A    between atoms: C_26  and  C_28
REMARK                            x       y       z     vdW  Elec       q    Type
REMARK                         _______ _______ _______ _____ _____    ______ ____
ROOT
ATOM      1  C   UNL     1       2.842   5.446  18.653  0.00  0.00    +0.000 C 
ATOM      2  C   UNL     1       2.292   5.126  20.068  0.00  0.00    +0.000 C 
ATOM      3  C   UNL     1       1.384   6.201  20.642  0.00  0.00    +0.000 C 
ATOM      4  C   UNL     1       2.068   7.547  20.490  0.00  0.00    +0.000 C 
ATOM      5  N   UNL     1       2.126   7.861  19.071  0.00  0.00    +0.000 N 
ATOM      6  C   UNL     1       1.703   9.053  18.495  0.00  0.00    +0.000 C 
ATOM      7  O   UNL     1       1.916   9.301  17.296  0.00  0.00    +0.000 OA
ATOM      8  C   UNL     1       2.970   6.955  18.287  0.00  0.00    +0.000 C 
ENDROOT
BRANCH   1   9
ATOM      9  N   UNL     1       4.065   4.639  18.490  0.00  0.00    +0.000 NA
BRANCH   9  11
ATOM     10  C   UNL     1       2.762   2.635  17.534  0.00  0.00    +0.000 C 
ATOM     11  C   UNL     1       3.913   3.182  18.372  0.00  0.00    +0.000 C 
ENDBRANCH   9  11
BRANCH   9  12
ATOM     12  C   UNL     1       5.256   5.118  19.208  0.00  0.00    +0.000 C 
BRANCH  12  13
ATOM     13  C   UNL     1       6.455   5.168  18.249  0.00  0.00    +0.000 C 
ATOM     14  N   UNL     1       6.393   6.159  17.303  0.00  0.00    +0.000 N 
ATOM     15  O   UNL     1       7.431   4.432  18.338  0.00  0.00    +0.000 OA
ATOM     16  H   UNL     1       5.484   6.569  17.126  0.00  0.00    +0.000 HD
ATOM     17  H   UNL     1       7.092   6.166  16.576  0.00  0.00    +0.000 HD
ENDBRANCH  12  13
ENDBRANCH   9  12
ENDBRANCH   1   9
BRANCH   6  18
ATOM     18  C   UNL     1       0.955  10.103  19.369  0.00  0.00    +0.000 C 
BRANCH  18  19
ATOM     19  N   UNL     1       1.436  11.421  18.950  0.00  0.00    +0.000 N 
ATOM     20  C   UNL     1       1.653  12.468  19.816  0.00  0.00    +0.000 C 
ATOM     21  O   UNL     1       1.486  12.387  21.029  0.00  0.00    +0.000 OA
ATOM     22  H   UNL     1       1.573  11.538  17.951  0.00  0.00    +0.000 HD
BRANCH  20  23
ATOM     23  C   UNL     1       2.062  13.777  19.112  0.00  0.00    +0.000 C 
BRANCH  23  24
ATOM     24  N   UNL     1       2.889  13.456  17.928  0.00  0.00    +0.000 NA
ATOM     25  H   UNL     1       3.117  12.459  17.968  0.00  0.00    +0.000 HD
ATOM     26  H   UNL     1       3.783  13.939  18.004  0.00  0.00    +0.000 HD
ENDBRANCH  23  24
BRANCH  23  27
ATOM     27  C   UNL     1       0.818  14.553  18.674  0.00  0.00    +0.000 C 
BRANCH  27  28
ATOM     28  C   UNL     1       0.777  16.013  19.174  0.00  0.00    +0.000 C 
ATOM     29  C   UNL     1       2.001  16.821  18.738  0.00  0.00    +0.000 C 
ATOM     30  C   UNL     1      -0.501  16.684  18.672  0.00  0.00    +0.000 C 
ENDBRANCH  27  28
ENDBRANCH  23  27
ENDBRANCH  20  23
ENDBRANCH  18  19
BRANCH  18  31
ATOM     31  C   UNL     1      -0.581   9.999  19.311  0.00  0.00    +0.000 C 
BRANCH  31  32
ATOM     32  C   UNL     1      -1.299  10.849  18.246  0.00  0.00    +0.000 C 
ATOM     33  C   UNL     1      -2.116   9.914  17.349  0.00  0.00    +0.000 C 
ATOM     34  C   UNL     1      -2.229  11.905  18.838  0.00  0.00    +0.000 C 
ENDBRANCH  31  32
ENDBRANCH  18  31
ENDBRANCH   6  18
TORSDOF 12
ENDMDL
MODEL 2
REMARK VINA RESULT:      -6.4      1.530      1.807
REMARK  Name = 
REMARK  17 active torsions:
REMARK  status: ('A' for Active; 'I' for Inactive)
REMARK    1  A    between atoms: C_1  and  C_2
REMARK    2  A    between atoms: C_2  and  N_3
REMARK    3  A    between atoms: N_3  and  C_4
REMARK    4  A    between atoms: N_3  and  C_8
REMARK    5  A    between atoms: C_4  and  C_5
REMARK    6  A    between atoms: C_13  and  C_15
REMARK    7  A    between atoms: C_15  and  C_16
REMARK    8  A    between atoms: C_15  and  N_20
REMARK    9  A    between atoms: C_16  and  C_17
REMARK   10  A    between atoms: C_17  and  C_18
REMARK   11  A    between atoms: C_17  and  C_19
REMARK   12  A    between atoms: C_21  and  C_23
REMARK   13  A    between atoms: C_23  and  N_24
REMARK   14  A    between atoms: C_23  and  C_25
REMARK   15  A    between atoms: C_25  and  C_26
REMARK   16  A    between atoms: C_26  and  C_27
REMARK   17  A    between atoms: C_26  and  C_28
REMARK                            x       y       z     vdW  Elec       q    Type
REMARK                         _______ _______ _______ _____ _____    ______ ____
ROOT
ATOM      1  C   UNL     1       3.650   5.870  17.662  0.00  0.00    +0.000 C 
ATOM      2  C   UNL     1       3.086   5.086  18.876  0.00  0.00    +0.000 C 
ATOM      3  C   UNL     1       1.947   5.788  19.597  0.00  0.00    +0.000 C 
ATOM      4  C   UNL     1       2.356   7.223  19.871  0.00  0.00    +0.000 C 
ATOM      5  N   UNL     1       2.439   7.915  18.594  0.00  0.00    +0.000 N 
ATOM      6  C   UNL     1       1.824   9.126  18.296  0.00  0.00    +0.000 C 
ATOM      7  O   UNL     1       2.058   9.723  17.232  0.00  0.00    +0.000 OA
ATOM      8  C   UNL     1       3.495   7.420  17.708  0.00  0.00    +0.000 C 
ENDROOT
BRANCH   1   9
ATOM      9  N   UNL     1       5.017   5.366  17.439  0.00  0.00    +0.000 NA
BRANCH   9  11
ATOM     10  C   UNL     1       5.652   4.156  15.257  0.00  0.00    +0.000 C 
ATOM     11  C   UNL     1       5.170   4.104  16.703  0.00  0.00    +0.000 C 
ENDBRANCH   9  11
BRANCH   9  12
ATOM     12  C   UNL     1       5.982   5.616  18.521  0.00  0.00    +0.000 C 
BRANCH  12  13
ATOM     13  C   UNL     1       7.125   6.501  18.002  0.00  0.00    +0.000 C 
ATOM     14  N   UNL     1       8.165   6.668  18.880  0.00  0.00    +0.000 N 
ATOM     15  O   UNL     1       7.160   6.980  16.875  0.00  0.00    +0.000 OA
ATOM     16  H   UNL     1       7.983   6.459  19.855  0.00  0.00    +0.000 HD
ATOM     17  H   UNL     1       8.887   7.332  18.641  0.00  0.00    +0.000 HD
ENDBRANCH  12  13
ENDBRANCH   9  12
ENDBRANCH   1   9
BRANCH   6  18
ATOM     18  C   UNL     1       0.827   9.751  19.317  0.00  0.00    +0.000 C 
BRANCH  18  19
ATOM     19  N   UNL     1       1.191  11.162  19.453  0.00  0.00    +0.000 N 
ATOM     20  C   UNL     1       1.178  11.844  20.648  0.00  0.00    +0.000 C 
ATOM     21  O   UNL     1       0.884  11.325  21.720  0.00  0.00    +0.000 OA
ATOM     22  H   UNL     1       1.427  11.637  18.588  0.00  0.00    +0.000 HD
BRANCH  20  23
ATOM     23  C   UNL     1       1.506  13.344  20.505  0.00  0.00    +0.000 C 
BRANCH  23  24
ATOM     24  N   UNL     1       2.550  13.712  21.486  0.00  0.00    +0.000 NA
ATOM     25  H   UNL     1       3.434  13.807  20.978  0.00  0.00    +0.000 HD
ATOM     26  H   UNL     1       2.693  12.934  22.129  0.00  0.00    +0.000 HD
ENDBRANCH  23  24
BRANCH  23  27
ATOM     27  C   UNL     1       2.003  13.644  19.090  0.00  0.00    +0.000 C 
BRANCH  27  28
ATOM     28  C   UNL     1       2.940  14.867  18.996  0.00  0.00    +0.000 C 
ATOM     29  C   UNL     1       4.146  14.619  18.089  0.00  0.00    +0.000 C 
ATOM     30  C   UNL     1       2.149  16.076  18.497  0.00  0.00    +0.000 C 
ENDBRANCH  27  28
ENDBRANCH  23  27
ENDBRANCH  20  23
ENDBRANCH  18  19
BRANCH  18  31
ATOM     31  C   UNL     1      -0.658   9.565  18.950  0.00  0.00    +0.000 C 
BRANCH  31  32
ATOM     32  C   UNL     1      -1.297  10.647  18.060  0.00  0.00    +0.000 C 
ATOM     33  C   UNL     1      -2.065   9.955  16.929  0.00  0.00    +0.000 C 
ATOM     34  C   UNL     1      -2.253  11.567  18.816  0.00  0.00    +0.000 C 
ENDBRANCH  31  32
ENDBRANCH  18  31
ENDBRANCH   6  18
TORSDOF 12
ENDMDL
MODEL 3
REMARK VINA RESULT:      -6.4      2.884      9.115
REMARK  Name = 
REMARK  17 active torsions:
REMARK  status: ('A' for Active; 'I' for Inactive)
REMARK    1  A    between atoms: C_1  and  C_2
REMARK    2  A    between atoms: C_2  and  N_3
REMARK    3  A    between atoms: N_3  and  C_4
REMARK    4  A    between atoms: N_3  and  C_8
REMARK    5  A    between atoms: C_4  and  C_5
REMARK    6  A    between atoms: C_13  and  C_15
REMARK    7  A    between atoms: C_15  and  C_16
REMARK    8  A    between atoms: C_15  and  N_20
REMARK    9  A    between atoms: C_16  and  C_17
REMARK   10  A    between atoms: C_17  and  C_18
REMARK   11  A    between atoms: C_17  and  C_19
REMARK   12  A    between atoms: C_21  and  C_23
REMARK   13  A    between atoms: C_23  and  N_24
REMARK   14  A    between atoms: C_23  and  C_25
REMARK   15  A    between atoms: C_25  and  C_26
REMARK   16  A    between atoms: C_26  and  C_27
REMARK   17  A    between atoms: C_26  and  C_28
REMARK                            x       y       z     vdW  Elec       q    Type
REMARK                         _______ _______ _______ _____ _____    ______ ____
ROOT
ATOM      1  C   UNL     1       0.147  10.908  19.813  0.00  0.00    +0.000 C 
ATOM      2  C   UNL     1       0.296  10.449  21.287  0.00  0.00    +0.000 C 
ATOM      3  C   UNL     1       1.369   9.396  21.507  0.00  0.00    +0.000 C 
ATOM      4  C   UNL     1       1.180   8.288  20.488  0.00  0.00    +0.000 C 
ATOM      5  N   UNL     1       1.489   8.832  19.174  0.00  0.00    +0.000 N 
ATOM      6  C   UNL     1       2.362   8.262  18.255  0.00  0.00    +0.000 C 
ATOM      7  O   UNL     1       2.465   8.709  17.100  0.00  0.00    +0.000 OA
ATOM      8  C   UNL     1       0.567   9.877  18.722  0.00  0.00    +0.000 C 
ENDROOT
BRANCH   1   9
ATOM      9  N   UNL     1      -1.213  11.461  19.684  0.00  0.00    +0.000 NA
BRANCH   9  11
ATOM     10  C   UNL     1      -2.545  13.429  20.676  0.00  0.00    +0.000 C 
ATOM     11  C   UNL     1      -1.802  12.110  20.864  0.00  0.00    +0.000 C 
ENDBRANCH   9  11
BRANCH   9  12
ATOM     12  C   UNL     1      -2.137  10.713  18.818  0.00  0.00    +0.000 C 
BRANCH  12  13
ATOM     13  C   UNL     1      -2.540  11.582  17.617  0.00  0.00    +0.000 C 
ATOM     14  N   UNL     1      -1.531  12.353  17.102  0.00  0.00    +0.000 N 
ATOM     15  O   UNL     1      -3.652  11.559  17.102  0.00  0.00    +0.000 OA
ATOM     16  H   UNL     1      -0.724  12.512  17.695  0.00  0.00    +0.000 HD
ATOM     17  H   UNL     1      -1.765  13.029  16.390  0.00  0.00    +0.000 HD
ENDBRANCH  12  13
ENDBRANCH   9  12
ENDBRANCH   1   9
BRANCH   6  18
ATOM     18  C   UNL     1       3.223   7.034  18.675  0.00  0.00    +0.000 C 
BRANCH  18  19
ATOM     19  N   UNL     1       2.373   5.851  18.527  0.00  0.00    +0.000 N 
ATOM     20  C   UNL     1       2.094   4.975  19.549  0.00  0.00    +0.000 C 
ATOM     21  O   UNL     1       2.512   5.117  20.694  0.00  0.00    +0.000 OA
ATOM     22  H   UNL     1       2.017   5.685  17.590  0.00  0.00    +0.000 HD
BRANCH  20  23
ATOM     23  C   UNL     1       1.257   3.757  19.108  0.00  0.00    +0.000 C 
BRANCH  23  24
ATOM     24  N   UNL     1       1.103   3.778  17.637  0.00  0.00    +0.000 NA
ATOM     25  H   UNL     1       1.189   4.751  17.329  0.00  0.00    +0.000 HD
ATOM     26  H   UNL     1       0.151   3.504  17.397  0.00  0.00    +0.000 HD
ENDBRANCH  23  24
BRANCH  23  27
ATOM     27  C   UNL     1       1.948   2.460  19.532  0.00  0.00    +0.000 C 
BRANCH  27  28
ATOM     28  C   UNL     1       3.449   2.399  19.179  0.00  0.00    +0.000 C 
ATOM     29  C   UNL     1       4.330   2.093  20.392  0.00  0.00    +0.000 C 
ATOM     30  C   UNL     1       3.672   1.350  18.090  0.00  0.00    +0.000 C 
ENDBRANCH  27  28
ENDBRANCH  23  27
ENDBRANCH  20  23
ENDBRANCH  18  19
BRANCH  18  31
ATOM     31  C   UNL     1       4.551   6.896  17.907  0.00  0.00    +0.000 C 
BRANCH  31  32
ATOM     32  C   UNL     1       4.868   5.517  17.302  0.00  0.00    +0.000 C 
ATOM     33  C   UNL     1       5.332   5.716  15.855  0.00  0.00    +0.000 C 
ATOM     34  C   UNL     1       5.947   4.752  18.066  0.00  0.00    +0.000 C 
ENDBRANCH  31  32
ENDBRANCH  18  31
ENDBRANCH   6  18
TORSDOF 12
ENDMDL
MODEL 4
REMARK VINA RESULT:      -6.4      1.644      2.526
REMARK  Name = 
REMARK  17 active torsions:
REMARK  status: ('A' for Active; 'I' for Inactive)
REMARK    1  A    between atoms: C_1  and  C_2
REMARK    2  A    between atoms: C_2  and  N_3
REMARK    3  A    between atoms: N_3  and  C_4
REMARK    4  A    between atoms: N_3  and  C_8
REMARK    5  A    between atoms: C_4  and  C_5
REMARK    6  A    between atoms: C_13  and  C_15
REMARK    7  A    between atoms: C_15  and  C_16
REMARK    8  A    between atoms: C_15  and  N_20
REMARK    9  A    between atoms: C_16  and  C_17
REMARK   10  A    between atoms: C_17  and  C_18
REMARK   11  A    between atoms: C_17  and  C_19
REMARK   12  A    between atoms: C_21  and  C_23
REMARK   13  A    between atoms: C_23  and  N_24
REMARK   14  A    between atoms: C_23  and  C_25
REMARK   15  A    between atoms: C_25  and  C_26
REMARK   16  A    between atoms: C_26  and  C_27
REMARK   17  A    between atoms: C_26  and  C_28
REMARK                            x       y       z     vdW  Elec       q    Type
REMARK                         _______ _______ _______ _____ _____    ______ ____
ROOT
ATOM      1  C   UNL     1       2.846   5.524  18.818  0.00  0.00    +0.000 C 
ATOM      2  C   UNL     1       2.235   5.206  20.209  0.00  0.00    +0.000 C 
ATOM      3  C   UNL     1       1.282   6.269  20.730  0.00  0.00    +0.000 C 
ATOM      4  C   UNL     1       1.948   7.626  20.598  0.00  0.00    +0.000 C 
ATOM      5  N   UNL     1       2.067   7.928  19.179  0.00  0.00    +0.000 N 
ATOM      6  C   UNL     1       1.650   9.108  18.573  0.00  0.00    +0.000 C 
ATOM      7  O   UNL     1       1.914   9.350  17.383  0.00  0.00    +0.000 OA
ATOM      8  C   UNL     1       2.962   7.032  18.444  0.00  0.00    +0.000 C 
ENDROOT
BRANCH   1   9
ATOM      9  N   UNL     1       4.089   4.739  18.720  0.00  0.00    +0.000 NA
BRANCH   9  11
ATOM     10  C   UNL     1       6.444   5.566  18.088  0.00  0.00    +0.000 C 
ATOM     11  C   UNL     1       5.342   5.388  19.128  0.00  0.00    +0.000 C 
ENDBRANCH   9  11
BRANCH   9  12
ATOM     12  C   UNL     1       4.174   3.801  17.589  0.00  0.00    +0.000 C 
BRANCH  12  13
ATOM     13  C   UNL     1       3.554   2.453  17.986  0.00  0.00    +0.000 C 
ATOM     14  N   UNL     1       4.239   1.771  18.959  0.00  0.00    +0.000 N 
ATOM     15  O   UNL     1       2.500   2.026  17.530  0.00  0.00    +0.000 OA
ATOM     16  H   UNL     1       5.200   2.044  19.123  0.00  0.00    +0.000 HD
ATOM     17  H   UNL     1       3.945   0.830  19.175  0.00  0.00    +0.000 HD
ENDBRANCH  12  13
ENDBRANCH   9  12
ENDBRANCH   1   9
BRANCH   6  18
ATOM     18  C   UNL     1       0.843  10.152  19.402  0.00  0.00    +0.000 C 
BRANCH  18  19
ATOM     19  N   UNL     1       1.267  11.475  18.942  0.00  0.00    +0.000 N 
ATOM     20  C   UNL     1       1.624  12.501  19.786  0.00  0.00    +0.000 C 
ATOM     21  O   UNL     1       1.646  12.395  21.008  0.00  0.00    +0.000 OA
ATOM     22  H   UNL     1       1.249  11.614  17.936  0.00  0.00    +0.000 HD
BRANCH  20  23
ATOM     23  C   UNL     1       1.933  13.823  19.054  0.00  0.00    +0.000 C 
BRANCH  23  24
ATOM     24  N   UNL     1       0.962  14.854  19.479  0.00  0.00    +0.000 NA
ATOM     25  H   UNL     1       1.437  15.474  20.142  0.00  0.00    +0.000 HD
ATOM     26  H   UNL     1       0.216  14.411  20.013  0.00  0.00    +0.000 HD
ENDBRANCH  23  24
BRANCH  23  27
ATOM     27  C   UNL     1       3.353  14.288  19.382  0.00  0.00    +0.000 C 
BRANCH  27  28
ATOM     28  C   UNL     1       4.206  14.631  18.142  0.00  0.00    +0.000 C 
ATOM     29  C   UNL     1       3.604  15.761  17.305  0.00  0.00    +0.000 C 
ATOM     30  C   UNL     1       5.620  15.005  18.587  0.00  0.00    +0.000 C 
ENDBRANCH  27  28
ENDBRANCH  23  27
ENDBRANCH  20  23
ENDBRANCH  18  19
BRANCH  18  31
ATOM     31  C   UNL     1      -0.686   9.973  19.331  0.00  0.00    +0.000 C 
BRANCH  31  32
ATOM     32  C   UNL     1      -1.439  10.811  18.282  0.00  0.00    +0.000 C 
ATOM     33  C   UNL     1      -2.220   9.859  17.370  0.00  0.00    +0.000 C 
ATOM     34  C   UNL     1      -2.410  11.819  18.893  0.00  0.00    +0.000 C 
ENDBRANCH  31  32
ENDBRANCH  18  31
ENDBRANCH   6  18
TORSDOF 12
ENDMDL
MODEL 5
REMARK VINA RESULT:      -6.4      1.464      1.936
REMARK  Name = 
REMARK  17 active torsions:
REMARK  status: ('A' for Active; 'I' for Inactive)
REMARK    1  A    between atoms: C_1  and  C_2
REMARK    2  A    between atoms: C_2  and  N_3
REMARK    3  A    between atoms: N_3  and  C_4
REMARK    4  A    between atoms: N_3  and  C_8
REMARK    5  A    between atoms: C_4  and  C_5
REMARK    6  A    between atoms: C_13  and  C_15
REMARK    7  A    between atoms: C_15  and  C_16
REMARK    8  A    between atoms: C_15  and  N_20
REMARK    9  A    between atoms: C_16  and  C_17
REMARK   10  A    between atoms: C_17  and  C_18
REMARK   11  A    between atoms: C_17  and  C_19
REMARK   12  A    between atoms: C_21  and  C_23
REMARK   13  A    between atoms: C_23  and  N_24
REMARK   14  A    between atoms: C_23  and  C_25
REMARK   15  A    between atoms: C_25  and  C_26
REMARK   16  A    between atoms: C_26  and  C_27
REMARK   17  A    between atoms: C_26  and  C_28
REMARK                            x       y       z     vdW  Elec       q    Type
REMARK                         _______ _______ _______ _____ _____    ______ ____
ROOT
ATOM      1  C   UNL     1       3.485   5.938  17.805  0.00  0.00    +0.000 C 
ATOM      2  C   UNL     1       2.961   5.182  19.055  0.00  0.00    +0.000 C 
ATOM      3  C   UNL     1       1.850   5.904  19.800  0.00  0.00    +0.000 C 
ATOM      4  C   UNL     1       2.273   7.343  20.029  0.00  0.00    +0.000 C 
ATOM      5  N   UNL     1       2.314   8.008  18.736  0.00  0.00    +0.000 N 
ATOM      6  C   UNL     1       1.692   9.214  18.434  0.00  0.00    +0.000 C 
ATOM      7  O   UNL     1       1.891   9.788  17.350  0.00  0.00    +0.000 OA
ATOM      8  C   UNL     1       3.336   7.489  17.824  0.00  0.00    +0.000 C 
ENDROOT
BRANCH   1   9
ATOM      9  N   UNL     1       4.841   5.425  17.546  0.00  0.00    +0.000 NA
BRANCH   9  11
ATOM     10  C   UNL     1       6.725   5.475  19.301  0.00  0.00    +0.000 C 
ATOM     11  C   UNL     1       5.544   4.760  18.652  0.00  0.00    +0.000 C 
ENDBRANCH   9  11
BRANCH   9  12
ATOM     12  C   UNL     1       5.670   6.221  16.627  0.00  0.00    +0.000 C 
BRANCH  12  13
ATOM     13  C   UNL     1       6.312   5.301  15.578  0.00  0.00    +0.000 C 
ATOM     14  N   UNL     1       5.448   4.416  14.986  0.00  0.00    +0.000 N 
ATOM     15  O   UNL     1       7.486   5.373  15.234  0.00  0.00    +0.000 OA
ATOM     16  H   UNL     1       4.572   4.238  15.463  0.00  0.00    +0.000 HD
ATOM     17  H   UNL     1       5.835   3.711  14.376  0.00  0.00    +0.000 HD
ENDBRANCH  12  13
ENDBRANCH   9  12
ENDBRANCH   1   9
BRANCH   6  18
ATOM     18  C   UNL     1       0.733   9.864  19.475  0.00  0.00    +0.000 C 
BRANCH  18  19
ATOM     19  N   UNL     1       1.133  11.266  19.600  0.00  0.00    +0.000 N 
ATOM     20  C   UNL     1       1.007  11.998  20.757  0.00  0.00    +0.000 C 
ATOM     21  O   UNL     1       0.569  11.536  21.806  0.00  0.00    +0.000 OA
ATOM     22  H   UNL     1       1.487  11.696  18.751  0.00  0.00    +0.000 HD
BRANCH  20  23
ATOM     23  C   UNL     1       1.407  13.479  20.597  0.00  0.00    +0.000 C 
BRANCH  23  24
ATOM     24  N   UNL     1       2.877  13.602  20.701  0.00  0.00    +0.000 NA
ATOM     25  H   UNL     1       3.085  14.138  21.549  0.00  0.00    +0.000 HD
ATOM     26  H   UNL     1       3.220  14.175  19.931  0.00  0.00    +0.000 HD
ENDBRANCH  23  24
BRANCH  23  27
ATOM     27  C   UNL     1       0.942  14.008  19.239  0.00  0.00    +0.000 C 
BRANCH  27  28
ATOM     28  C   UNL     1      -0.373  14.814  19.292  0.00  0.00    +0.000 C 
ATOM     29  C   UNL     1      -0.855  15.064  20.722  0.00  0.00    +0.000 C 
ATOM     30  C   UNL     1      -0.183  16.143  18.562  0.00  0.00    +0.000 C 
ENDBRANCH  27  28
ENDBRANCH  23  27
ENDBRANCH  20  23
ENDBRANCH  18  19
BRANCH  18  31
ATOM     31  C   UNL     1      -0.763   9.712  19.142  0.00  0.00    +0.000 C 
BRANCH  31  32
ATOM     32  C   UNL     1      -1.358  10.712  18.134  0.00  0.00    +0.000 C 
ATOM     33  C   UNL     1      -2.034   9.923  17.008  0.00  0.00    +0.000 C 
ATOM     34  C   UNL     1      -2.381  11.662  18.753  0.00  0.00    +0.000 C 
ENDBRANCH  31  32
ENDBRANCH  18  31
ENDBRANCH   6  18
TORSDOF 12
ENDMDL
MODEL 6
REMARK VINA RESULT:      -6.3      1.345      1.870
REMARK  Name = 
REMARK  17 active torsions:
REMARK  status: ('A' for Active; 'I' for Inactive)
REMARK    1  A    between atoms: C_1  and  C_2
REMARK    2  A    between atoms: C_2  and  N_3
REMARK    3  A    between atoms: N_3  and  C_4
REMARK    4  A    between atoms: N_3  and  C_8
REMARK    5  A    between atoms: C_4  and  C_5
REMARK    6  A    between atoms: C_13  and  C_15
REMARK    7  A    between atoms: C_15  and  C_16
REMARK    8  A    between atoms: C_15  and  N_20
REMARK    9  A    between atoms: C_16  and  C_17
REMARK   10  A    between atoms: C_17  and  C_18
REMARK   11  A    between atoms: C_17  and  C_19
REMARK   12  A    between atoms: C_21  and  C_23
REMARK   13  A    between atoms: C_23  and  N_24
REMARK   14  A    between atoms: C_23  and  C_25
REMARK   15  A    between atoms: C_25  and  C_26
REMARK   16  A    between atoms: C_26  and  C_27
REMARK   17  A    between atoms: C_26  and  C_28
REMARK                            x       y       z     vdW  Elec       q    Type
REMARK                         _______ _______ _______ _____ _____    ______ ____
ROOT
ATOM      1  C   UNL     1       2.559   5.183  18.351  0.00  0.00    +0.000 C 
ATOM      2  C   UNL     1       2.248   4.778  19.816  0.00  0.00    +0.000 C 
ATOM      3  C   UNL     1       1.550   5.858  20.627  0.00  0.00    +0.000 C 
ATOM      4  C   UNL     1       2.304   7.163  20.449  0.00  0.00    +0.000 C 
ATOM      5  N   UNL     1       2.131   7.595  19.071  0.00  0.00    +0.000 N 
ATOM      6  C   UNL     1       1.711   8.859  18.673  0.00  0.00    +0.000 C 
ATOM      7  O   UNL     1       1.724   9.197  17.478  0.00  0.00    +0.000 OA
ATOM      8  C   UNL     1       2.742   6.707  18.079  0.00  0.00    +0.000 C 
ENDROOT
BRANCH   1   9
ATOM      9  N   UNL     1       3.662   4.314  17.904  0.00  0.00    +0.000 NA
BRANCH   9  11
ATOM     10  C   UNL     1       3.466   1.746  17.944  0.00  0.00    +0.000 C 
ATOM     11  C   UNL     1       3.872   3.050  18.624  0.00  0.00    +0.000 C 
ENDBRANCH   9  11
BRANCH   9  12
ATOM     12  C   UNL     1       4.869   4.999  17.415  0.00  0.00    +0.000 C 
BRANCH  12  13
ATOM     13  C   UNL     1       5.971   4.932  18.483  0.00  0.00    +0.000 C 
ATOM     14  N   UNL     1       7.108   4.272  18.093  0.00  0.00    +0.000 N 
ATOM     15  O   UNL     1       5.891   5.471  19.580  0.00  0.00    +0.000 OA
ATOM     16  H   UNL     1       7.032   3.657  17.291  0.00  0.00    +0.000 HD
ATOM     17  H   UNL     1       7.817   4.096  18.789  0.00  0.00    +0.000 HD
ENDBRANCH  12  13
ENDBRANCH   9  12
ENDBRANCH   1   9
BRANCH   6  18
ATOM     18  C   UNL     1       1.221   9.877  19.747  0.00  0.00    +0.000 C 
BRANCH  18  19
ATOM     19  N   UNL     1       1.291  11.204  19.133  0.00  0.00    +0.000 N 
ATOM     20  C   UNL     1       1.510  12.364  19.840  0.00  0.00    +0.000 C 
ATOM     21  O   UNL     1       1.693  12.392  21.053  0.00  0.00    +0.000 OA
ATOM     22  H   UNL     1       1.130  11.230  18.131  0.00  0.00    +0.000 HD
BRANCH  20  23
ATOM     23  C   UNL     1       1.438  13.637  18.973  0.00  0.00    +0.000 C 
BRANCH  23  24
ATOM     24  N   UNL     1       2.085  13.378  17.669  0.00  0.00    +0.000 NA
ATOM     25  H   UNL     1       2.496  14.258  17.344  0.00  0.00    +0.000 HD
ATOM     26  H   UNL     1       1.369  13.146  16.981  0.00  0.00    +0.000 HD
ENDBRANCH  23  24
BRANCH  23  27
ATOM     27  C   UNL     1      -0.020  14.043  18.751  0.00  0.00    +0.000 C 
BRANCH  27  28
ATOM     28  C   UNL     1      -0.393  15.414  19.354  0.00  0.00    +0.000 C 
ATOM     29  C   UNL     1       0.031  15.550  20.817  0.00  0.00    +0.000 C 
ATOM     30  C   UNL     1       0.243  16.525  18.519  0.00  0.00    +0.000 C 
ENDBRANCH  27  28
ENDBRANCH  23  27
ENDBRANCH  20  23
ENDBRANCH  18  19
BRANCH  18  31
ATOM     31  C   UNL     1      -0.176   9.573  20.319  0.00  0.00    +0.000 C 
BRANCH  31  32
ATOM     32  C   UNL     1      -0.306   9.517  21.852  0.00  0.00    +0.000 C 
ATOM     33  C   UNL     1       1.086   9.281  22.448  0.00  0.00    +0.000 C 
ATOM     34  C   UNL     1      -0.893  10.790  22.458  0.00  0.00    +0.000 C 
ENDBRANCH  31  32
ENDBRANCH  18  31
ENDBRANCH   6  18
TORSDOF 12
ENDMDL
MODEL 7
REMARK VINA RESULT:      -6.3      0.899      1.097
REMARK  Name = 
REMARK  17 active torsions:
REMARK  status: ('A' for Active; 'I' for Inactive)
REMARK    1  A    between atoms: C_1  and  C_2
REMARK    2  A    between atoms: C_2  and  N_3
REMARK    3  A    between atoms: N_3  and  C_4
REMARK    4  A    between atoms: N_3  and  C_8
REMARK    5  A    between atoms: C_4  and  C_5
REMARK    6  A    between atoms: C_13  and  C_15
REMARK    7  A    between atoms: C_15  and  C_16
REMARK    8  A    between atoms: C_15  and  N_20
REMARK    9  A    between atoms: C_16  and  C_17
REMARK   10  A    between atoms: C_17  and  C_18
REMARK   11  A    between atoms: C_17  and  C_19
REMARK   12  A    between atoms: C_21  and  C_23
REMARK   13  A    between atoms: C_23  and  N_24
REMARK   14  A    between atoms: C_23  and  C_25
REMARK   15  A    between atoms: C_25  and  C_26
REMARK   16  A    between atoms: C_26  and  C_27
REMARK   17  A    between atoms: C_26  and  C_28
REMARK                            x       y       z     vdW  Elec       q    Type
REMARK                         _______ _______ _______ _____ _____    ______ ____
ROOT
ATOM      1  C   UNL     1       2.924   5.444  18.494  0.00  0.00    +0.000 C 
ATOM      2  C   UNL     1       2.369   5.040  19.885  0.00  0.00    +0.000 C 
ATOM      3  C   UNL     1       1.434   6.065  20.505  0.00  0.00    +0.000 C 
ATOM      4  C   UNL     1       2.089   7.432  20.429  0.00  0.00    +0.000 C 
ATOM      5  N   UNL     1       2.152   7.819  19.027  0.00  0.00    +0.000 N 
ATOM      6  C   UNL     1       1.707   9.030  18.509  0.00  0.00    +0.000 C 
ATOM      7  O   UNL     1       1.924   9.344  17.327  0.00  0.00    +0.000 OA
ATOM      8  C   UNL     1       3.021   6.973  18.206  0.00  0.00    +0.000 C 
ENDROOT
BRANCH   1   9
ATOM      9  N   UNL     1       4.165   4.674  18.301  0.00  0.00    +0.000 NA
BRANCH   9  11
ATOM     10  C   UNL     1       3.542   2.195  17.985  0.00  0.00    +0.000 C 
ATOM     11  C   UNL     1       4.202   3.296  18.810  0.00  0.00    +0.000 C 
ENDBRANCH   9  11
BRANCH   9  12
ATOM     12  C   UNL     1       5.420   5.437  18.385  0.00  0.00    +0.000 C 
BRANCH  12  13
ATOM     13  C   UNL     1       6.139   5.403  17.027  0.00  0.00    +0.000 C 
ATOM     14  N   UNL     1       6.850   6.537  16.726  0.00  0.00    +0.000 N 
ATOM     15  O   UNL     1       6.145   4.430  16.282  0.00  0.00    +0.000 OA
ATOM     16  H   UNL     1       6.621   7.376  17.247  0.00  0.00    +0.000 HD
ATOM     17  H   UNL     1       7.244   6.618  15.801  0.00  0.00    +0.000 HD
ENDBRANCH  12  13
ENDBRANCH   9  12
ENDBRANCH   1   9
BRANCH   6  18
ATOM     18  C   UNL     1       0.929  10.018  19.429  0.00  0.00    +0.000 C 
BRANCH  18  19
ATOM     19  N   UNL     1       1.465  11.354  19.163  0.00  0.00    +0.000 N 
ATOM     20  C   UNL     1       1.555  12.345  20.111  0.00  0.00    +0.000 C 
ATOM     21  O   UNL     1       1.217  12.195  21.281  0.00  0.00    +0.000 OA
ATOM     22  H   UNL     1       1.743  11.528  18.202  0.00  0.00    +0.000 HD
BRANCH  20  23
ATOM     23  C   UNL     1       2.061  13.691  19.552  0.00  0.00    +0.000 C 
BRANCH  23  24
ATOM     24  N   UNL     1       2.026  13.648  18.074  0.00  0.00    +0.000 NA
ATOM     25  H   UNL     1       1.096  13.325  17.793  0.00  0.00    +0.000 HD
ATOM     26  H   UNL     1       2.670  12.931  17.744  0.00  0.00    +0.000 HD
ENDBRANCH  23  24
BRANCH  23  27
ATOM     27  C   UNL     1       1.180  14.836  20.053  0.00  0.00    +0.000 C 
BRANCH  27  28
ATOM     28  C   UNL     1      -0.213  14.898  19.390  0.00  0.00    +0.000 C 
ATOM     29  C   UNL     1      -1.354  14.787  20.402  0.00  0.00    +0.000 C 
ATOM     30  C   UNL     1      -0.340  16.198  18.597  0.00  0.00    +0.000 C 
ENDBRANCH  27  28
ENDBRANCH  23  27
ENDBRANCH  20  23
ENDBRANCH  18  19
BRANCH  18  31
ATOM     31  C   UNL     1      -0.602   9.962  19.269  0.00  0.00    +0.000 C 
BRANCH  31  32
ATOM     32  C   UNL     1      -1.218  10.817  18.147  0.00  0.00    +0.000 C 
ATOM     33  C   UNL     1      -1.848   9.879  17.111  0.00  0.00    +0.000 C 
ATOM     34  C   UNL     1      -2.283  11.792  18.642  0.00  0.00    +0.000 C 
ENDBRANCH  31  32
ENDBRANCH  18  31
ENDBRANCH   6  18
TORSDOF 12
ENDMDL
MODEL 8
REMARK VINA RESULT:      -6.3      2.778      4.087
REMARK  Name = 
REMARK  17 active torsions:
REMARK  status: ('A' for Active; 'I' for Inactive)
REMARK    1  A    between atoms: C_1  and  C_2
REMARK    2  A    between atoms: C_2  and  N_3
REMARK    3  A    between atoms: N_3  and  C_4
REMARK    4  A    between atoms: N_3  and  C_8
REMARK    5  A    between atoms: C_4  and  C_5
REMARK    6  A    between atoms: C_13  and  C_15
REMARK    7  A    between atoms: C_15  and  C_16
REMARK    8  A    between atoms: C_15  and  N_20
REMARK    9  A    between atoms: C_16  and  C_17
REMARK   10  A    between atoms: C_17  and  C_18
REMARK   11  A    between atoms: C_17  and  C_19
REMARK   12  A    between atoms: C_21  and  C_23
REMARK   13  A    between atoms: C_23  and  N_24
REMARK   14  A    between atoms: C_23  and  C_25
REMARK   15  A    between atoms: C_25  and  C_26
REMARK   16  A    between atoms: C_26  and  C_27
REMARK   17  A    between atoms: C_26  and  C_28
REMARK                            x       y       z     vdW  Elec       q    Type
REMARK                         _______ _______ _______ _____ _____    ______ ____
ROOT
ATOM      1  C   UNL     1       2.613   7.033  19.475  0.00  0.00    +0.000 C 
ATOM      2  C   UNL     1       2.627   7.498  17.995  0.00  0.00    +0.000 C 
ATOM      3  C   UNL     1       2.219   8.948  17.791  0.00  0.00    +0.000 C 
ATOM      4  C   UNL     1       0.929   9.200  18.549  0.00  0.00    +0.000 C 
ATOM      5  N   UNL     1       1.222   9.116  19.971  0.00  0.00    +0.000 N 
ATOM      6  C   UNL     1       0.878  10.073  20.919  0.00  0.00    +0.000 C 
ATOM      7  O   UNL     1       1.037   9.864  22.133  0.00  0.00    +0.000 OA
ATOM      8  C   UNL     1       1.633   7.785  20.425  0.00  0.00    +0.000 C 
ENDROOT
BRANCH   1   9
ATOM      9  N   UNL     1       2.485   5.566  19.450  0.00  0.00    +0.000 NA
BRANCH   9  11
ATOM     10  C   UNL     1       1.202   3.709  20.691  0.00  0.00    +0.000 C 
ATOM     11  C   UNL     1       2.175   4.884  20.714  0.00  0.00    +0.000 C 
ENDBRANCH   9  11
BRANCH   9  12
ATOM     12  C   UNL     1       3.378   4.854  18.523  0.00  0.00    +0.000 C 
BRANCH  12  13
ATOM     13  C   UNL     1       4.709   4.539  19.224  0.00  0.00    +0.000 C 
ATOM     14  N   UNL     1       5.028   3.206  19.275  0.00  0.00    +0.000 N 
ATOM     15  O   UNL     1       5.471   5.394  19.656  0.00  0.00    +0.000 OA
ATOM     16  H   UNL     1       4.275   2.545  19.124  0.00  0.00    +0.000 HD
ATOM     17  H   UNL     1       5.829   2.931  19.824  0.00  0.00    +0.000 HD
ENDBRANCH  12  13
ENDBRANCH   9  12
ENDBRANCH   1   9
BRANCH   6  18
ATOM     18  C   UNL     1       0.274  11.431  20.453  0.00  0.00    +0.000 C 
BRANCH  18  19
ATOM     19  N   UNL     1      -0.754  11.795  21.430  0.00  0.00    +0.000 N 
ATOM     20  C   UNL     1      -1.972  12.337  21.093  0.00  0.00    +0.000 C 
ATOM     21  O   UNL     1      -2.323  12.546  19.936  0.00  0.00    +0.000 OA
ATOM     22  H   UNL     1      -0.500  11.653  22.402  0.00  0.00    +0.000 HD
BRANCH  20  23
ATOM     23  C   UNL     1      -2.834  12.723  22.313  0.00  0.00    +0.000 C 
BRANCH  23  24
ATOM     24  N   UNL     1      -2.511  11.824  23.442  0.00  0.00    +0.000 NA
ATOM     25  H   UNL     1      -3.354  11.285  23.662  0.00  0.00    +0.000 HD
ATOM     26  H   UNL     1      -2.327  12.384  24.274  0.00  0.00    +0.000 HD
ENDBRANCH  23  24
BRANCH  23  27
ATOM     27  C   UNL     1      -2.559  14.173  22.716  0.00  0.00    +0.000 C 
BRANCH  27  28
ATOM     28  C   UNL     1      -1.274  14.363  23.551  0.00  0.00    +0.000 C 
ATOM     29  C   UNL     1      -0.186  15.125  22.794  0.00  0.00    +0.000 C 
ATOM     30  C   UNL     1      -1.617  15.090  24.851  0.00  0.00    +0.000 C 
ENDBRANCH  27  28
ENDBRANCH  23  27
ENDBRANCH  20  23
ENDBRANCH  18  19
BRANCH  18  31
ATOM     31  C   UNL     1       1.311  12.553  20.255  0.00  0.00    +0.000 C 
BRANCH  31  32
ATOM     32  C   UNL     1       1.290  13.294  18.905  0.00  0.00    +0.000 C 
ATOM     33  C   UNL     1       0.511  14.602  19.082  0.00  0.00    +0.000 C 
ATOM     34  C   UNL     1       2.682  13.616  18.368  0.00  0.00    +0.000 C 
ENDBRANCH  31  32
ENDBRANCH  18  31
ENDBRANCH   6  18
TORSDOF 12
ENDMDL
MODEL 9
REMARK VINA RESULT:      -6.3      1.300      1.550
REMARK  Name = 
REMARK  17 active torsions:
REMARK  status: ('A' for Active; 'I' for Inactive)
REMARK    1  A    between atoms: C_1  and  C_2
REMARK    2  A    between atoms: C_2  and  N_3
REMARK    3  A    between atoms: N_3  and  C_4
REMARK    4  A    between atoms: N_3  and  C_8
REMARK    5  A    between atoms: C_4  and  C_5
REMARK    6  A    between atoms: C_13  and  C_15
REMARK    7  A    between atoms: C_15  and  C_16
REMARK    8  A    between atoms: C_15  and  N_20
REMARK    9  A    between atoms: C_16  and  C_17
REMARK   10  A    between atoms: C_17  and  C_18
REMARK   11  A    between atoms: C_17  and  C_19
REMARK   12  A    between atoms: C_21  and  C_23
REMARK   13  A    between atoms: C_23  and  N_24
REMARK   14  A    between atoms: C_23  and  C_25
REMARK   15  A    between atoms: C_25  and  C_26
REMARK   16  A    between atoms: C_26  and  C_27
REMARK   17  A    between atoms: C_26  and  C_28
REMARK                            x       y       z     vdW  Elec       q    Type
REMARK                         _______ _______ _______ _____ _____    ______ ____
ROOT
ATOM      1  C   UNL     1       2.796   5.399  18.382  0.00  0.00    +0.000 C 
ATOM      2  C   UNL     1       2.292   5.015  19.799  0.00  0.00    +0.000 C 
ATOM      3  C   UNL     1       1.421   6.071  20.458  0.00  0.00    +0.000 C 
ATOM      4  C   UNL     1       2.117   7.415  20.348  0.00  0.00    +0.000 C 
ATOM      5  N   UNL     1       2.128   7.798  18.944  0.00  0.00    +0.000 N 
ATOM      6  C   UNL     1       1.702   9.023  18.444  0.00  0.00    +0.000 C 
ATOM      7  O   UNL     1       1.875   9.328  17.252  0.00  0.00    +0.000 OA
ATOM      8  C   UNL     1       2.931   6.923  18.086  0.00  0.00    +0.000 C 
ENDROOT
BRANCH   1   9
ATOM      9  N   UNL     1       4.001   4.587  18.135  0.00  0.00    +0.000 NA
BRANCH   9  11
ATOM     10  C   UNL     1       3.597   2.056  18.389  0.00  0.00    +0.000 C 
ATOM     11  C   UNL     1       3.823   3.274  17.499  0.00  0.00    +0.000 C 
ENDBRANCH   9  11
BRANCH   9  12
ATOM     12  C   UNL     1       5.067   4.687  19.144  0.00  0.00    +0.000 C 
BRANCH  12  13
ATOM     13  C   UNL     1       6.357   5.200  18.485  0.00  0.00    +0.000 C 
ATOM     14  N   UNL     1       7.286   4.229  18.211  0.00  0.00    +0.000 N 
ATOM     15  O   UNL     1       6.542   6.368  18.165  0.00  0.00    +0.000 OA
ATOM     16  H   UNL     1       7.189   3.347  18.699  0.00  0.00    +0.000 HD
ATOM     17  H   UNL     1       8.196   4.521  17.887  0.00  0.00    +0.000 HD
ENDBRANCH  12  13
ENDBRANCH   9  12
ENDBRANCH   1   9
BRANCH   6  18
ATOM     18  C   UNL     1       1.000  10.037  19.395  0.00  0.00    +0.000 C 
BRANCH  18  19
ATOM     19  N   UNL     1       1.489  11.368  19.030  0.00  0.00    +0.000 N 
ATOM     20  C   UNL     1       1.696  12.382  19.935  0.00  0.00    +0.000 C 
ATOM     21  O   UNL     1       1.512  12.260  21.142  0.00  0.00    +0.000 OA
ATOM     22  H   UNL     1       1.641  11.519  18.038  0.00  0.00    +0.000 HD
BRANCH  20  23
ATOM     23  C   UNL     1       2.118  13.715  19.283  0.00  0.00    +0.000 C 
BRANCH  23  24
ATOM     24  N   UNL     1       0.911  14.512  18.977  0.00  0.00    +0.000 NA
ATOM     25  H   UNL     1       0.865  14.630  17.961  0.00  0.00    +0.000 HD
ATOM     26  H   UNL     1       1.028  15.453  19.351  0.00  0.00    +0.000 HD
ENDBRANCH  23  24
BRANCH  23  27
ATOM     27  C   UNL     1       3.027  14.501  20.229  0.00  0.00    +0.000 C 
BRANCH  27  28
ATOM     28  C   UNL     1       4.181  15.244  19.523  0.00  0.00    +0.000 C 
ATOM     29  C   UNL     1       4.503  14.661  18.146  0.00  0.00    +0.000 C 
ATOM     30  C   UNL     1       3.829  16.726  19.396  0.00  0.00    +0.000 C 
ENDBRANCH  27  28
ENDBRANCH  23  27
ENDBRANCH  20  23
ENDBRANCH  18  19
BRANCH  18  31
ATOM     31  C   UNL     1      -0.539   9.960  19.383  0.00  0.00    +0.000 C 
BRANCH  31  32
ATOM     32  C   UNL     1      -1.274  10.858  18.372  0.00  0.00    +0.000 C 
ATOM     33  C   UNL     1      -2.145   9.970  17.477  0.00  0.00    +0.000 C 
ATOM     34  C   UNL     1      -2.159  11.915  19.030  0.00  0.00    +0.000 C 
ENDBRANCH  31  32
ENDBRANCH  18  31
ENDBRANCH   6  18
TORSDOF 12
ENDMDL
