MODEL 1
REMARK VINA RESULT:      -8.3      0.000      0.000
REMARK  Name = 
REMARK  6 active torsions:
REMARK  status: ('A' for Active; 'I' for Inactive)
REMARK    1  A    between atoms: C_1  and  C_2
REMARK    2  A    between atoms: C_2  and  C_3
REMARK    3  A    between atoms: C_3  and  C_4
REMARK    4  A    between atoms: C_3  and  C_20
REMARK    5  A    between atoms: N_6  and  C_7
REMARK    6  A    between atoms: C_12  and  N_13
REMARK                            x       y       z     vdW  Elec       q    Type
REMARK                         _______ _______ _______ _____ _____    ______ ____
ROOT
ATOM      1  C   UNL     1       4.233   4.429  16.953  0.00  0.00    +0.000 C 
ATOM      2  O   UNL     1       3.432   3.629  16.476  0.00  0.00    +0.000 OA
ATOM      3  N   UNL     1       4.122   4.966  18.235  0.00  0.00    +0.000 N 
ATOM      4  H   UNL     1       4.512   5.881  18.402  0.00  0.00    +0.000 HD
ENDROOT
BRANCH   3   5
ATOM      5  C   UNL     1       3.059   4.596  19.088  0.00  0.00    +0.000 A 
ATOM      6  C   UNL     1       2.884   3.215  19.290  0.00  0.00    +0.000 A 
ATOM      7  C   UNL     1       1.908   2.747  20.163  0.00  0.00    +0.000 A 
ATOM      8  C   UNL     1       1.078   3.652  20.801  0.00  0.00    +0.000 A 
ATOM      9  C   UNL     1       1.213   5.023  20.547  0.00  0.00    +0.000 A 
ATOM     10  C   UNL     1       2.208   5.557  19.695  0.00  0.00    +0.000 A 
BRANCH  10  11
ATOM     11  N   UNL     1       2.239   6.942  19.447  0.00  0.00    +0.000 N 
ATOM     12  C   UNL     1       2.152   7.868  20.581  0.00  0.00    +0.000 C 
ATOM     13  C   UNL     1       0.772   8.528  20.604  0.00  0.00    +0.000 C 
ATOM     14  C   UNL     1       0.543   9.572  19.509  0.00  0.00    +0.000 C 
ATOM     15  C   UNL     1       0.845   9.116  18.082  0.00  0.00    +0.000 C 
ATOM     16  C   UNL     1       2.337   8.894  17.857  0.00  0.00    +0.000 C 
ATOM     17  C   UNL     1       2.788   7.481  18.202  0.00  0.00    +0.000 C 
ENDBRANCH  10  11
ENDBRANCH   3   5
BRANCH   1  18
ATOM     18  C   UNL     1       5.460   4.963  16.178  0.00  0.00    +0.000 C 
BRANCH  18  19
ATOM     19  C   UNL     1       6.461   5.710  17.074  0.00  0.00    +0.000 A 
ATOM     20  C   UNL     1       7.131   5.049  18.123  0.00  0.00    +0.000 A 
ATOM     21  C   UNL     1       8.023   5.744  18.950  0.00  0.00    +0.000 A 
ATOM     22  C   UNL     1       8.265   7.094  18.751  0.00  0.00    +0.000 A 
ATOM     23  C   UNL     1       7.622   7.765  17.711  0.00  0.00    +0.000 A 
ATOM     24  C   UNL     1       6.727   7.072  16.886  0.00  0.00    +0.000 A 
ENDBRANCH  18  19
BRANCH  18  26
ATOM     25  C   UNL     1       6.098   3.924  13.901  0.00  0.00    +0.000 C 
ATOM     26  C   UNL     1       6.156   3.811  15.420  0.00  0.00    +0.000 C 
ENDBRANCH  18  26
ENDBRANCH   1  18
TORSDOF 5
ENDMDL
MODEL 2
REMARK VINA RESULT:      -8.3      2.173      6.986
REMARK  Name = 
REMARK  6 active torsions:
REMARK  status: ('A' for Active; 'I' for Inactive)
REMARK    1  A    between atoms: C_1  and  C_2
REMARK    2  A    between atoms: C_2  and  C_3
REMARK    3  A    between atoms: C_3  and  C_4
REMARK    4  A    between atoms: C_3  and  C_20
REMARK    5  A    between atoms: N_6  and  C_7
REMARK    6  A    between atoms: C_12  and  N_13
REMARK                            x       y       z     vdW  Elec       q    Type
REMARK                         _______ _______ _______ _____ _____    ______ ____
ROOT
ATOM      1  C   UNL     1       2.016   8.712  18.375  0.00  0.00    +0.000 C 
ATOM      2  O   UNL     1       2.034   9.003  17.182  0.00  0.00    +0.000 OA
ATOM      3  N   UNL     1       2.650   7.591  18.910  0.00  0.00    +0.000 N 
ATOM      4  H   UNL     1       2.263   7.180  19.745  0.00  0.00    +0.000 HD
ENDROOT
BRANCH   3   5
ATOM      5  C   UNL     1       3.386   6.711  18.086  0.00  0.00    +0.000 A 
ATOM      6  C   UNL     1       4.312   7.313  17.215  0.00  0.00    +0.000 A 
ATOM      7  C   UNL     1       5.134   6.532  16.408  0.00  0.00    +0.000 A 
ATOM      8  C   UNL     1       5.001   5.155  16.436  0.00  0.00    +0.000 A 
ATOM      9  C   UNL     1       4.031   4.563  17.255  0.00  0.00    +0.000 A 
ATOM     10  C   UNL     1       3.193   5.305  18.121  0.00  0.00    +0.000 A 
BRANCH  10  11
ATOM     11  N   UNL     1       2.204   4.639  18.868  0.00  0.00    +0.000 N 
ATOM     12  C   UNL     1       1.827   5.173  20.181  0.00  0.00    +0.000 C 
ATOM     13  C   UNL     1       2.390   4.275  21.285  0.00  0.00    +0.000 C 
ATOM     14  C   UNL     1       1.683   2.926  21.436  0.00  0.00    +0.000 C 
ATOM     15  C   UNL     1       1.543   2.102  20.157  0.00  0.00    +0.000 C 
ATOM     16  C   UNL     1       0.574   2.742  19.169  0.00  0.00    +0.000 C 
ATOM     17  C   UNL     1       1.246   3.734  18.230  0.00  0.00    +0.000 C 
ENDBRANCH  10  11
ENDBRANCH   3   5
BRANCH   1  18
ATOM     18  C   UNL     1       1.261   9.544  19.439  0.00  0.00    +0.000 C 
BRANCH  18  19
ATOM     19  C   UNL     1       0.069  10.322  18.861  0.00  0.00    +0.000 A 
ATOM     20  C   UNL     1      -1.027   9.651  18.285  0.00  0.00    +0.000 A 
ATOM     21  C   UNL     1      -2.099  10.370  17.739  0.00  0.00    +0.000 A 
ATOM     22  C   UNL     1      -2.101  11.756  17.757  0.00  0.00    +0.000 A 
ATOM     23  C   UNL     1      -1.032  12.441  18.333  0.00  0.00    +0.000 A 
ATOM     24  C   UNL     1       0.041  11.723  18.876  0.00  0.00    +0.000 A 
ENDBRANCH  18  19
BRANCH  18  26
ATOM     25  C   UNL     1       0.247   9.382  21.809  0.00  0.00    +0.000 C 
ATOM     26  C   UNL     1       0.811   8.636  20.605  0.00  0.00    +0.000 C 
ENDBRANCH  18  26
ENDBRANCH   1  18
TORSDOF 5
ENDMDL
MODEL 3
REMARK VINA RESULT:      -8.1      1.339      2.965
REMARK  Name = 
REMARK  6 active torsions:
REMARK  status: ('A' for Active; 'I' for Inactive)
REMARK    1  A    between atoms: C_1  and  C_2
REMARK    2  A    between atoms: C_2  and  C_3
REMARK    3  A    between atoms: C_3  and  C_4
REMARK    4  A    between atoms: C_3  and  C_20
REMARK    5  A    between atoms: N_6  and  C_7
REMARK    6  A    between atoms: C_12  and  N_13
REMARK                            x       y       z     vdW  Elec       q    Type
REMARK                         _______ _______ _______ _____ _____    ______ ____
ROOT
ATOM      1  C   UNL     1       5.663   4.562  17.852  0.00  0.00    +0.000 C 
ATOM      2  O   UNL     1       5.854   3.992  18.924  0.00  0.00    +0.000 OA
ATOM      3  N   UNL     1       4.409   4.697  17.258  0.00  0.00    +0.000 N 
ATOM      4  H   UNL     1       4.364   4.763  16.253  0.00  0.00    +0.000 HD
ENDROOT
BRANCH   3   5
ATOM      5  C   UNL     1       3.250   4.186  17.884  0.00  0.00    +0.000 A 
ATOM      6  C   UNL     1       2.983   2.823  17.664  0.00  0.00    +0.000 A 
ATOM      7  C   UNL     1       1.904   2.205  18.288  0.00  0.00    +0.000 A 
ATOM      8  C   UNL     1       1.065   2.955  19.093  0.00  0.00    +0.000 A 
ATOM      9  C   UNL     1       1.296   4.327  19.255  0.00  0.00    +0.000 A 
ATOM     10  C   UNL     1       2.397   5.000  18.674  0.00  0.00    +0.000 A 
BRANCH  10  11
ATOM     11  N   UNL     1       2.524   6.392  18.838  0.00  0.00    +0.000 N 
ATOM     12  C   UNL     1       2.717   6.932  20.188  0.00  0.00    +0.000 C 
ATOM     13  C   UNL     1       1.433   7.617  20.658  0.00  0.00    +0.000 C 
ATOM     14  C   UNL     1       1.133   8.954  19.977  0.00  0.00    +0.000 C 
ATOM     15  C   UNL     1       1.150   8.941  18.449  0.00  0.00    +0.000 C 
ATOM     16  C   UNL     1       2.555   8.728  17.896  0.00  0.00    +0.000 C 
ATOM     17  C   UNL     1       2.914   7.258  17.724  0.00  0.00    +0.000 C 
ENDBRANCH  10  11
ENDBRANCH   3   5
BRANCH   1  18
ATOM     18  C   UNL     1       6.801   5.183  17.009  0.00  0.00    +0.000 C 
BRANCH  18  19
ATOM     19  C   UNL     1       6.736   4.787  15.525  0.00  0.00    +0.000 A 
ATOM     20  C   UNL     1       5.858   3.780  15.079  0.00  0.00    +0.000 A 
ATOM     21  C   UNL     1       5.822   3.410  13.728  0.00  0.00    +0.000 A 
ATOM     22  C   UNL     1       6.651   4.028  12.805  0.00  0.00    +0.000 A 
ATOM     23  C   UNL     1       7.520   5.036  13.222  0.00  0.00    +0.000 A 
ATOM     24  C   UNL     1       7.558   5.405  14.573  0.00  0.00    +0.000 A 
ENDBRANCH  18  19
BRANCH  18  26
ATOM     25  C   UNL     1       7.883   7.258  18.102  0.00  0.00    +0.000 C 
ATOM     26  C   UNL     1       6.805   6.720  17.168  0.00  0.00    +0.000 C 
ENDBRANCH  18  26
ENDBRANCH   1  18
TORSDOF 5
ENDMDL
MODEL 4
REMARK VINA RESULT:      -8.0      2.154      6.560
REMARK  Name = 
REMARK  6 active torsions:
REMARK  status: ('A' for Active; 'I' for Inactive)
REMARK    1  A    between atoms: C_1  and  C_2
REMARK    2  A    between atoms: C_2  and  C_3
REMARK    3  A    between atoms: C_3  and  C_4
REMARK    4  A    between atoms: C_3  and  C_20
REMARK    5  A    between atoms: N_6  and  C_7
REMARK    6  A    between atoms: C_12  and  N_13
REMARK                            x       y       z     vdW  Elec       q    Type
REMARK                         _______ _______ _______ _____ _____    ______ ____
ROOT
ATOM      1  C   UNL     1       2.751   7.920  18.097  0.00  0.00    +0.000 C 
ATOM      2  O   UNL     1       2.648   8.333  16.945  0.00  0.00    +0.000 OA
ATOM      3  N   UNL     1       3.443   6.760  18.446  0.00  0.00    +0.000 N 
ATOM      4  H   UNL     1       3.144   6.258  19.268  0.00  0.00    +0.000 HD
ENDROOT
BRANCH   3   5
ATOM      5  C   UNL     1       4.098   5.982  17.466  0.00  0.00    +0.000 A 
ATOM      6  C   UNL     1       4.712   6.698  16.422  0.00  0.00    +0.000 A 
ATOM      7  C   UNL     1       5.439   6.032  15.441  0.00  0.00    +0.000 A 
ATOM      8  C   UNL     1       5.517   4.650  15.475  0.00  0.00    +0.000 A 
ATOM      9  C   UNL     1       4.848   3.938  16.478  0.00  0.00    +0.000 A 
ATOM     10  C   UNL     1       4.123   4.564  17.519  0.00  0.00    +0.000 A 
BRANCH  10  11
ATOM     11  N   UNL     1       3.431   3.774  18.456  0.00  0.00    +0.000 N 
ATOM     12  C   UNL     1       2.197   3.100  18.040  0.00  0.00    +0.000 C 
ATOM     13  C   UNL     1       0.990   3.802  18.666  0.00  0.00    +0.000 C 
ATOM     14  C   UNL     1       0.820   3.566  20.169  0.00  0.00    +0.000 C 
ATOM     15  C   UNL     1       2.051   3.847  21.030  0.00  0.00    +0.000 C 
ATOM     16  C   UNL     1       3.164   2.836  20.779  0.00  0.00    +0.000 C 
ATOM     17  C   UNL     1       4.097   3.244  19.647  0.00  0.00    +0.000 C 
ENDBRANCH  10  11
ENDBRANCH   3   5
BRANCH   1  18
ATOM     18  C   UNL     1       2.102   8.624  19.312  0.00  0.00    +0.000 C 
BRANCH  18  19
ATOM     19  C   UNL     1       1.027   9.646  18.912  0.00  0.00    +0.000 A 
ATOM     20  C   UNL     1       1.147  11.004  19.266  0.00  0.00    +0.000 A 
ATOM     21  C   UNL     1       0.150  11.925  18.917  0.00  0.00    +0.000 A 
ATOM     22  C   UNL     1      -0.973  11.517  18.216  0.00  0.00    +0.000 A 
ATOM     23  C   UNL     1      -1.107  10.179  17.844  0.00  0.00    +0.000 A 
ATOM     24  C   UNL     1      -0.113   9.258  18.195  0.00  0.00    +0.000 A 
ENDBRANCH  18  19
BRANCH  18  26
ATOM     25  C   UNL     1       0.850   8.165  21.523  0.00  0.00    +0.000 C 
ATOM     26  C   UNL     1       1.527   7.576  20.290  0.00  0.00    +0.000 C 
ENDBRANCH  18  26
ENDBRANCH   1  18
TORSDOF 5
ENDMDL
MODEL 5
REMARK VINA RESULT:      -8.0      1.071      2.826
REMARK  Name = 
REMARK  6 active torsions:
REMARK  status: ('A' for Active; 'I' for Inactive)
REMARK    1  A    between atoms: C_1  and  C_2
REMARK    2  A    between atoms: C_2  and  C_3
REMARK    3  A    between atoms: C_3  and  C_4
REMARK    4  A    between atoms: C_3  and  C_20
REMARK    5  A    between atoms: N_6  and  C_7
REMARK    6  A    between atoms: C_12  and  N_13
REMARK                            x       y       z     vdW  Elec       q    Type
REMARK                         _______ _______ _______ _____ _____    ______ ____
ROOT
ATOM      1  C   UNL     1       5.476   4.881  18.339  0.00  0.00    +0.000 C 
ATOM      2  O   UNL     1       5.778   4.102  19.240  0.00  0.00    +0.000 OA
ATOM      3  N   UNL     1       4.169   5.285  18.068  0.00  0.00    +0.000 N 
ATOM      4  H   UNL     1       3.939   5.542  17.121  0.00  0.00    +0.000 HD
ENDROOT
BRANCH   3   5
ATOM      5  C   UNL     1       3.089   4.820  18.850  0.00  0.00    +0.000 A 
ATOM      6  C   UNL     1       2.944   3.423  18.930  0.00  0.00    +0.000 A 
ATOM      7  C   UNL     1       1.953   2.860  19.727  0.00  0.00    +0.000 A 
ATOM      8  C   UNL     1       1.077   3.688  20.408  0.00  0.00    +0.000 A 
ATOM      9  C   UNL     1       1.183   5.078  20.272  0.00  0.00    +0.000 A 
ATOM     10  C   UNL     1       2.192   5.705  19.503  0.00  0.00    +0.000 A 
BRANCH  10  11
ATOM     11  N   UNL     1       2.193   7.106  19.371  0.00  0.00    +0.000 N 
ATOM     12  C   UNL     1       2.122   7.933  20.581  0.00  0.00    +0.000 C 
ATOM     13  C   UNL     1       0.732   8.563  20.693  0.00  0.00    +0.000 C 
ATOM     14  C   UNL     1       0.457   9.690  19.695  0.00  0.00    +0.000 C 
ATOM     15  C   UNL     1       0.728   9.361  18.228  0.00  0.00    +0.000 C 
ATOM     16  C   UNL     1       2.217   9.186  17.949  0.00  0.00    +0.000 C 
ATOM     17  C   UNL     1       2.701   7.758  18.162  0.00  0.00    +0.000 C 
ENDBRANCH  10  11
ENDBRANCH   3   5
BRANCH   1  18
ATOM     18  C   UNL     1       6.512   5.497  17.369  0.00  0.00    +0.000 C 
BRANCH  18  19
ATOM     19  C   UNL     1       6.422   4.922  15.947  0.00  0.00    +0.000 A 
ATOM     20  C   UNL     1       7.369   5.266  14.962  0.00  0.00    +0.000 A 
ATOM     21  C   UNL     1       7.265   4.756  13.662  0.00  0.00    +0.000 A 
ATOM     22  C   UNL     1       6.228   3.902  13.319  0.00  0.00    +0.000 A 
ATOM     23  C   UNL     1       5.286   3.538  14.281  0.00  0.00    +0.000 A 
ATOM     24  C   UNL     1       5.388   4.050  15.581  0.00  0.00    +0.000 A 
ENDBRANCH  18  19
BRANCH  18  26
ATOM     25  C   UNL     1       7.671   7.791  17.619  0.00  0.00    +0.000 C 
ATOM     26  C   UNL     1       6.375   7.035  17.350  0.00  0.00    +0.000 C 
ENDBRANCH  18  26
ENDBRANCH   1  18
TORSDOF 5
ENDMDL
MODEL 6
REMARK VINA RESULT:      -7.9      1.721      6.475
REMARK  Name = 
REMARK  6 active torsions:
REMARK  status: ('A' for Active; 'I' for Inactive)
REMARK    1  A    between atoms: C_1  and  C_2
REMARK    2  A    between atoms: C_2  and  C_3
REMARK    3  A    between atoms: C_3  and  C_4
REMARK    4  A    between atoms: C_3  and  C_20
REMARK    5  A    between atoms: N_6  and  C_7
REMARK    6  A    between atoms: C_12  and  N_13
REMARK                            x       y       z     vdW  Elec       q    Type
REMARK                         _______ _______ _______ _____ _____    ______ ____
ROOT
ATOM      1  C   UNL     1       1.915   7.292  19.073  0.00  0.00    +0.000 C 
ATOM      2  O   UNL     1       1.654   7.337  17.873  0.00  0.00    +0.000 OA
ATOM      3  N   UNL     1       2.262   6.122  19.748  0.00  0.00    +0.000 N 
ATOM      4  H   UNL     1       2.043   6.057  20.730  0.00  0.00    +0.000 HD
ENDROOT
BRANCH   3   5
ATOM      5  C   UNL     1       2.352   4.889  19.065  0.00  0.00    +0.000 A 
ATOM      6  C   UNL     1       1.235   4.041  19.175  0.00  0.00    +0.000 A 
ATOM      7  C   UNL     1       1.194   2.833  18.488  0.00  0.00    +0.000 A 
ATOM      8  C   UNL     1       2.285   2.448  17.727  0.00  0.00    +0.000 A 
ATOM      9  C   UNL     1       3.422   3.264  17.674  0.00  0.00    +0.000 A 
ATOM     10  C   UNL     1       3.505   4.518  18.324  0.00  0.00    +0.000 A 
BRANCH  10  11
ATOM     11  N   UNL     1       4.706   5.250  18.269  0.00  0.00    +0.000 N 
ATOM     12  C   UNL     1       4.826   6.342  17.297  0.00  0.00    +0.000 C 
ATOM     13  C   UNL     1       5.754   5.918  16.157  0.00  0.00    +0.000 C 
ATOM     14  C   UNL     1       7.237   5.851  16.528  0.00  0.00    +0.000 C 
ATOM     15  C   UNL     1       7.575   5.024  17.768  0.00  0.00    +0.000 C 
ATOM     16  C   UNL     1       7.064   5.678  19.047  0.00  0.00    +0.000 C 
ATOM     17  C   UNL     1       5.639   5.271  19.397  0.00  0.00    +0.000 C 
ENDBRANCH  10  11
ENDBRANCH   3   5
BRANCH   1  18
ATOM     18  C   UNL     1       1.867   8.531  19.998  0.00  0.00    +0.000 C 
BRANCH  18  19
ATOM     19  C   UNL     1       0.970   9.654  19.455  0.00  0.00    +0.000 A 
ATOM     20  C   UNL     1       1.521  10.863  18.988  0.00  0.00    +0.000 A 
ATOM     21  C   UNL     1       0.693  11.891  18.516  0.00  0.00    +0.000 A 
ATOM     22  C   UNL     1      -0.684  11.736  18.500  0.00  0.00    +0.000 A 
ATOM     23  C   UNL     1      -1.251  10.542  18.946  0.00  0.00    +0.000 A 
ATOM     24  C   UNL     1      -0.424   9.516  19.420  0.00  0.00    +0.000 A 
ENDBRANCH  18  19
BRANCH  18  26
ATOM     25  C   UNL     1       1.293   9.275  22.403  0.00  0.00    +0.000 C 
ATOM     26  C   UNL     1       1.430   8.118  21.420  0.00  0.00    +0.000 C 
ENDBRANCH  18  26
ENDBRANCH   1  18
TORSDOF 5
ENDMDL
MODEL 7
REMARK VINA RESULT:      -7.8      1.564      4.686
REMARK  Name = 
REMARK  6 active torsions:
REMARK  status: ('A' for Active; 'I' for Inactive)
REMARK    1  A    between atoms: C_1  and  C_2
REMARK    2  A    between atoms: C_2  and  C_3
REMARK    3  A    between atoms: C_3  and  C_4
REMARK    4  A    between atoms: C_3  and  C_20
REMARK    5  A    between atoms: N_6  and  C_7
REMARK    6  A    between atoms: C_12  and  N_13
REMARK                            x       y       z     vdW  Elec       q    Type
REMARK                         _______ _______ _______ _____ _____    ______ ____
ROOT
ATOM      1  C   UNL     1       5.089   5.693  16.259  0.00  0.00    +0.000 C 
ATOM      2  O   UNL     1       5.061   6.712  15.574  0.00  0.00    +0.000 OA
ATOM      3  N   UNL     1       4.310   5.503  17.399  0.00  0.00    +0.000 N 
ATOM      4  H   UNL     1       4.666   4.896  18.122  0.00  0.00    +0.000 HD
ENDROOT
BRANCH   3   5
ATOM      5  C   UNL     1       3.404   6.496  17.834  0.00  0.00    +0.000 A 
ATOM      6  C   UNL     1       3.736   7.821  17.498  0.00  0.00    +0.000 A 
ATOM      7  C   UNL     1       2.879   8.868  17.821  0.00  0.00    +0.000 A 
ATOM      8  C   UNL     1       1.713   8.600  18.517  0.00  0.00    +0.000 A 
ATOM      9  C   UNL     1       1.420   7.287  18.908  0.00  0.00    +0.000 A 
ATOM     10  C   UNL     1       2.237   6.181  18.578  0.00  0.00    +0.000 A 
BRANCH  10  11
ATOM     11  N   UNL     1       1.901   4.902  19.060  0.00  0.00    +0.000 N 
ATOM     12  C   UNL     1       1.365   4.774  20.419  0.00  0.00    +0.000 C 
ATOM     13  C   UNL     1       2.426   4.163  21.337  0.00  0.00    +0.000 C 
ATOM     14  C   UNL     1       2.687   2.672  21.111  0.00  0.00    +0.000 C 
ATOM     15  C   UNL     1       2.989   2.260  19.671  0.00  0.00    +0.000 C 
ATOM     16  C   UNL     1       1.768   2.402  18.769  0.00  0.00    +0.000 C 
ATOM     17  C   UNL     1       1.643   3.787  18.147  0.00  0.00    +0.000 C 
ENDBRANCH  10  11
ENDBRANCH   3   5
BRANCH   1  18
ATOM     18  C   UNL     1       6.017   4.493  15.955  0.00  0.00    +0.000 C 
BRANCH  18  19
ATOM     19  C   UNL     1       6.432   4.411  14.477  0.00  0.00    +0.000 A 
ATOM     20  C   UNL     1       5.779   3.536  13.587  0.00  0.00    +0.000 A 
ATOM     21  C   UNL     1       6.180   3.451  12.247  0.00  0.00    +0.000 A 
ATOM     22  C   UNL     1       7.225   4.227  11.772  0.00  0.00    +0.000 A 
ATOM     23  C   UNL     1       7.878   5.109  12.633  0.00  0.00    +0.000 A 
ATOM     24  C   UNL     1       7.480   5.193  13.973  0.00  0.00    +0.000 A 
ENDBRANCH  18  19
BRANCH  18  26
ATOM     25  C   UNL     1       7.448   5.846  17.627  0.00  0.00    +0.000 C 
ATOM     26  C   UNL     1       7.259   4.534  16.872  0.00  0.00    +0.000 C 
ENDBRANCH  18  26
ENDBRANCH   1  18
TORSDOF 5
ENDMDL
MODEL 8
REMARK VINA RESULT:      -7.6      1.832      4.943
REMARK  Name = 
REMARK  6 active torsions:
REMARK  status: ('A' for Active; 'I' for Inactive)
REMARK    1  A    between atoms: C_1  and  C_2
REMARK    2  A    between atoms: C_2  and  C_3
REMARK    3  A    between atoms: C_3  and  C_4
REMARK    4  A    between atoms: C_3  and  C_20
REMARK    5  A    between atoms: N_6  and  C_7
REMARK    6  A    between atoms: C_12  and  N_13
REMARK                            x       y       z     vdW  Elec       q    Type
REMARK                         _______ _______ _______ _____ _____    ______ ____
ROOT
ATOM      1  C   UNL     1       5.278   5.767  16.096  0.00  0.00    +0.000 C 
ATOM      2  O   UNL     1       4.987   6.671  15.317  0.00  0.00    +0.000 OA
ATOM      3  N   UNL     1       4.670   5.586  17.338  0.00  0.00    +0.000 N 
ATOM      4  H   UNL     1       5.206   5.147  18.070  0.00  0.00    +0.000 HD
ENDROOT
BRANCH   3   5
ATOM      5  C   UNL     1       3.642   6.450  17.775  0.00  0.00    +0.000 A 
ATOM      6  C   UNL     1       3.820   7.815  17.486  0.00  0.00    +0.000 A 
ATOM      7  C   UNL     1       2.836   8.742  17.815  0.00  0.00    +0.000 A 
ATOM      8  C   UNL     1       1.694   8.315  18.471  0.00  0.00    +0.000 A 
ATOM      9  C   UNL     1       1.551   6.965  18.815  0.00  0.00    +0.000 A 
ATOM     10  C   UNL     1       2.503   5.975  18.477  0.00  0.00    +0.000 A 
BRANCH  10  11
ATOM     11  N   UNL     1       2.311   4.650  18.911  0.00  0.00    +0.000 N 
ATOM     12  C   UNL     1       2.942   4.216  20.162  0.00  0.00    +0.000 C 
ATOM     13  C   UNL     1       4.119   3.289  19.850  0.00  0.00    +0.000 C 
ATOM     14  C   UNL     1       3.724   1.894  19.361  0.00  0.00    +0.000 C 
ATOM     15  C   UNL     1       2.744   1.853  18.189  0.00  0.00    +0.000 C 
ATOM     16  C   UNL     1       1.356   2.341  18.588  0.00  0.00    +0.000 C 
ATOM     17  C   UNL     1       1.185   3.846  18.433  0.00  0.00    +0.000 C 
ENDBRANCH  10  11
ENDBRANCH   3   5
BRANCH   1  18
ATOM     18  C   UNL     1       6.381   4.722  15.806  0.00  0.00    +0.000 C 
BRANCH  18  19
ATOM     19  C   UNL     1       6.639   4.517  14.305  0.00  0.00    +0.000 A 
ATOM     20  C   UNL     1       7.611   5.277  13.624  0.00  0.00    +0.000 A 
ATOM     21  C   UNL     1       7.822   5.100  12.250  0.00  0.00    +0.000 A 
ATOM     22  C   UNL     1       7.079   4.173  11.535  0.00  0.00    +0.000 A 
ATOM     23  C   UNL     1       6.120   3.402  12.192  0.00  0.00    +0.000 A 
ATOM     24  C   UNL     1       5.907   3.580  13.564  0.00  0.00    +0.000 A 
ENDBRANCH  18  19
BRANCH  18  26
ATOM     25  C   UNL     1       7.791   4.575  17.965  0.00  0.00    +0.000 C 
ATOM     26  C   UNL     1       7.685   5.105  16.540  0.00  0.00    +0.000 C 
ENDBRANCH  18  26
ENDBRANCH   1  18
TORSDOF 5
ENDMDL
MODEL 9
REMARK VINA RESULT:      -7.6      2.223      6.915
REMARK  Name = 
REMARK  6 active torsions:
REMARK  status: ('A' for Active; 'I' for Inactive)
REMARK    1  A    between atoms: C_1  and  C_2
REMARK    2  A    between atoms: C_2  and  C_3
REMARK    3  A    between atoms: C_3  and  C_4
REMARK    4  A    between atoms: C_3  and  C_20
REMARK    5  A    between atoms: N_6  and  C_7
REMARK    6  A    between atoms: C_12  and  N_13
REMARK                            x       y       z     vdW  Elec       q    Type
REMARK                         _______ _______ _______ _____ _____    ______ ____
ROOT
ATOM      1  C   UNL     1       1.607   8.262  19.352  0.00  0.00    +0.000 C 
ATOM      2  O   UNL     1       2.388   8.341  20.296  0.00  0.00    +0.000 OA
ATOM      3  N   UNL     1       1.872   7.548  18.184  0.00  0.00    +0.000 N 
ATOM      4  H   UNL     1       1.436   7.858  17.329  0.00  0.00    +0.000 HD
ENDROOT
BRANCH   3   5
ATOM      5  C   UNL     1       3.083   6.840  18.024  0.00  0.00    +0.000 A 
ATOM      6  C   UNL     1       4.117   7.531  17.365  0.00  0.00    +0.000 A 
ATOM      7  C   UNL     1       5.371   6.949  17.214  0.00  0.00    +0.000 A 
ATOM      8  C   UNL     1       5.583   5.663  17.680  0.00  0.00    +0.000 A 
ATOM      9  C   UNL     1       4.532   4.954  18.275  0.00  0.00    +0.000 A 
ATOM     10  C   UNL     1       3.247   5.507  18.485  0.00  0.00    +0.000 A 
BRANCH  10  11
ATOM     11  N   UNL     1       2.229   4.708  19.038  0.00  0.00    +0.000 N 
ATOM     12  C   UNL     1       1.741   5.014  20.386  0.00  0.00    +0.000 C 
ATOM     13  C   UNL     1       2.251   3.960  21.371  0.00  0.00    +0.000 C 
ATOM     14  C   UNL     1       1.580   2.591  21.249  0.00  0.00    +0.000 C 
ATOM     15  C   UNL     1       1.559   1.982  19.848  0.00  0.00    +0.000 C 
ATOM     16  C   UNL     1       0.644   2.754  18.904  0.00  0.00    +0.000 C 
ATOM     17  C   UNL     1       1.350   3.900  18.191  0.00  0.00    +0.000 C 
ENDBRANCH  10  11
ENDBRANCH   3   5
BRANCH   1  18
ATOM     18  C   UNL     1       0.231   8.969  19.329  0.00  0.00    +0.000 C 
BRANCH  18  19
ATOM     19  C   UNL     1      -0.113   9.661  20.657  0.00  0.00    +0.000 A 
ATOM     20  C   UNL     1      -0.344   8.913  21.828  0.00  0.00    +0.000 A 
ATOM     21  C   UNL     1      -0.680   9.552  23.029  0.00  0.00    +0.000 A 
ATOM     22  C   UNL     1      -0.792  10.932  23.088  0.00  0.00    +0.000 A 
ATOM     23  C   UNL     1      -0.555  11.693  21.943  0.00  0.00    +0.000 A 
ATOM     24  C   UNL     1      -0.222  11.055  20.742  0.00  0.00    +0.000 A 
ENDBRANCH  18  19
BRANCH  18  26
ATOM     25  C   UNL     1      -1.195  10.065  17.476  0.00  0.00    +0.000 C 
ATOM     26  C   UNL     1       0.167   9.971  18.155  0.00  0.00    +0.000 C 
ENDBRANCH  18  26
ENDBRANCH   1  18
TORSDOF 5
ENDMDL
