MODEL 1
REMARK VINA RESULT:      -7.5      0.000      0.000
REMARK  Name = 
REMARK  9 active torsions:
REMARK  status: ('A' for Active; 'I' for Inactive)
REMARK    1  A    between atoms: C_1  and  C_2
REMARK    2  A    between atoms: C_2  and  N_3
REMARK    3  A    between atoms: N_3  and  C_4
REMARK    4  A    between atoms: N_3  and  C_6
REMARK    5  A    between atoms: C_4  and  C_5
REMARK    6  A    between atoms: C_6  and  C_7
REMARK    7  A    between atoms: C_7  and  N_8
REMARK    8  A    between atoms: C_9  and  C_11
REMARK    9  A    between atoms: C_13  and  C_14
REMARK                            x       y       z     vdW  Elec       q    Type
REMARK                         _______ _______ _______ _____ _____    ______ ____
ROOT
ATOM      1  C   UNL     1       2.897   6.066  18.404  0.00  0.00    +0.000 A 
ATOM      2  C   UNL     1       3.877   5.984  17.392  0.00  0.00    +0.000 A 
ATOM      3  C   UNL     1       4.401   4.750  16.993  0.00  0.00    +0.000 A 
ATOM      4  N   UNL     1       3.957   3.612  17.581  0.00  0.00    +0.000 NA
ATOM      5  C   UNL     1       3.017   3.617  18.556  0.00  0.00    +0.000 A 
ATOM      6  C   UNL     1       2.607   2.397  19.106  0.00  0.00    +0.000 A 
ATOM      7  C   UNL     1       1.632   2.363  20.099  0.00  0.00    +0.000 A 
ATOM      8  C   UNL     1       1.057   3.548  20.549  0.00  0.00    +0.000 A 
ATOM      9  C   UNL     1       1.457   4.776  20.015  0.00  0.00    +0.000 A 
ATOM     10  C   UNL     1       2.452   4.844  19.008  0.00  0.00    +0.000 A 
ENDROOT
BRANCH   3  11
ATOM     11  C   UNL     1       5.441   4.681  15.952  0.00  0.00    +0.000 A 
ATOM     12  C   UNL     1       5.268   4.234  14.655  0.00  0.00    +0.000 A 
ATOM     13  C   UNL     1       6.502   4.343  14.053  0.00  0.00    +0.000 A 
ATOM     14  C   UNL     1       7.355   4.845  15.014  0.00  0.00    +0.000 A 
ATOM     15  O   UNL     1       6.695   5.038  16.133  0.00  0.00    +0.000 OA
ENDBRANCH   3  11
BRANCH   1  17
ATOM     16  N   UNL     1       2.112   8.394  17.878  0.00  0.00    +0.000 N 
ATOM     17  C   UNL     1       2.392   7.429  18.804  0.00  0.00    +0.000 C 
ATOM     18  O   UNL     1       2.220   7.684  19.986  0.00  0.00    +0.000 OA
ATOM     19  H   UNL     1       2.197   8.196  16.871  0.00  0.00    +0.000 HD
BRANCH  16  20
ATOM     20  C   UNL     1       1.633   9.702  18.290  0.00  0.00    +0.000 C 
BRANCH  20  21
ATOM     21  C   UNL     1       0.143   9.912  17.961  0.00  0.00    +0.000 C 
BRANCH  21  22
ATOM     22  N   UNL     1      -0.581  10.772  18.935  0.00  0.00    +0.000 NA
BRANCH  22  24
ATOM     23  C   UNL     1      -2.672   9.941  17.774  0.00  0.00    +0.000 C 
ATOM     24  C   UNL     1      -1.964  11.096  18.492  0.00  0.00    +0.000 C 
ENDBRANCH  22  24
BRANCH  22  25
ATOM     25  C   UNL     1      -0.495  10.203  20.308  0.00  0.00    +0.000 C 
ATOM     26  C   UNL     1      -0.152  11.226  21.402  0.00  0.00    +0.000 C 
ENDBRANCH  22  25
ENDBRANCH  21  22
ENDBRANCH  20  21
ENDBRANCH  16  20
ENDBRANCH   1  17
TORSDOF 7
ENDMDL
MODEL 2
REMARK VINA RESULT:      -7.5      2.051      7.573
REMARK  Name = 
REMARK  9 active torsions:
REMARK  status: ('A' for Active; 'I' for Inactive)
REMARK    1  A    between atoms: C_1  and  C_2
REMARK    2  A    between atoms: C_2  and  N_3
REMARK    3  A    between atoms: N_3  and  C_4
REMARK    4  A    between atoms: N_3  and  C_6
REMARK    5  A    between atoms: C_4  and  C_5
REMARK    6  A    between atoms: C_6  and  C_7
REMARK    7  A    between atoms: C_7  and  N_8
REMARK    8  A    between atoms: C_9  and  C_11
REMARK    9  A    between atoms: C_13  and  C_14
REMARK                            x       y       z     vdW  Elec       q    Type
REMARK                         _______ _______ _______ _____ _____    ______ ____
ROOT
ATOM      1  C   UNL     1       4.179   5.301  18.187  0.00  0.00    +0.000 A 
ATOM      2  C   UNL     1       3.593   6.583  18.123  0.00  0.00    +0.000 A 
ATOM      3  C   UNL     1       2.590   6.963  19.021  0.00  0.00    +0.000 A 
ATOM      4  N   UNL     1       2.177   6.092  19.974  0.00  0.00    +0.000 NA
ATOM      5  C   UNL     1       2.698   4.847  20.094  0.00  0.00    +0.000 A 
ATOM      6  C   UNL     1       2.222   4.011  21.111  0.00  0.00    +0.000 A 
ATOM      7  C   UNL     1       2.744   2.730  21.274  0.00  0.00    +0.000 A 
ATOM      8  C   UNL     1       3.749   2.277  20.423  0.00  0.00    +0.000 A 
ATOM      9  C   UNL     1       4.234   3.096  19.401  0.00  0.00    +0.000 A 
ATOM     10  C   UNL     1       3.717   4.401  19.204  0.00  0.00    +0.000 A 
ENDROOT
BRANCH   3  11
ATOM     11  C   UNL     1       1.970   8.297  18.927  0.00  0.00    +0.000 A 
ATOM     12  C   UNL     1       2.007   9.137  17.830  0.00  0.00    +0.000 A 
ATOM     13  C   UNL     1       1.307  10.264  18.198  0.00  0.00    +0.000 A 
ATOM     14  C   UNL     1       0.887  10.050  19.495  0.00  0.00    +0.000 A 
ATOM     15  O   UNL     1       1.295   8.869  19.901  0.00  0.00    +0.000 OA
ENDBRANCH   3  11
BRANCH   1  17
ATOM     16  N   UNL     1       4.994   4.067  16.156  0.00  0.00    +0.000 N 
ATOM     17  C   UNL     1       5.237   4.945  17.175  0.00  0.00    +0.000 C 
ATOM     18  O   UNL     1       6.345   5.455  17.256  0.00  0.00    +0.000 OA
ATOM     19  H   UNL     1       4.058   3.659  16.028  0.00  0.00    +0.000 HD
BRANCH  16  20
ATOM     20  C   UNL     1       6.034   3.735  15.197  0.00  0.00    +0.000 C 
BRANCH  20  21
ATOM     21  C   UNL     1       5.712   4.247  13.781  0.00  0.00    +0.000 C 
BRANCH  21  22
ATOM     22  N   UNL     1       6.396   3.499  12.692  0.00  0.00    +0.000 NA
BRANCH  22  24
ATOM     23  C   UNL     1       6.065   1.424  11.279  0.00  0.00    +0.000 C 
ATOM     24  C   UNL     1       5.450   2.699  11.870  0.00  0.00    +0.000 C 
ENDBRANCH  22  24
BRANCH  22  25
ATOM     25  C   UNL     1       7.280   4.402  11.905  0.00  0.00    +0.000 C 
ATOM     26  C   UNL     1       8.054   5.428  12.747  0.00  0.00    +0.000 C 
ENDBRANCH  22  25
ENDBRANCH  21  22
ENDBRANCH  20  21
ENDBRANCH  16  20
ENDBRANCH   1  17
TORSDOF 7
ENDMDL
MODEL 3
REMARK VINA RESULT:      -7.5      4.637      6.429
REMARK  Name = 
REMARK  9 active torsions:
REMARK  status: ('A' for Active; 'I' for Inactive)
REMARK    1  A    between atoms: C_1  and  C_2
REMARK    2  A    between atoms: C_2  and  N_3
REMARK    3  A    between atoms: N_3  and  C_4
REMARK    4  A    between atoms: N_3  and  C_6
REMARK    5  A    between atoms: C_4  and  C_5
REMARK    6  A    between atoms: C_6  and  C_7
REMARK    7  A    between atoms: C_7  and  N_8
REMARK    8  A    between atoms: C_9  and  C_11
REMARK    9  A    between atoms: C_13  and  C_14
REMARK                            x       y       z     vdW  Elec       q    Type
REMARK                         _______ _______ _______ _____ _____    ______ ____
ROOT
ATOM      1  C   UNL     1       6.522   5.959  17.230  0.00  0.00    +0.000 A 
ATOM      2  C   UNL     1       6.831   5.575  15.908  0.00  0.00    +0.000 A 
ATOM      3  C   UNL     1       6.007   4.693  15.201  0.00  0.00    +0.000 A 
ATOM      4  N   UNL     1       4.888   4.204  15.789  0.00  0.00    +0.000 NA
ATOM      5  C   UNL     1       4.529   4.533  17.054  0.00  0.00    +0.000 A 
ATOM      6  C   UNL     1       3.353   3.991  17.585  0.00  0.00    +0.000 A 
ATOM      7  C   UNL     1       2.945   4.319  18.876  0.00  0.00    +0.000 A 
ATOM      8  C   UNL     1       3.709   5.193  19.644  0.00  0.00    +0.000 A 
ATOM      9  C   UNL     1       4.888   5.741  19.131  0.00  0.00    +0.000 A 
ATOM     10  C   UNL     1       5.333   5.421  17.825  0.00  0.00    +0.000 A 
ENDROOT
BRANCH   3  11
ATOM     11  C   UNL     1       6.355   4.282  13.830  0.00  0.00    +0.000 A 
ATOM     12  C   UNL     1       7.348   4.833  13.041  0.00  0.00    +0.000 A 
ATOM     13  C   UNL     1       7.306   4.142  11.850  0.00  0.00    +0.000 A 
ATOM     14  C   UNL     1       6.292   3.216  11.978  0.00  0.00    +0.000 A 
ATOM     15  O   UNL     1       5.746   3.321  13.168  0.00  0.00    +0.000 OA
ENDBRANCH   3  11
BRANCH   1  17
ATOM     16  N   UNL     1       7.644   8.186  17.539  0.00  0.00    +0.000 N 
ATOM     17  C   UNL     1       7.465   6.893  17.944  0.00  0.00    +0.000 C 
ATOM     18  O   UNL     1       8.086   6.493  18.918  0.00  0.00    +0.000 OA
ATOM     19  H   UNL     1       7.098   8.570  16.755  0.00  0.00    +0.000 HD
BRANCH  16  20
ATOM     20  C   UNL     1       8.564   9.064  18.240  0.00  0.00    +0.000 C 
BRANCH  20  21
ATOM     21  C   UNL     1       8.348  10.547  17.885  0.00  0.00    +0.000 C 
BRANCH  21  22
ATOM     22  N   UNL     1       9.281  11.481  18.570  0.00  0.00    +0.000 NA
BRANCH  22  24
ATOM     23  C   UNL     1      10.643  11.867  20.669  0.00  0.00    +0.000 C 
ATOM     24  C   UNL     1       9.455  11.155  20.011  0.00  0.00    +0.000 C 
ENDBRANCH  22  24
BRANCH  22  25
ATOM     25  C   UNL     1      10.555  11.606  17.812  0.00  0.00    +0.000 C 
ATOM     26  C   UNL     1      10.803  12.997  17.206  0.00  0.00    +0.000 C 
ENDBRANCH  22  25
ENDBRANCH  21  22
ENDBRANCH  20  21
ENDBRANCH  16  20
ENDBRANCH   1  17
TORSDOF 7
ENDMDL
MODEL 4
REMARK VINA RESULT:      -7.5      0.646      1.625
REMARK  Name = 
REMARK  9 active torsions:
REMARK  status: ('A' for Active; 'I' for Inactive)
REMARK    1  A    between atoms: C_1  and  C_2
REMARK    2  A    between atoms: C_2  and  N_3
REMARK    3  A    between atoms: N_3  and  C_4
REMARK    4  A    between atoms: N_3  and  C_6
REMARK    5  A    between atoms: C_4  and  C_5
REMARK    6  A    between atoms: C_6  and  C_7
REMARK    7  A    between atoms: C_7  and  N_8
REMARK    8  A    between atoms: C_9  and  C_11
REMARK    9  A    between atoms: C_13  and  C_14
REMARK                            x       y       z     vdW  Elec       q    Type
REMARK                         _______ _______ _______ _____ _____    ______ ____
ROOT
ATOM      1  C   UNL     1       2.863   6.052  18.523  0.00  0.00    +0.000 A 
ATOM      2  C   UNL     1       3.822   5.971  17.492  0.00  0.00    +0.000 A 
ATOM      3  C   UNL     1       4.357   4.740  17.097  0.00  0.00    +0.000 A 
ATOM      4  N   UNL     1       3.943   3.603  17.709  0.00  0.00    +0.000 NA
ATOM      5  C   UNL     1       3.024   3.607  18.704  0.00  0.00    +0.000 A 
ATOM      6  C   UNL     1       2.644   2.388  19.277  0.00  0.00    +0.000 A 
ATOM      7  C   UNL     1       1.691   2.352  20.292  0.00  0.00    +0.000 A 
ATOM      8  C   UNL     1       1.108   3.534  20.739  0.00  0.00    +0.000 A 
ATOM      9  C   UNL     1       1.477   4.761  20.181  0.00  0.00    +0.000 A 
ATOM     10  C   UNL     1       2.450   4.831  19.152  0.00  0.00    +0.000 A 
ENDROOT
BRANCH   3  11
ATOM     11  C   UNL     1       5.376   4.674  16.035  0.00  0.00    +0.000 A 
ATOM     12  C   UNL     1       6.675   5.137  16.123  0.00  0.00    +0.000 A 
ATOM     13  C   UNL     1       7.251   4.870  14.900  0.00  0.00    +0.000 A 
ATOM     14  C   UNL     1       6.273   4.265  14.138  0.00  0.00    +0.000 A 
ATOM     15  O   UNL     1       5.168   4.160  14.842  0.00  0.00    +0.000 OA
ENDBRANCH   3  11
BRANCH   1  17
ATOM     16  N   UNL     1       2.014   8.354  17.985  0.00  0.00    +0.000 N 
ATOM     17  C   UNL     1       2.345   7.411  18.917  0.00  0.00    +0.000 C 
ATOM     18  O   UNL     1       2.209   7.685  20.100  0.00  0.00    +0.000 OA
ATOM     19  H   UNL     1       2.068   8.139  16.979  0.00  0.00    +0.000 HD
BRANCH  16  20
ATOM     20  C   UNL     1       1.525   9.660  18.390  0.00  0.00    +0.000 C 
BRANCH  20  21
ATOM     21  C   UNL     1       0.115   9.955  17.843  0.00  0.00    +0.000 C 
BRANCH  21  22
ATOM     22  N   UNL     1      -0.935  10.061  18.890  0.00  0.00    +0.000 NA
BRANCH  22  24
ATOM     23  C   UNL     1      -1.204  11.891  20.620  0.00  0.00    +0.000 C 
ATOM     24  C   UNL     1      -0.422  10.657  20.153  0.00  0.00    +0.000 C 
ENDBRANCH  22  24
BRANCH  22  25
ATOM     25  C   UNL     1      -2.154  10.724  18.350  0.00  0.00    +0.000 C 
ATOM     26  C   UNL     1      -3.116   9.783  17.608  0.00  0.00    +0.000 C 
ENDBRANCH  22  25
ENDBRANCH  21  22
ENDBRANCH  20  21
ENDBRANCH  16  20
ENDBRANCH   1  17
TORSDOF 7
ENDMDL
MODEL 5
REMARK VINA RESULT:      -7.4      1.786      2.092
REMARK  Name = 
REMARK  9 active torsions:
REMARK  status: ('A' for Active; 'I' for Inactive)
REMARK    1  A    between atoms: C_1  and  C_2
REMARK    2  A    between atoms: C_2  and  N_3
REMARK    3  A    between atoms: N_3  and  C_4
REMARK    4  A    between atoms: N_3  and  C_6
REMARK    5  A    between atoms: C_4  and  C_5
REMARK    6  A    between atoms: C_6  and  C_7
REMARK    7  A    between atoms: C_7  and  N_8
REMARK    8  A    between atoms: C_9  and  C_11
REMARK    9  A    between atoms: C_13  and  C_14
REMARK                            x       y       z     vdW  Elec       q    Type
REMARK                         _______ _______ _______ _____ _____    ______ ____
ROOT
ATOM      1  C   UNL     1       3.044   6.028  18.770  0.00  0.00    +0.000 A 
ATOM      2  C   UNL     1       3.902   5.939  17.653  0.00  0.00    +0.000 A 
ATOM      3  C   UNL     1       4.638   4.778  17.398  0.00  0.00    +0.000 A 
ATOM      4  N   UNL     1       4.522   3.715  18.231  0.00  0.00    +0.000 NA
ATOM      5  C   UNL     1       3.716   3.730  19.320  0.00  0.00    +0.000 A 
ATOM      6  C   UNL     1       3.648   2.586  20.125  0.00  0.00    +0.000 A 
ATOM      7  C   UNL     1       2.819   2.560  21.244  0.00  0.00    +0.000 A 
ATOM      8  C   UNL     1       2.050   3.675  21.564  0.00  0.00    +0.000 A 
ATOM      9  C   UNL     1       2.108   4.826  20.774  0.00  0.00    +0.000 A 
ATOM     10  C   UNL     1       2.948   4.887  19.634  0.00  0.00    +0.000 A 
ENDROOT
BRANCH   3  11
ATOM     11  C   UNL     1       5.548   4.709  16.241  0.00  0.00    +0.000 A 
ATOM     12  C   UNL     1       5.203   4.338  14.955  0.00  0.00    +0.000 A 
ATOM     13  C   UNL     1       6.365   4.414  14.219  0.00  0.00    +0.000 A 
ATOM     14  C   UNL     1       7.349   4.822  15.096  0.00  0.00    +0.000 A 
ATOM     15  O   UNL     1       6.832   4.992  16.291  0.00  0.00    +0.000 OA
ENDBRANCH   3  11
BRANCH   1  17
ATOM     16  N   UNL     1       1.964   7.741  20.257  0.00  0.00    +0.000 N 
ATOM     17  C   UNL     1       2.298   7.316  19.002  0.00  0.00    +0.000 C 
ATOM     18  O   UNL     1       1.984   8.011  18.047  0.00  0.00    +0.000 OA
ATOM     19  H   UNL     1       2.257   7.206  21.087  0.00  0.00    +0.000 HD
BRANCH  16  20
ATOM     20  C   UNL     1       1.238   8.983  20.454  0.00  0.00    +0.000 C 
BRANCH  20  21
ATOM     21  C   UNL     1       0.872   9.223  21.930  0.00  0.00    +0.000 C 
BRANCH  21  22
ATOM     22  N   UNL     1       0.357  10.589  22.217  0.00  0.00    +0.000 NA
BRANCH  22  24
ATOM     23  C   UNL     1       1.000  12.617  20.846  0.00  0.00    +0.000 C 
ATOM     24  C   UNL     1       0.111  11.376  20.979  0.00  0.00    +0.000 C 
ENDBRANCH  22  24
BRANCH  22  25
ATOM     25  C   UNL     1      -0.803  10.531  23.148  0.00  0.00    +0.000 C 
ATOM     26  C   UNL     1      -1.821  11.669  22.969  0.00  0.00    +0.000 C 
ENDBRANCH  22  25
ENDBRANCH  21  22
ENDBRANCH  20  21
ENDBRANCH  16  20
ENDBRANCH   1  17
TORSDOF 7
ENDMDL
MODEL 6
REMARK VINA RESULT:      -7.4      4.422      7.193
REMARK  Name = 
REMARK  9 active torsions:
REMARK  status: ('A' for Active; 'I' for Inactive)
REMARK    1  A    between atoms: C_1  and  C_2
REMARK    2  A    between atoms: C_2  and  N_3
REMARK    3  A    between atoms: N_3  and  C_4
REMARK    4  A    between atoms: N_3  and  C_6
REMARK    5  A    between atoms: C_4  and  C_5
REMARK    6  A    between atoms: C_6  and  C_7
REMARK    7  A    between atoms: C_7  and  N_8
REMARK    8  A    between atoms: C_9  and  C_11
REMARK    9  A    between atoms: C_13  and  C_14
REMARK                            x       y       z     vdW  Elec       q    Type
REMARK                         _______ _______ _______ _____ _____    ______ ____
ROOT
ATOM      1  C   UNL     1       6.256   5.297  17.915  0.00  0.00    +0.000 A 
ATOM      2  C   UNL     1       5.200   4.891  18.759  0.00  0.00    +0.000 A 
ATOM      3  C   UNL     1       4.144   4.116  18.270  0.00  0.00    +0.000 A 
ATOM      4  N   UNL     1       4.134   3.741  16.967  0.00  0.00    +0.000 NA
ATOM      5  C   UNL     1       5.116   4.093  16.103  0.00  0.00    +0.000 A 
ATOM      6  C   UNL     1       5.035   3.658  14.775  0.00  0.00    +0.000 A 
ATOM      7  C   UNL     1       6.034   3.988  13.862  0.00  0.00    +0.000 A 
ATOM      8  C   UNL     1       7.122   4.754  14.271  0.00  0.00    +0.000 A 
ATOM      9  C   UNL     1       7.218   5.200  15.592  0.00  0.00    +0.000 A 
ATOM     10  C   UNL     1       6.214   4.888  16.542  0.00  0.00    +0.000 A 
ENDROOT
BRANCH   3  11
ATOM     11  C   UNL     1       3.036   3.719  19.157  0.00  0.00    +0.000 A 
ATOM     12  C   UNL     1       1.687   3.833  18.875  0.00  0.00    +0.000 A 
ATOM     13  C   UNL     1       1.031   3.348  19.985  0.00  0.00    +0.000 A 
ATOM     14  C   UNL     1       2.013   2.972  20.878  0.00  0.00    +0.000 A 
ATOM     15  O   UNL     1       3.196   3.203  20.356  0.00  0.00    +0.000 OA
ENDBRANCH   3  11
BRANCH   1  17
ATOM     16  N   UNL     1       7.589   7.423  18.055  0.00  0.00    +0.000 N 
ATOM     17  C   UNL     1       7.352   6.152  18.499  0.00  0.00    +0.000 C 
ATOM     18  O   UNL     1       8.049   5.707  19.398  0.00  0.00    +0.000 OA
ATOM     19  H   UNL     1       6.988   7.847  17.335  0.00  0.00    +0.000 HD
BRANCH  16  20
ATOM     20  C   UNL     1       8.656   8.224  18.629  0.00  0.00    +0.000 C 
BRANCH  20  21
ATOM     21  C   UNL     1       8.506   9.722  18.304  0.00  0.00    +0.000 C 
BRANCH  21  22
ATOM     22  N   UNL     1       9.617  10.570  18.813  0.00  0.00    +0.000 NA
BRANCH  22  24
ATOM     23  C   UNL     1       8.727  12.626  17.633  0.00  0.00    +0.000 C 
ATOM     24  C   UNL     1       9.925  11.709  17.906  0.00  0.00    +0.000 C 
ENDBRANCH  22  24
BRANCH  22  25
ATOM     25  C   UNL     1       9.378  10.961  20.229  0.00  0.00    +0.000 C 
ATOM     26  C   UNL     1      10.432  11.913  20.815  0.00  0.00    +0.000 C 
ENDBRANCH  22  25
ENDBRANCH  21  22
ENDBRANCH  20  21
ENDBRANCH  16  20
ENDBRANCH   1  17
TORSDOF 7
ENDMDL
MODEL 7
REMARK VINA RESULT:      -7.4      0.946      1.243
REMARK  Name = 
REMARK  9 active torsions:
REMARK  status: ('A' for Active; 'I' for Inactive)
REMARK    1  A    between atoms: C_1  and  C_2
REMARK    2  A    between atoms: C_2  and  N_3
REMARK    3  A    between atoms: N_3  and  C_4
REMARK    4  A    between atoms: N_3  and  C_6
REMARK    5  A    between atoms: C_4  and  C_5
REMARK    6  A    between atoms: C_6  and  C_7
REMARK    7  A    between atoms: C_7  and  N_8
REMARK    8  A    between atoms: C_9  and  C_11
REMARK    9  A    between atoms: C_13  and  C_14
REMARK                            x       y       z     vdW  Elec       q    Type
REMARK                         _______ _______ _______ _____ _____    ______ ____
ROOT
ATOM      1  C   UNL     1       2.852   6.104  18.451  0.00  0.00    +0.000 A 
ATOM      2  C   UNL     1       3.822   6.021  17.429  0.00  0.00    +0.000 A 
ATOM      3  C   UNL     1       4.349   4.788  17.034  0.00  0.00    +0.000 A 
ATOM      4  N   UNL     1       3.919   3.651  17.634  0.00  0.00    +0.000 NA
ATOM      5  C   UNL     1       2.989   3.658  18.619  0.00  0.00    +0.000 A 
ATOM      6  C   UNL     1       2.592   2.438  19.182  0.00  0.00    +0.000 A 
ATOM      7  C   UNL     1       1.628   2.405  20.186  0.00  0.00    +0.000 A 
ATOM      8  C   UNL     1       1.051   3.590  20.633  0.00  0.00    +0.000 A 
ATOM      9  C   UNL     1       1.436   4.817  20.086  0.00  0.00    +0.000 A 
ATOM     10  C   UNL     1       2.421   4.884  19.068  0.00  0.00    +0.000 A 
ENDROOT
BRANCH   3  11
ATOM     11  C   UNL     1       5.379   4.718  15.982  0.00  0.00    +0.000 A 
ATOM     12  C   UNL     1       6.636   5.290  16.034  0.00  0.00    +0.000 A 
ATOM     13  C   UNL     1       7.242   4.973  14.838  0.00  0.00    +0.000 A 
ATOM     14  C   UNL     1       6.322   4.230  14.127  0.00  0.00    +0.000 A 
ATOM     15  O   UNL     1       5.224   4.093  14.834  0.00  0.00    +0.000 OA
ENDBRANCH   3  11
BRANCH   1  17
ATOM     16  N   UNL     1       1.950   8.387  17.916  0.00  0.00    +0.000 N 
ATOM     17  C   UNL     1       2.343   7.466  18.846  0.00  0.00    +0.000 C 
ATOM     18  O   UNL     1       2.270   7.763  20.030  0.00  0.00    +0.000 OA
ATOM     19  H   UNL     1       1.949   8.153  16.914  0.00  0.00    +0.000 HD
BRANCH  16  20
ATOM     20  C   UNL     1       1.469   9.696  18.322  0.00  0.00    +0.000 C 
BRANCH  20  21
ATOM     21  C   UNL     1      -0.037   9.695  18.645  0.00  0.00    +0.000 C 
BRANCH  21  22
ATOM     22  N   UNL     1      -0.844  10.611  17.794  0.00  0.00    +0.000 NA
BRANCH  22  24
ATOM     23  C   UNL     1      -3.270   9.897  17.679  0.00  0.00    +0.000 C 
ATOM     24  C   UNL     1      -1.888   9.893  17.015  0.00  0.00    +0.000 C 
ENDBRANCH  22  24
BRANCH  22  25
ATOM     25  C   UNL     1      -1.354  11.759  18.591  0.00  0.00    +0.000 C 
ATOM     26  C   UNL     1      -0.614  13.084  18.347  0.00  0.00    +0.000 C 
ENDBRANCH  22  25
ENDBRANCH  21  22
ENDBRANCH  20  21
ENDBRANCH  16  20
ENDBRANCH   1  17
TORSDOF 7
ENDMDL
MODEL 8
REMARK VINA RESULT:      -7.4      1.296      2.047
REMARK  Name = 
REMARK  9 active torsions:
REMARK  status: ('A' for Active; 'I' for Inactive)
REMARK    1  A    between atoms: C_1  and  C_2
REMARK    2  A    between atoms: C_2  and  N_3
REMARK    3  A    between atoms: N_3  and  C_4
REMARK    4  A    between atoms: N_3  and  C_6
REMARK    5  A    between atoms: C_4  and  C_5
REMARK    6  A    between atoms: C_6  and  C_7
REMARK    7  A    between atoms: C_7  and  N_8
REMARK    8  A    between atoms: C_9  and  C_11
REMARK    9  A    between atoms: C_13  and  C_14
REMARK                            x       y       z     vdW  Elec       q    Type
REMARK                         _______ _______ _______ _____ _____    ______ ____
ROOT
ATOM      1  C   UNL     1       2.829   5.990  18.698  0.00  0.00    +0.000 A 
ATOM      2  C   UNL     1       3.814   5.968  17.688  0.00  0.00    +0.000 A 
ATOM      3  C   UNL     1       4.353   4.760  17.232  0.00  0.00    +0.000 A 
ATOM      4  N   UNL     1       3.918   3.590  17.760  0.00  0.00    +0.000 NA
ATOM      5  C   UNL     1       2.973   3.538  18.730  0.00  0.00    +0.000 A 
ATOM      6  C   UNL     1       2.573   2.288  19.217  0.00  0.00    +0.000 A 
ATOM      7  C   UNL     1       1.594   2.195  20.202  0.00  0.00    +0.000 A 
ATOM      8  C   UNL     1       1.005   3.350  20.707  0.00  0.00    +0.000 A 
ATOM      9  C   UNL     1       1.394   4.607  20.236  0.00  0.00    +0.000 A 
ATOM     10  C   UNL     1       2.394   4.735  19.239  0.00  0.00    +0.000 A 
ENDROOT
BRANCH   3  11
ATOM     11  C   UNL     1       5.398   4.754  16.194  0.00  0.00    +0.000 A 
ATOM     12  C   UNL     1       5.197   4.594  14.835  0.00  0.00    +0.000 A 
ATOM     13  C   UNL     1       6.448   4.649  14.263  0.00  0.00    +0.000 A 
ATOM     14  C   UNL     1       7.338   4.834  15.300  0.00  0.00    +0.000 A 
ATOM     15  O   UNL     1       6.684   4.894  16.437  0.00  0.00    +0.000 OA
ENDBRANCH   3  11
BRANCH   1  17
ATOM     16  N   UNL     1       2.002   7.565  20.473  0.00  0.00    +0.000 N 
ATOM     17  C   UNL     1       2.307   7.326  19.162  0.00  0.00    +0.000 C 
ATOM     18  O   UNL     1       2.155   8.228  18.352  0.00  0.00    +0.000 OA
ATOM     19  H   UNL     1       2.167   6.844  21.189  0.00  0.00    +0.000 HD
BRANCH  16  20
ATOM     20  C   UNL     1       1.494   8.859  20.894  0.00  0.00    +0.000 C 
BRANCH  20  21
ATOM     21  C   UNL     1       0.213   8.740  21.740  0.00  0.00    +0.000 C 
BRANCH  21  22
ATOM     22  N   UNL     1      -0.646   9.954  21.718  0.00  0.00    +0.000 NA
BRANCH  22  24
ATOM     23  C   UNL     1      -1.452  11.943  23.062  0.00  0.00    +0.000 C 
ATOM     24  C   UNL     1      -0.847  10.534  23.073  0.00  0.00    +0.000 C 
ENDBRANCH  22  24
BRANCH  22  25
ATOM     25  C   UNL     1      -0.162  10.926  20.701  0.00  0.00    +0.000 C 
ATOM     26  C   UNL     1      -1.066  11.060  19.465  0.00  0.00    +0.000 C 
ENDBRANCH  22  25
ENDBRANCH  21  22
ENDBRANCH  20  21
ENDBRANCH  16  20
ENDBRANCH   1  17
TORSDOF 7
ENDMDL
MODEL 9
REMARK VINA RESULT:      -7.4      4.659      6.286
REMARK  Name = 
REMARK  9 active torsions:
REMARK  status: ('A' for Active; 'I' for Inactive)
REMARK    1  A    between atoms: C_1  and  C_2
REMARK    2  A    between atoms: C_2  and  N_3
REMARK    3  A    between atoms: N_3  and  C_4
REMARK    4  A    between atoms: N_3  and  C_6
REMARK    5  A    between atoms: C_4  and  C_5
REMARK    6  A    between atoms: C_6  and  C_7
REMARK    7  A    between atoms: C_7  and  N_8
REMARK    8  A    between atoms: C_9  and  C_11
REMARK    9  A    between atoms: C_13  and  C_14
REMARK                            x       y       z     vdW  Elec       q    Type
REMARK                         _______ _______ _______ _____ _____    ______ ____
ROOT
ATOM      1  C   UNL     1       6.506   5.871  17.357  0.00  0.00    +0.000 A 
ATOM      2  C   UNL     1       6.829   5.528  16.027  0.00  0.00    +0.000 A 
ATOM      3  C   UNL     1       5.983   4.716  15.265  0.00  0.00    +0.000 A 
ATOM      4  N   UNL     1       4.829   4.256  15.808  0.00  0.00    +0.000 NA
ATOM      5  C   UNL     1       4.455   4.549  17.076  0.00  0.00    +0.000 A 
ATOM      6  C   UNL     1       3.243   4.040  17.558  0.00  0.00    +0.000 A 
ATOM      7  C   UNL     1       2.820   4.333  18.852  0.00  0.00    +0.000 A 
ATOM      8  C   UNL     1       3.604   5.138  19.674  0.00  0.00    +0.000 A 
ATOM      9  C   UNL     1       4.818   5.651  19.211  0.00  0.00    +0.000 A 
ATOM     10  C   UNL     1       5.280   5.365  17.902  0.00  0.00    +0.000 A 
ENDROOT
BRANCH   3  11
ATOM     11  C   UNL     1       6.345   4.346  13.886  0.00  0.00    +0.000 A 
ATOM     12  C   UNL     1       5.688   3.426  13.091  0.00  0.00    +0.000 A 
ATOM     13  C   UNL     1       6.376   3.403  11.898  0.00  0.00    +0.000 A 
ATOM     14  C   UNL     1       7.412   4.305  12.034  0.00  0.00    +0.000 A 
ATOM     15  O   UNL     1       7.366   4.852  13.228  0.00  0.00    +0.000 OA
ENDBRANCH   3  11
BRANCH   1  17
ATOM     16  N   UNL     1       7.687   8.042  17.814  0.00  0.00    +0.000 N 
ATOM     17  C   UNL     1       7.473   6.730  18.132  0.00  0.00    +0.000 C 
ATOM     18  O   UNL     1       8.083   6.249  19.076  0.00  0.00    +0.000 OA
ATOM     19  H   UNL     1       7.153   8.492  17.058  0.00  0.00    +0.000 HD
BRANCH  16  20
ATOM     20  C   UNL     1       8.630   8.846  18.571  0.00  0.00    +0.000 C 
BRANCH  20  21
ATOM     21  C   UNL     1       8.778  10.269  18.002  0.00  0.00    +0.000 C 
BRANCH  21  22
ATOM     22  N   UNL     1       9.834  11.083  18.662  0.00  0.00    +0.000 NA
BRANCH  22  24
ATOM     23  C   UNL     1      10.986  12.909  17.339  0.00  0.00    +0.000 C 
ATOM     24  C   UNL     1       9.806  12.507  18.233  0.00  0.00    +0.000 C 
ENDBRANCH  22  24
BRANCH  22  25
ATOM     25  C   UNL     1       9.807  10.887  20.137  0.00  0.00    +0.000 C 
ATOM     26  C   UNL     1       9.808  12.188  20.954  0.00  0.00    +0.000 C 
ENDBRANCH  22  25
ENDBRANCH  21  22
ENDBRANCH  20  21
ENDBRANCH  16  20
ENDBRANCH   1  17
TORSDOF 7
ENDMDL
