MODEL 1
REMARK VINA RESULT:      -8.9      0.000      0.000
REMARK  Name = 
REMARK  4 active torsions:
REMARK  status: ('A' for Active; 'I' for Inactive)
REMARK    1  A    between atoms: C_2  and  C_3
REMARK    2  A    between atoms: C_3  and  N_4
REMARK    3  A    between atoms: C_5  and  C_7
REMARK    4  A    between atoms: C_7  and  C_8
REMARK                            x       y       z     vdW  Elec       q    Type
REMARK                         _______ _______ _______ _____ _____    ______ ____
ROOT
ATOM      1  C   UNL     1       5.213   4.480  16.286  0.00  0.00    +0.000 C 
ATOM      2  N   UNL     1       4.878   3.662  17.488  0.00  0.00    +0.000 NA
ATOM      3  C   UNL     1       4.036   4.402  18.146  0.00  0.00    +0.000 C 
ATOM      4  C   UNL     1       3.344   3.958  19.359  0.00  0.00    +0.000 A 
ATOM      5  C   UNL     1       3.697   2.784  20.025  0.00  0.00    +0.000 A 
ATOM      6  C   UNL     1       2.993   2.413  21.173  0.00  0.00    +0.000 A 
ATOM      7  C   UNL     1       1.917   3.185  21.617  0.00  0.00    +0.000 A 
ATOM      8  C   UNL     1       1.561   4.354  20.942  0.00  0.00    +0.000 A 
ATOM      9  C   UNL     1       2.308   4.758  19.836  0.00  0.00    +0.000 A 
ATOM     10  N   UNL     1       2.075   6.006  19.254  0.00  0.00    +0.000 N 
ATOM     11  C   UNL     1       2.888   6.549  18.278  0.00  0.00    +0.000 C 
ATOM     12  S   UNL     1       2.674   8.172  17.938  0.00  0.00    +0.000 S 
ATOM     13  N   UNL     1       3.800   5.664  17.688  0.00  0.00    +0.000 N 
ATOM     14  C   UNL     1       4.612   5.847  16.580  0.00  0.00    +0.000 C 
ATOM     15  O   UNL     1       4.828   6.857  15.933  0.00  0.00    +0.000 OA
ATOM     16  H   UNL     1       1.367   6.617  19.649  0.00  0.00    +0.000 HD
ENDROOT
BRANCH   1  17
ATOM     17  C   UNL     1       6.709   4.517  16.042  0.00  0.00    +0.000 C 
BRANCH  17  19
ATOM     18  N   UNL     1       6.362   3.648  13.796  0.00  0.00    +0.000 N 
ATOM     19  C   UNL     1       7.016   4.589  14.561  0.00  0.00    +0.000 C 
ATOM     20  O   UNL     1       7.793   5.429  14.102  0.00  0.00    +0.000 OA
ATOM     21  H   UNL     1       5.586   3.153  14.210  0.00  0.00    +0.000 HD
BRANCH  18  22
ATOM     22  C   UNL     1       6.488   3.610  12.356  0.00  0.00    +0.000 C 
BRANCH  22  24
ATOM     23  C   UNL     1       4.220   3.250  11.344  0.00  0.00    +0.000 C 
ATOM     24  C   UNL     1       5.377   2.764  11.808  0.00  0.00    +0.000 C 
ENDBRANCH  22  24
ENDBRANCH  18  22
ENDBRANCH  17  19
ENDBRANCH   1  17
TORSDOF 4
ENDMDL
MODEL 2
REMARK VINA RESULT:      -8.4      2.199      3.622
REMARK  Name = 
REMARK  4 active torsions:
REMARK  status: ('A' for Active; 'I' for Inactive)
REMARK    1  A    between atoms: C_2  and  C_3
REMARK    2  A    between atoms: C_3  and  N_4
REMARK    3  A    between atoms: C_5  and  C_7
REMARK    4  A    between atoms: C_7  and  C_8
REMARK                            x       y       z     vdW  Elec       q    Type
REMARK                         _______ _______ _______ _____ _____    ______ ____
ROOT
ATOM      1  C   UNL     1       5.222   4.442  16.316  0.00  0.00    +0.000 C 
ATOM      2  N   UNL     1       4.854   3.642  17.521  0.00  0.00    +0.000 NA
ATOM      3  C   UNL     1       3.999   4.394  18.148  0.00  0.00    +0.000 C 
ATOM      4  C   UNL     1       3.276   3.971  19.349  0.00  0.00    +0.000 A 
ATOM      5  C   UNL     1       3.607   2.805  20.040  0.00  0.00    +0.000 A 
ATOM      6  C   UNL     1       2.874   2.452  21.176  0.00  0.00    +0.000 A 
ATOM      7  C   UNL     1       1.790   3.235  21.583  0.00  0.00    +0.000 A 
ATOM      8  C   UNL     1       1.457   4.395  20.883  0.00  0.00    +0.000 A 
ATOM      9  C   UNL     1       2.232   4.781  19.790  0.00  0.00    +0.000 A 
ATOM     10  N   UNL     1       2.019   6.022  19.185  0.00  0.00    +0.000 N 
ATOM     11  C   UNL     1       2.857   6.548  18.222  0.00  0.00    +0.000 C 
ATOM     12  S   UNL     1       2.660   8.166  17.855  0.00  0.00    +0.000 S 
ATOM     13  N   UNL     1       3.780   5.651  17.667  0.00  0.00    +0.000 N 
ATOM     14  C   UNL     1       4.620   5.815  16.577  0.00  0.00    +0.000 C 
ATOM     15  O   UNL     1       4.856   6.814  15.921  0.00  0.00    +0.000 OA
ATOM     16  H   UNL     1       1.304   6.641  19.554  0.00  0.00    +0.000 HD
ENDROOT
BRANCH   1  17
ATOM     17  C   UNL     1       6.723   4.469  16.109  0.00  0.00    +0.000 C 
BRANCH  17  19
ATOM     18  N   UNL     1       7.534   6.497  17.183  0.00  0.00    +0.000 N 
ATOM     19  C   UNL     1       7.420   5.127  17.281  0.00  0.00    +0.000 C 
ATOM     20  O   UNL     1       7.845   4.469  18.233  0.00  0.00    +0.000 OA
ATOM     21  H   UNL     1       6.971   6.973  16.492  0.00  0.00    +0.000 HD
BRANCH  18  22
ATOM     22  C   UNL     1       8.116   7.295  18.239  0.00  0.00    +0.000 C 
BRANCH  22  24
ATOM     23  C   UNL     1       8.721   9.727  18.373  0.00  0.00    +0.000 C 
ATOM     24  C   UNL     1       7.967   8.742  17.871  0.00  0.00    +0.000 C 
ENDBRANCH  22  24
ENDBRANCH  18  22
ENDBRANCH  17  19
ENDBRANCH   1  17
TORSDOF 4
ENDMDL
MODEL 3
REMARK VINA RESULT:      -8.3      2.309      3.602
REMARK  Name = 
REMARK  4 active torsions:
REMARK  status: ('A' for Active; 'I' for Inactive)
REMARK    1  A    between atoms: C_2  and  C_3
REMARK    2  A    between atoms: C_3  and  N_4
REMARK    3  A    between atoms: C_5  and  C_7
REMARK    4  A    between atoms: C_7  and  C_8
REMARK                            x       y       z     vdW  Elec       q    Type
REMARK                         _______ _______ _______ _____ _____    ______ ____
ROOT
ATOM      1  C   UNL     1       5.115   4.527  17.848  0.00  0.00    +0.000 C 
ATOM      2  N   UNL     1       4.445   5.828  17.557  0.00  0.00    +0.000 NA
ATOM      3  C   UNL     1       3.586   5.963  18.524  0.00  0.00    +0.000 C 
ATOM      4  C   UNL     1       2.763   7.158  18.716  0.00  0.00    +0.000 A 
ATOM      5  C   UNL     1       2.679   8.162  17.751  0.00  0.00    +0.000 A 
ATOM      6  C   UNL     1       1.881   9.282  17.998  0.00  0.00    +0.000 A 
ATOM      7  C   UNL     1       1.216   9.414  19.219  0.00  0.00    +0.000 A 
ATOM      8  C   UNL     1       1.310   8.412  20.186  0.00  0.00    +0.000 A 
ATOM      9  C   UNL     1       2.053   7.265  19.910  0.00  0.00    +0.000 A 
ATOM     10  N   UNL     1       2.020   6.182  20.792  0.00  0.00    +0.000 N 
ATOM     11  C   UNL     1       2.579   4.953  20.503  0.00  0.00    +0.000 C 
ATOM     12  S   UNL     1       2.159   3.681  21.502  0.00  0.00    +0.000 S 
ATOM     13  N   UNL     1       3.437   4.924  19.396  0.00  0.00    +0.000 N 
ATOM     14  C   UNL     1       4.277   3.911  18.960  0.00  0.00    +0.000 C 
ATOM     15  O   UNL     1       4.377   2.762  19.352  0.00  0.00    +0.000 OA
ATOM     16  H   UNL     1       1.444   6.236  21.627  0.00  0.00    +0.000 HD
ENDROOT
BRANCH   1  17
ATOM     17  C   UNL     1       5.203   3.661  16.607  0.00  0.00    +0.000 C 
BRANCH  17  19
ATOM     18  N   UNL     1       6.082   3.948  14.356  0.00  0.00    +0.000 N 
ATOM     19  C   UNL     1       6.323   4.126  15.701  0.00  0.00    +0.000 C 
ATOM     20  O   UNL     1       7.359   4.619  16.154  0.00  0.00    +0.000 OA
ATOM     21  H   UNL     1       5.136   3.750  14.064  0.00  0.00    +0.000 HD
BRANCH  18  22
ATOM     22  C   UNL     1       7.016   4.391  13.345  0.00  0.00    +0.000 C 
BRANCH  22  24
ATOM     23  C   UNL     1       5.537   3.029  11.844  0.00  0.00    +0.000 C 
ATOM     24  C   UNL     1       6.670   3.710  12.054  0.00  0.00    +0.000 C 
ENDBRANCH  22  24
ENDBRANCH  18  22
ENDBRANCH  17  19
ENDBRANCH   1  17
TORSDOF 4
ENDMDL
MODEL 4
REMARK VINA RESULT:      -7.9      2.165      3.100
REMARK  Name = 
REMARK  4 active torsions:
REMARK  status: ('A' for Active; 'I' for Inactive)
REMARK    1  A    between atoms: C_2  and  C_3
REMARK    2  A    between atoms: C_3  and  N_4
REMARK    3  A    between atoms: C_5  and  C_7
REMARK    4  A    between atoms: C_7  and  C_8
REMARK                            x       y       z     vdW  Elec       q    Type
REMARK                         _______ _______ _______ _____ _____    ______ ____
ROOT
ATOM      1  C   UNL     1       5.703   4.466  14.058  0.00  0.00    +0.000 C 
ATOM      2  N   UNL     1       4.677   3.715  14.839  0.00  0.00    +0.000 NA
ATOM      3  C   UNL     1       4.830   4.147  16.056  0.00  0.00    +0.000 C 
ATOM      4  C   UNL     1       3.957   3.763  17.167  0.00  0.00    +0.000 A 
ATOM      5  C   UNL     1       3.021   2.734  17.052  0.00  0.00    +0.000 A 
ATOM      6  C   UNL     1       2.213   2.421  18.148  0.00  0.00    +0.000 A 
ATOM      7  C   UNL     1       2.309   3.164  19.327  0.00  0.00    +0.000 A 
ATOM      8  C   UNL     1       3.240   4.199  19.434  0.00  0.00    +0.000 A 
ATOM      9  C   UNL     1       4.091   4.465  18.362  0.00  0.00    +0.000 A 
ATOM     10  N   UNL     1       5.138   5.379  18.512  0.00  0.00    +0.000 N 
ATOM     11  C   UNL     1       6.125   5.560  17.563  0.00  0.00    +0.000 C 
ATOM     12  S   UNL     1       7.474   6.425  18.037  0.00  0.00    +0.000 S 
ATOM     13  N   UNL     1       5.871   4.990  16.309  0.00  0.00    +0.000 N 
ATOM     14  C   UNL     1       6.562   5.142  15.117  0.00  0.00    +0.000 C 
ATOM     15  O   UNL     1       7.625   5.697  14.901  0.00  0.00    +0.000 OA
ATOM     16  H   UNL     1       5.277   5.836  19.408  0.00  0.00    +0.000 HD
ENDROOT
BRANCH   1  17
ATOM     17  C   UNL     1       6.484   3.544  13.143  0.00  0.00    +0.000 C 
BRANCH  17  19
ATOM     18  N   UNL     1       4.400   3.588  11.888  0.00  0.00    +0.000 N 
ATOM     19  C   UNL     1       5.576   2.908  12.112  0.00  0.00    +0.000 C 
ATOM     20  O   UNL     1       5.887   1.864  11.534  0.00  0.00    +0.000 OA
ATOM     21  H   UNL     1       4.325   4.536  12.230  0.00  0.00    +0.000 HD
BRANCH  18  22
ATOM     22  C   UNL     1       3.443   3.158  10.893  0.00  0.00    +0.000 C 
BRANCH  22  24
ATOM     23  C   UNL     1       2.361   4.721   9.254  0.00  0.00    +0.000 C 
ATOM     24  C   UNL     1       3.457   4.150   9.767  0.00  0.00    +0.000 C 
ENDBRANCH  22  24
ENDBRANCH  18  22
ENDBRANCH  17  19
ENDBRANCH   1  17
TORSDOF 4
ENDMDL
MODEL 5
REMARK VINA RESULT:      -7.6      2.245      2.836
REMARK  Name = 
REMARK  4 active torsions:
REMARK  status: ('A' for Active; 'I' for Inactive)
REMARK    1  A    between atoms: C_2  and  C_3
REMARK    2  A    between atoms: C_3  and  N_4
REMARK    3  A    between atoms: C_5  and  C_7
REMARK    4  A    between atoms: C_7  and  C_8
REMARK                            x       y       z     vdW  Elec       q    Type
REMARK                         _______ _______ _______ _____ _____    ______ ____
ROOT
ATOM      1  C   UNL     1       5.864   4.978  14.932  0.00  0.00    +0.000 C 
ATOM      2  N   UNL     1       4.830   4.050  15.477  0.00  0.00    +0.000 NA
ATOM      3  C   UNL     1       4.943   4.176  16.766  0.00  0.00    +0.000 C 
ATOM      4  C   UNL     1       4.047   3.526  17.725  0.00  0.00    +0.000 A 
ATOM      5  C   UNL     1       3.133   2.546  17.337  0.00  0.00    +0.000 A 
ATOM      6  C   UNL     1       2.301   1.969  18.300  0.00  0.00    +0.000 A 
ATOM      7  C   UNL     1       2.353   2.407  19.626  0.00  0.00    +0.000 A 
ATOM      8  C   UNL     1       3.262   3.394  20.007  0.00  0.00    +0.000 A 
ATOM      9  C   UNL     1       4.138   3.920  19.058  0.00  0.00    +0.000 A 
ATOM     10  N   UNL     1       5.164   4.781  19.455  0.00  0.00    +0.000 N 
ATOM     11  C   UNL     1       6.173   5.196  18.609  0.00  0.00    +0.000 C 
ATOM     12  S   UNL     1       7.494   5.934  19.318  0.00  0.00    +0.000 S 
ATOM     13  N   UNL     1       5.962   4.944  17.247  0.00  0.00    +0.000 N 
ATOM     14  C   UNL     1       6.683   5.386  16.148  0.00  0.00    +0.000 C 
ATOM     15  O   UNL     1       7.742   5.988  16.104  0.00  0.00    +0.000 OA
ATOM     16  H   UNL     1       5.272   5.009  20.439  0.00  0.00    +0.000 HD
ENDROOT
BRANCH   1  17
ATOM     17  C   UNL     1       6.685   4.313  13.845  0.00  0.00    +0.000 C 
BRANCH  17  19
ATOM     18  N   UNL     1       6.370   2.515  12.236  0.00  0.00    +0.000 N 
ATOM     19  C   UNL     1       5.792   3.606  12.847  0.00  0.00    +0.000 C 
ATOM     20  O   UNL     1       4.645   3.997  12.616  0.00  0.00    +0.000 OA
ATOM     21  H   UNL     1       7.215   2.135  12.638  0.00  0.00    +0.000 HD
BRANCH  18  22
ATOM     22  C   UNL     1       5.641   1.686  11.302  0.00  0.00    +0.000 C 
BRANCH  22  24
ATOM     23  C   UNL     1       5.951  -0.804  11.357  0.00  0.00    +0.000 C 
ATOM     24  C   UNL     1       6.420   0.420  11.090  0.00  0.00    +0.000 C 
ENDBRANCH  22  24
ENDBRANCH  18  22
ENDBRANCH  17  19
ENDBRANCH   1  17
TORSDOF 4
ENDMDL
MODEL 6
REMARK VINA RESULT:      -7.5      2.246      6.978
REMARK  Name = 
REMARK  4 active torsions:
REMARK  status: ('A' for Active; 'I' for Inactive)
REMARK    1  A    between atoms: C_2  and  C_3
REMARK    2  A    between atoms: C_3  and  N_4
REMARK    3  A    between atoms: C_5  and  C_7
REMARK    4  A    between atoms: C_7  and  C_8
REMARK                            x       y       z     vdW  Elec       q    Type
REMARK                         _______ _______ _______ _____ _____    ______ ____
ROOT
ATOM      1  C   UNL     1       3.690   4.218  17.445  0.00  0.00    +0.000 C 
ATOM      2  N   UNL     1       3.956   3.869  16.019  0.00  0.00    +0.000 NA
ATOM      3  C   UNL     1       5.057   4.500  15.741  0.00  0.00    +0.000 C 
ATOM      4  C   UNL     1       5.767   4.367  14.467  0.00  0.00    +0.000 A 
ATOM      5  C   UNL     1       5.202   3.718  13.369  0.00  0.00    +0.000 A 
ATOM      6  C   UNL     1       5.935   3.619  12.183  0.00  0.00    +0.000 A 
ATOM      7  C   UNL     1       7.236   4.122  12.118  0.00  0.00    +0.000 A 
ATOM      8  C   UNL     1       7.801   4.762  13.222  0.00  0.00    +0.000 A 
ATOM      9  C   UNL     1       7.043   4.919  14.382  0.00  0.00    +0.000 A 
ATOM     10  N   UNL     1       7.527   5.703  15.432  0.00  0.00    +0.000 N 
ATOM     11  C   UNL     1       6.765   6.052  16.529  0.00  0.00    +0.000 C 
ATOM     12  S   UNL     1       7.371   7.260  17.513  0.00  0.00    +0.000 S 
ATOM     13  N   UNL     1       5.567   5.343  16.684  0.00  0.00    +0.000 N 
ATOM     14  C   UNL     1       4.685   5.329  17.753  0.00  0.00    +0.000 C 
ATOM     15  O   UNL     1       4.667   6.021  18.755  0.00  0.00    +0.000 OA
ATOM     16  H   UNL     1       8.428   6.163  15.338  0.00  0.00    +0.000 HD
ENDROOT
BRANCH   1  17
ATOM     17  C   UNL     1       2.245   4.626  17.654  0.00  0.00    +0.000 C 
BRANCH  17  19
ATOM     18  N   UNL     1       1.636   4.022  19.931  0.00  0.00    +0.000 N 
ATOM     19  C   UNL     1       1.544   3.675  18.601  0.00  0.00    +0.000 C 
ATOM     20  O   UNL     1       0.949   2.676  18.190  0.00  0.00    +0.000 OA
ATOM     21  H   UNL     1       1.943   4.957  20.159  0.00  0.00    +0.000 HD
BRANCH  18  22
ATOM     22  C   UNL     1       0.975   3.262  20.968  0.00  0.00    +0.000 C 
BRANCH  22  24
ATOM     23  C   UNL     1       3.249   2.272  21.352  0.00  0.00    +0.000 C 
ATOM     24  C   UNL     1       2.027   2.584  21.798  0.00  0.00    +0.000 C 
ENDBRANCH  22  24
ENDBRANCH  18  22
ENDBRANCH  17  19
ENDBRANCH   1  17
TORSDOF 4
ENDMDL
MODEL 7
REMARK VINA RESULT:      -7.4      2.125      2.558
REMARK  Name = 
REMARK  4 active torsions:
REMARK  status: ('A' for Active; 'I' for Inactive)
REMARK    1  A    between atoms: C_2  and  C_3
REMARK    2  A    between atoms: C_3  and  N_4
REMARK    3  A    between atoms: C_5  and  C_7
REMARK    4  A    between atoms: C_7  and  C_8
REMARK                            x       y       z     vdW  Elec       q    Type
REMARK                         _______ _______ _______ _____ _____    ______ ____
ROOT
ATOM      1  C   UNL     1       5.559   4.418  15.133  0.00  0.00    +0.000 C 
ATOM      2  N   UNL     1       4.274   4.054  15.799  0.00  0.00    +0.000 NA
ATOM      3  C   UNL     1       4.437   4.441  17.029  0.00  0.00    +0.000 C 
ATOM      4  C   UNL     1       3.381   4.382  18.043  0.00  0.00    +0.000 A 
ATOM      5  C   UNL     1       2.181   3.706  17.823  0.00  0.00    +0.000 A 
ATOM      6  C   UNL     1       1.211   3.694  18.828  0.00  0.00    +0.000 A 
ATOM      7  C   UNL     1       1.424   4.393  20.019  0.00  0.00    +0.000 A 
ATOM      8  C   UNL     1       2.622   5.076  20.230  0.00  0.00    +0.000 A 
ATOM      9  C   UNL     1       3.616   5.031  19.253  0.00  0.00    +0.000 A 
ATOM     10  N   UNL     1       4.881   5.563  19.517  0.00  0.00    +0.000 N 
ATOM     11  C   UNL     1       5.962   5.396  18.675  0.00  0.00    +0.000 C 
ATOM     12  S   UNL     1       7.464   5.792  19.291  0.00  0.00    +0.000 S 
ATOM     13  N   UNL     1       5.663   4.911  17.395  0.00  0.00    +0.000 N 
ATOM     14  C   UNL     1       6.481   4.805  16.281  0.00  0.00    +0.000 C 
ATOM     15  O   UNL     1       7.682   4.985  16.178  0.00  0.00    +0.000 OA
ATOM     16  H   UNL     1       5.070   5.971  20.427  0.00  0.00    +0.000 HD
ENDROOT
BRANCH   1  17
ATOM     17  C   UNL     1       6.089   3.274  14.291  0.00  0.00    +0.000 C 
BRANCH  17  19
ATOM     18  N   UNL     1       5.017   2.980  12.126  0.00  0.00    +0.000 N 
ATOM     19  C   UNL     1       6.027   3.613  12.817  0.00  0.00    +0.000 C 
ATOM     20  O   UNL     1       6.829   4.395  12.299  0.00  0.00    +0.000 OA
ATOM     21  H   UNL     1       4.280   2.540  12.658  0.00  0.00    +0.000 HD
BRANCH  18  22
ATOM     22  C   UNL     1       4.773   3.234  10.724  0.00  0.00    +0.000 C 
BRANCH  22  24
ATOM     23  C   UNL     1       2.848   4.180   9.420  0.00  0.00    +0.000 C 
ATOM     24  C   UNL     1       3.392   3.805  10.583  0.00  0.00    +0.000 C 
ENDBRANCH  22  24
ENDBRANCH  18  22
ENDBRANCH  17  19
ENDBRANCH   1  17
TORSDOF 4
ENDMDL
MODEL 8
REMARK VINA RESULT:      -7.3      2.457      6.386
REMARK  Name = 
REMARK  4 active torsions:
REMARK  status: ('A' for Active; 'I' for Inactive)
REMARK    1  A    between atoms: C_2  and  C_3
REMARK    2  A    between atoms: C_3  and  N_4
REMARK    3  A    between atoms: C_5  and  C_7
REMARK    4  A    between atoms: C_7  and  C_8
REMARK                            x       y       z     vdW  Elec       q    Type
REMARK                         _______ _______ _______ _____ _____    ______ ____
ROOT
ATOM      1  C   UNL     1       4.525   3.610  18.400  0.00  0.00    +0.000 C 
ATOM      2  N   UNL     1       4.524   3.363  16.928  0.00  0.00    +0.000 NA
ATOM      3  C   UNL     1       5.436   4.170  16.473  0.00  0.00    +0.000 C 
ATOM      4  C   UNL     1       5.865   4.201  15.073  0.00  0.00    +0.000 A 
ATOM      5  C   UNL     1       5.176   3.515  14.073  0.00  0.00    +0.000 A 
ATOM      6  C   UNL     1       5.641   3.580  12.757  0.00  0.00    +0.000 A 
ATOM      7  C   UNL     1       6.811   4.282  12.459  0.00  0.00    +0.000 A 
ATOM      8  C   UNL     1       7.503   4.958  13.465  0.00  0.00    +0.000 A 
ATOM      9  C   UNL     1       6.999   4.948  14.765  0.00  0.00    +0.000 A 
ATOM     10  N   UNL     1       7.581   5.755  15.746  0.00  0.00    +0.000 N 
ATOM     11  C   UNL     1       7.033   5.936  17.000  0.00  0.00    +0.000 C 
ATOM     12  S   UNL     1       7.656   7.184  17.921  0.00  0.00    +0.000 S 
ATOM     13  N   UNL     1       6.011   5.043  17.348  0.00  0.00    +0.000 N 
ATOM     14  C   UNL     1       5.392   4.849  18.573  0.00  0.00    +0.000 C 
ATOM     15  O   UNL     1       5.493   5.489  19.605  0.00  0.00    +0.000 OA
ATOM     16  H   UNL     1       8.364   6.354  15.500  0.00  0.00    +0.000 HD
ENDROOT
BRANCH   1  17
ATOM     17  C   UNL     1       3.116   3.778  18.933  0.00  0.00    +0.000 C 
BRANCH  17  19
ATOM     18  N   UNL     1       2.758   6.083  18.239  0.00  0.00    +0.000 N 
ATOM     19  C   UNL     1       2.338   4.778  18.103  0.00  0.00    +0.000 C 
ATOM     20  O   UNL     1       1.407   4.427  17.375  0.00  0.00    +0.000 OA
ATOM     21  H   UNL     1       3.654   6.252  18.673  0.00  0.00    +0.000 HD
BRANCH  18  22
ATOM     22  C   UNL     1       2.169   7.160  17.475  0.00  0.00    +0.000 C 
BRANCH  22  24
ATOM     23  C   UNL     1       1.439   9.488  18.061  0.00  0.00    +0.000 C 
ATOM     24  C   UNL     1       2.156   8.392  18.331  0.00  0.00    +0.000 C 
ENDBRANCH  22  24
ENDBRANCH  18  22
ENDBRANCH  17  19
ENDBRANCH   1  17
TORSDOF 4
ENDMDL
MODEL 9
REMARK VINA RESULT:      -7.3      1.445      1.914
REMARK  Name = 
REMARK  4 active torsions:
REMARK  status: ('A' for Active; 'I' for Inactive)
REMARK    1  A    between atoms: C_2  and  C_3
REMARK    2  A    between atoms: C_3  and  N_4
REMARK    3  A    between atoms: C_5  and  C_7
REMARK    4  A    between atoms: C_7  and  C_8
REMARK                            x       y       z     vdW  Elec       q    Type
REMARK                         _______ _______ _______ _____ _____    ______ ____
ROOT
ATOM      1  C   UNL     1       4.025   6.431  16.937  0.00  0.00    +0.000 C 
ATOM      2  N   UNL     1       4.184   5.152  17.689  0.00  0.00    +0.000 NA
ATOM      3  C   UNL     1       3.465   5.325  18.758  0.00  0.00    +0.000 C 
ATOM      4  C   UNL     1       3.233   4.278  19.756  0.00  0.00    +0.000 A 
ATOM      5  C   UNL     1       3.942   3.077  19.747  0.00  0.00    +0.000 A 
ATOM      6  C   UNL     1       3.668   2.116  20.723  0.00  0.00    +0.000 A 
ATOM      7  C   UNL     1       2.660   2.338  21.665  0.00  0.00    +0.000 A 
ATOM      8  C   UNL     1       1.947   3.538  21.663  0.00  0.00    +0.000 A 
ATOM      9  C   UNL     1       2.268   4.523  20.730  0.00  0.00    +0.000 A 
ATOM     10  N   UNL     1       1.685   5.789  20.822  0.00  0.00    +0.000 N 
ATOM     11  C   UNL     1       2.084   6.863  20.052  0.00  0.00    +0.000 C 
ATOM     12  S   UNL     1       1.531   8.370  20.518  0.00  0.00    +0.000 S 
ATOM     13  N   UNL     1       2.912   6.554  18.965  0.00  0.00    +0.000 N 
ATOM     14  C   UNL     1       3.330   7.363  17.919  0.00  0.00    +0.000 C 
ATOM     15  O   UNL     1       3.188   8.562  17.760  0.00  0.00    +0.000 OA
ATOM     16  H   UNL     1       1.035   5.986  21.578  0.00  0.00    +0.000 HD
ENDROOT
BRANCH   1  17
ATOM     17  C   UNL     1       5.361   6.955  16.448  0.00  0.00    +0.000 C 
BRANCH  17  19
ATOM     18  N   UNL     1       5.707   4.972  15.081  0.00  0.00    +0.000 N 
ATOM     19  C   UNL     1       6.263   5.819  16.015  0.00  0.00    +0.000 C 
ATOM     20  O   UNL     1       7.399   5.683  16.476  0.00  0.00    +0.000 OA
ATOM     21  H   UNL     1       4.874   5.277  14.598  0.00  0.00    +0.000 HD
BRANCH  18  22
ATOM     22  C   UNL     1       6.448   3.870  14.509  0.00  0.00    +0.000 C 
BRANCH  22  24
ATOM     23  C   UNL     1       5.691   3.216  12.208  0.00  0.00    +0.000 C 
ATOM     24  C   UNL     1       6.410   4.003  13.015  0.00  0.00    +0.000 C 
ENDBRANCH  22  24
ENDBRANCH  18  22
ENDBRANCH  17  19
ENDBRANCH   1  17
TORSDOF 4
ENDMDL
