MODEL 1
REMARK VINA RESULT:      -7.8      0.000      0.000
REMARK  Name = 
REMARK  6 active torsions:
REMARK  status: ('A' for Active; 'I' for Inactive)
REMARK    1  A    between atoms: C_2  and  C_3
REMARK    2  A    between atoms: N_5  and  C_6
REMARK    3  A    between atoms: C_9  and  C_10
REMARK    4  A    between atoms: C_10  and  O_12
REMARK    5  A    between atoms: C_13  and  O_14
REMARK    6  A    between atoms: C_17  and  C_18
REMARK                            x       y       z     vdW  Elec       q    Type
REMARK                         _______ _______ _______ _____ _____    ______ ____
ROOT
ATOM      1  C   UNL     1       2.889   4.962  19.844  0.00  0.00    +0.000 A 
ATOM      2  C   UNL     1       2.029   5.850  20.458  0.00  0.00    +0.000 A 
ATOM      3  N   UNL     1       2.195   7.106  19.910  0.00  0.00    +0.000 N 
ATOM      4  C   UNL     1       3.167   6.994  18.935  0.00  0.00    +0.000 A 
ATOM      5  C   UNL     1       3.642   5.693  18.889  0.00  0.00    +0.000 A 
ENDROOT
BRANCH   5   6
ATOM      6  C   UNL     1       4.707   5.279  17.984  0.00  0.00    +0.000 A 
ATOM      7  C   UNL     1       4.466   5.156  16.607  0.00  0.00    +0.000 A 
ATOM      8  C   UNL     1       5.486   4.763  15.748  0.00  0.00    +0.000 A 
ATOM      9  F   UNL     1       5.232   4.648  14.439  0.00  0.00    +0.000 F 
ATOM     10  C   UNL     1       6.760   4.491  16.224  0.00  0.00    +0.000 A 
ATOM     11  C   UNL     1       7.000   4.619  17.582  0.00  0.00    +0.000 A 
ATOM     12  F   UNL     1       8.223   4.362  18.062  0.00  0.00    +0.000 F 
ATOM     13  C   UNL     1       5.993   5.003  18.463  0.00  0.00    +0.000 A 
ENDBRANCH   5   6
BRANCH   3  14
ATOM     14  C   UNL     1       1.496   8.296  20.283  0.00  0.00    +0.000 A 
ATOM     15  C   UNL     1       1.120   9.224  19.301  0.00  0.00    +0.000 A 
ATOM     16  C   UNL     1       0.437  10.389  19.652  0.00  0.00    +0.000 A 
ATOM     17  C   UNL     1       0.127  10.664  20.985  0.00  0.00    +0.000 A 
ATOM     18  C   UNL     1       0.522   9.747  21.971  0.00  0.00    +0.000 A 
ATOM     19  C   UNL     1       1.182   8.566  21.625  0.00  0.00    +0.000 A 
BRANCH  17  20
ATOM     20  C   UNL     1      -0.567  11.940  21.270  0.00  0.00    +0.000 C 
ATOM     21  O   UNL     1      -1.614  12.242  20.729  0.00  0.00    +0.000 OA
BRANCH  20  22
ATOM     22  O   UNL     1       0.044  12.712  22.191  0.00  0.00    +0.000 OA
ATOM     23  H   UNL     1       0.259  12.251  23.025  0.00  0.00    +0.000 HD
ENDBRANCH  20  22
ENDBRANCH  17  20
BRANCH  18  24
ATOM     24  O   UNL     1       0.302   9.971  23.298  0.00  0.00    +0.000 OA
ATOM     25  H   UNL     1      -0.582  10.383  23.382  0.00  0.00    +0.000 HD
ENDBRANCH  18  24
ENDBRANCH   3  14
BRANCH   1  27
ATOM     26  N   UNL     1       3.003   2.447  20.462  0.00  0.00    +0.000 NA
ATOM     27  C   UNL     1       2.965   3.571  20.174  0.00  0.00    +0.000 C 
ENDBRANCH   1  27
TORSDOF 6
ENDMDL
MODEL 2
REMARK VINA RESULT:      -7.8      0.759      1.458
REMARK  Name = 
REMARK  6 active torsions:
REMARK  status: ('A' for Active; 'I' for Inactive)
REMARK    1  A    between atoms: C_2  and  C_3
REMARK    2  A    between atoms: N_5  and  C_6
REMARK    3  A    between atoms: C_9  and  C_10
REMARK    4  A    between atoms: C_10  and  O_12
REMARK    5  A    between atoms: C_13  and  O_14
REMARK    6  A    between atoms: C_17  and  C_18
REMARK                            x       y       z     vdW  Elec       q    Type
REMARK                         _______ _______ _______ _____ _____    ______ ____
ROOT
ATOM      1  C   UNL     1       3.112   4.880  19.592  0.00  0.00    +0.000 A 
ATOM      2  C   UNL     1       2.241   5.769  20.189  0.00  0.00    +0.000 A 
ATOM      3  N   UNL     1       2.356   7.004  19.583  0.00  0.00    +0.000 N 
ATOM      4  C   UNL     1       3.308   6.877  18.590  0.00  0.00    +0.000 A 
ATOM      5  C   UNL     1       3.820   5.590  18.588  0.00  0.00    +0.000 A 
ENDROOT
BRANCH   5   6
ATOM      6  C   UNL     1       4.876   5.166  17.676  0.00  0.00    +0.000 A 
ATOM      7  C   UNL     1       4.626   5.053  16.300  0.00  0.00    +0.000 A 
ATOM      8  C   UNL     1       5.637   4.652  15.433  0.00  0.00    +0.000 A 
ATOM      9  F   UNL     1       5.375   4.546  14.125  0.00  0.00    +0.000 F 
ATOM     10  C   UNL     1       6.909   4.362  15.901  0.00  0.00    +0.000 A 
ATOM     11  C   UNL     1       7.158   4.479  17.259  0.00  0.00    +0.000 A 
ATOM     12  F   UNL     1       8.380   4.204  17.731  0.00  0.00    +0.000 F 
ATOM     13  C   UNL     1       6.160   4.872  18.147  0.00  0.00    +0.000 A 
ENDBRANCH   5   6
BRANCH   3  14
ATOM     14  C   UNL     1       1.632   8.188  19.921  0.00  0.00    +0.000 A 
ATOM     15  C   UNL     1       1.182   8.384  21.235  0.00  0.00    +0.000 A 
ATOM     16  C   UNL     1       0.474   9.536  21.578  0.00  0.00    +0.000 A 
ATOM     17  C   UNL     1       0.185  10.511  20.621  0.00  0.00    +0.000 A 
ATOM     18  C   UNL     1       0.616  10.307  19.302  0.00  0.00    +0.000 A 
ATOM     19  C   UNL     1       1.349   9.170  18.957  0.00  0.00    +0.000 A 
BRANCH  17  20
ATOM     20  C   UNL     1      -0.601  11.684  21.065  0.00  0.00    +0.000 C 
ATOM     21  O   UNL     1      -1.566  12.088  20.443  0.00  0.00    +0.000 OA
BRANCH  20  22
ATOM     22  O   UNL     1      -0.174  12.237  22.217  0.00  0.00    +0.000 OA
ATOM     23  H   UNL     1       0.762  12.056  22.428  0.00  0.00    +0.000 HD
ENDBRANCH  20  22
ENDBRANCH  17  20
BRANCH  18  24
ATOM     24  O   UNL     1       0.328  11.188  18.301  0.00  0.00    +0.000 OA
ATOM     25  H   UNL     1       0.246  10.673  17.473  0.00  0.00    +0.000 HD
ENDBRANCH  18  24
ENDBRANCH   3  14
BRANCH   1  27
ATOM     26  N   UNL     1       3.369   2.395  20.287  0.00  0.00    +0.000 NA
ATOM     27  C   UNL     1       3.237   3.508  19.981  0.00  0.00    +0.000 C 
ENDBRANCH   1  27
TORSDOF 6
ENDMDL
MODEL 3
REMARK VINA RESULT:      -7.8      0.303      1.766
REMARK  Name = 
REMARK  6 active torsions:
REMARK  status: ('A' for Active; 'I' for Inactive)
REMARK    1  A    between atoms: C_2  and  C_3
REMARK    2  A    between atoms: N_5  and  C_6
REMARK    3  A    between atoms: C_9  and  C_10
REMARK    4  A    between atoms: C_10  and  O_12
REMARK    5  A    between atoms: C_13  and  O_14
REMARK    6  A    between atoms: C_17  and  C_18
REMARK                            x       y       z     vdW  Elec       q    Type
REMARK                         _______ _______ _______ _____ _____    ______ ____
ROOT
ATOM      1  C   UNL     1       2.745   4.897  19.825  0.00  0.00    +0.000 A 
ATOM      2  C   UNL     1       1.901   5.769  20.482  0.00  0.00    +0.000 A 
ATOM      3  N   UNL     1       2.132   7.056  20.039  0.00  0.00    +0.000 N 
ATOM      4  C   UNL     1       3.130   6.980  19.086  0.00  0.00    +0.000 A 
ATOM      5  C   UNL     1       3.556   5.669  18.952  0.00  0.00    +0.000 A 
ENDROOT
BRANCH   5   6
ATOM      6  C   UNL     1       4.632   5.282  18.048  0.00  0.00    +0.000 A 
ATOM      7  C   UNL     1       5.928   5.059  18.537  0.00  0.00    +0.000 A 
ATOM      8  C   UNL     1       6.951   4.687  17.672  0.00  0.00    +0.000 A 
ATOM      9  F   UNL     1       8.181   4.485  18.160  0.00  0.00    +0.000 F 
ATOM     10  C   UNL     1       6.718   4.520  16.316  0.00  0.00    +0.000 A 
ATOM     11  C   UNL     1       5.436   4.733  15.833  0.00  0.00    +0.000 A 
ATOM     12  F   UNL     1       5.190   4.576  14.527  0.00  0.00    +0.000 F 
ATOM     13  C   UNL     1       4.398   5.113  16.678  0.00  0.00    +0.000 A 
ENDBRANCH   5   6
BRANCH   3  14
ATOM     14  C   UNL     1       1.469   8.241  20.484  0.00  0.00    +0.000 A 
ATOM     15  C   UNL     1       1.118   9.237  19.560  0.00  0.00    +0.000 A 
ATOM     16  C   UNL     1       0.469  10.398  19.982  0.00  0.00    +0.000 A 
ATOM     17  C   UNL     1       0.169  10.601  21.329  0.00  0.00    +0.000 A 
ATOM     18  C   UNL     1       0.538   9.617  22.258  0.00  0.00    +0.000 A 
ATOM     19  C   UNL     1       1.163   8.440  21.840  0.00  0.00    +0.000 A 
BRANCH  17  20
ATOM     20  C   UNL     1      -0.488  11.877  21.692  0.00  0.00    +0.000 C 
ATOM     21  O   UNL     1      -0.431  12.338  22.817  0.00  0.00    +0.000 OA
BRANCH  20  22
ATOM     22  O   UNL     1      -1.122  12.487  20.670  0.00  0.00    +0.000 OA
ATOM     23  H   UNL     1      -1.350  11.895  19.927  0.00  0.00    +0.000 HD
ENDBRANCH  20  22
ENDBRANCH  17  20
BRANCH  18  24
ATOM     24  O   UNL     1       0.326   9.767  23.596  0.00  0.00    +0.000 OA
ATOM     25  H   UNL     1       1.195   9.687  24.041  0.00  0.00    +0.000 HD
ENDBRANCH  18  24
ENDBRANCH   3  14
BRANCH   1  27
ATOM     26  N   UNL     1       2.790   2.333  20.206  0.00  0.00    +0.000 NA
ATOM     27  C   UNL     1       2.758   3.483  20.048  0.00  0.00    +0.000 C 
ENDBRANCH   1  27
TORSDOF 6
ENDMDL
MODEL 4
REMARK VINA RESULT:      -7.7      0.752      2.195
REMARK  Name = 
REMARK  6 active torsions:
REMARK  status: ('A' for Active; 'I' for Inactive)
REMARK    1  A    between atoms: C_2  and  C_3
REMARK    2  A    between atoms: N_5  and  C_6
REMARK    3  A    between atoms: C_9  and  C_10
REMARK    4  A    between atoms: C_10  and  O_12
REMARK    5  A    between atoms: C_13  and  O_14
REMARK    6  A    between atoms: C_17  and  C_18
REMARK                            x       y       z     vdW  Elec       q    Type
REMARK                         _______ _______ _______ _____ _____    ______ ____
ROOT
ATOM      1  C   UNL     1       3.087   4.889  19.590  0.00  0.00    +0.000 A 
ATOM      2  C   UNL     1       2.216   5.784  20.179  0.00  0.00    +0.000 A 
ATOM      3  N   UNL     1       2.356   7.022  19.584  0.00  0.00    +0.000 N 
ATOM      4  C   UNL     1       3.324   6.890  18.606  0.00  0.00    +0.000 A 
ATOM      5  C   UNL     1       3.821   5.597  18.604  0.00  0.00    +0.000 A 
ENDROOT
BRANCH   5   6
ATOM      6  C   UNL     1       4.887   5.167  17.707  0.00  0.00    +0.000 A 
ATOM      7  C   UNL     1       6.171   4.895  18.205  0.00  0.00    +0.000 A 
ATOM      8  C   UNL     1       7.184   4.483  17.346  0.00  0.00    +0.000 A 
ATOM      9  F   UNL     1       8.402   4.234  17.842  0.00  0.00    +0.000 F 
ATOM     10  C   UNL     1       6.952   4.323  15.989  0.00  0.00    +0.000 A 
ATOM     11  C   UNL     1       5.683   4.584  15.498  0.00  0.00    +0.000 A 
ATOM     12  F   UNL     1       5.439   4.435  14.191  0.00  0.00    +0.000 F 
ATOM     13  C   UNL     1       4.655   5.006  16.337  0.00  0.00    +0.000 A 
ENDBRANCH   5   6
BRANCH   3  14
ATOM     14  C   UNL     1       1.640   8.212  19.918  0.00  0.00    +0.000 A 
ATOM     15  C   UNL     1       1.211   8.426  21.236  0.00  0.00    +0.000 A 
ATOM     16  C   UNL     1       0.511   9.584  21.575  0.00  0.00    +0.000 A 
ATOM     17  C   UNL     1       0.210  10.547  20.611  0.00  0.00    +0.000 A 
ATOM     18  C   UNL     1       0.619  10.325  19.287  0.00  0.00    +0.000 A 
ATOM     19  C   UNL     1       1.344   9.181  18.945  0.00  0.00    +0.000 A 
BRANCH  17  20
ATOM     20  C   UNL     1      -0.567  11.727  21.051  0.00  0.00    +0.000 C 
ATOM     21  O   UNL     1      -1.505  12.161  20.408  0.00  0.00    +0.000 OA
BRANCH  20  22
ATOM     22  O   UNL     1      -0.164  12.252  22.226  0.00  0.00    +0.000 OA
ATOM     23  H   UNL     1       0.442  13.014  22.140  0.00  0.00    +0.000 HD
ENDBRANCH  20  22
ENDBRANCH  17  20
BRANCH  18  24
ATOM     24  O   UNL     1       0.317  11.194  18.280  0.00  0.00    +0.000 OA
ATOM     25  H   UNL     1      -0.646  11.365  18.321  0.00  0.00    +0.000 HD
ENDBRANCH  18  24
ENDBRANCH   3  14
BRANCH   1  27
ATOM     26  N   UNL     1       3.296   2.392  20.260  0.00  0.00    +0.000 NA
ATOM     27  C   UNL     1       3.189   3.512  19.971  0.00  0.00    +0.000 C 
ENDBRANCH   1  27
TORSDOF 6
ENDMDL
MODEL 5
REMARK VINA RESULT:      -7.6      5.207      8.299
REMARK  Name = 
REMARK  6 active torsions:
REMARK  status: ('A' for Active; 'I' for Inactive)
REMARK    1  A    between atoms: C_2  and  C_3
REMARK    2  A    between atoms: N_5  and  C_6
REMARK    3  A    between atoms: C_9  and  C_10
REMARK    4  A    between atoms: C_10  and  O_12
REMARK    5  A    between atoms: C_13  and  O_14
REMARK    6  A    between atoms: C_17  and  C_18
REMARK                            x       y       z     vdW  Elec       q    Type
REMARK                         _______ _______ _______ _____ _____    ______ ____
ROOT
ATOM      1  C   UNL     1       1.245   8.446  20.165  0.00  0.00    +0.000 A 
ATOM      2  C   UNL     1       2.141   7.422  19.935  0.00  0.00    +0.000 A 
ATOM      3  N   UNL     1       2.743   7.604  18.706  0.00  0.00    +0.000 N 
ATOM      4  C   UNL     1       2.216   8.762  18.168  0.00  0.00    +0.000 A 
ATOM      5  C   UNL     1       1.264   9.291  19.025  0.00  0.00    +0.000 A 
ENDROOT
BRANCH   5   6
ATOM      6  C   UNL     1       0.504  10.493  18.707  0.00  0.00    +0.000 A 
ATOM      7  C   UNL     1      -0.822  10.399  18.256  0.00  0.00    +0.000 A 
ATOM      8  C   UNL     1      -1.545  11.549  17.957  0.00  0.00    +0.000 A 
ATOM      9  F   UNL     1      -2.805  11.436  17.522  0.00  0.00    +0.000 F 
ATOM     10  C   UNL     1      -0.983  12.808  18.104  0.00  0.00    +0.000 A 
ATOM     11  C   UNL     1       0.323  12.901  18.556  0.00  0.00    +0.000 A 
ATOM     12  F   UNL     1       0.885  14.108  18.706  0.00  0.00    +0.000 F 
ATOM     13  C   UNL     1       1.070  11.765  18.854  0.00  0.00    +0.000 A 
ENDBRANCH   5   6
BRANCH   3  14
ATOM     14  C   UNL     1       3.720   6.753  18.103  0.00  0.00    +0.000 A 
ATOM     15  C   UNL     1       4.195   7.035  16.814  0.00  0.00    +0.000 A 
ATOM     16  C   UNL     1       5.150   6.213  16.215  0.00  0.00    +0.000 A 
ATOM     17  C   UNL     1       5.642   5.087  16.876  0.00  0.00    +0.000 A 
ATOM     18  C   UNL     1       5.152   4.791  18.157  0.00  0.00    +0.000 A 
ATOM     19  C   UNL     1       4.217   5.624  18.774  0.00  0.00    +0.000 A 
BRANCH  17  20
ATOM     20  C   UNL     1       6.625   4.251  16.152  0.00  0.00    +0.000 C 
ATOM     21  O   UNL     1       6.384   3.765  15.062  0.00  0.00    +0.000 OA
BRANCH  20  22
ATOM     22  O   UNL     1       7.805   4.103  16.786  0.00  0.00    +0.000 OA
ATOM     23  H   UNL     1       8.018   3.182  17.031  0.00  0.00    +0.000 HD
ENDBRANCH  20  22
ENDBRANCH  17  20
BRANCH  18  24
ATOM     24  O   UNL     1       5.545   3.680  18.844  0.00  0.00    +0.000 OA
ATOM     25  H   UNL     1       6.516   3.732  18.953  0.00  0.00    +0.000 HD
ENDBRANCH  18  24
ENDBRANCH   3  14
BRANCH   1  27
ATOM     26  N   UNL     1      -0.162   8.635  22.335  0.00  0.00    +0.000 NA
ATOM     27  C   UNL     1       0.456   8.561  21.355  0.00  0.00    +0.000 C 
ENDBRANCH   1  27
TORSDOF 6
ENDMDL
MODEL 6
REMARK VINA RESULT:      -7.5      5.041      8.172
REMARK  Name = 
REMARK  6 active torsions:
REMARK  status: ('A' for Active; 'I' for Inactive)
REMARK    1  A    between atoms: C_2  and  C_3
REMARK    2  A    between atoms: N_5  and  C_6
REMARK    3  A    between atoms: C_9  and  C_10
REMARK    4  A    between atoms: C_10  and  O_12
REMARK    5  A    between atoms: C_13  and  O_14
REMARK    6  A    between atoms: C_17  and  C_18
REMARK                            x       y       z     vdW  Elec       q    Type
REMARK                         _______ _______ _______ _____ _____    ______ ____
ROOT
ATOM      1  C   UNL     1       0.639   9.130  21.460  0.00  0.00    +0.000 A 
ATOM      2  C   UNL     1       1.172   7.862  21.577  0.00  0.00    +0.000 A 
ATOM      3  N   UNL     1       1.644   7.446  20.348  0.00  0.00    +0.000 N 
ATOM      4  C   UNL     1       1.405   8.474  19.457  0.00  0.00    +0.000 A 
ATOM      5  C   UNL     1       0.757   9.516  20.100  0.00  0.00    +0.000 A 
ENDROOT
BRANCH   5   6
ATOM      6  C   UNL     1       0.335  10.726  19.405  0.00  0.00    +0.000 A 
ATOM      7  C   UNL     1      -0.931  10.798  18.803  0.00  0.00    +0.000 A 
ATOM      8  C   UNL     1      -1.330  11.955  18.144  0.00  0.00    +0.000 A 
ATOM      9  F   UNL     1      -2.539  12.000  17.572  0.00  0.00    +0.000 F 
ATOM     10  C   UNL     1      -0.499  13.062  18.071  0.00  0.00    +0.000 A 
ATOM     11  C   UNL     1       0.749  12.994  18.671  0.00  0.00    +0.000 A 
ATOM     12  F   UNL     1       1.567  14.052  18.613  0.00  0.00    +0.000 F 
ATOM     13  C   UNL     1       1.174  11.843  19.330  0.00  0.00    +0.000 A 
ENDBRANCH   5   6
BRANCH   3  14
ATOM     14  C   UNL     1       2.258   6.190  20.054  0.00  0.00    +0.000 A 
ATOM     15  C   UNL     1       1.684   5.001  20.528  0.00  0.00    +0.000 A 
ATOM     16  C   UNL     1       2.274   3.767  20.247  0.00  0.00    +0.000 A 
ATOM     17  C   UNL     1       3.452   3.690  19.503  0.00  0.00    +0.000 A 
ATOM     18  C   UNL     1       4.039   4.879  19.047  0.00  0.00    +0.000 A 
ATOM     19  C   UNL     1       3.441   6.115  19.301  0.00  0.00    +0.000 A 
BRANCH  17  20
ATOM     20  C   UNL     1       4.027   2.344  19.284  0.00  0.00    +0.000 C 
ATOM     21  O   UNL     1       3.483   1.515  18.578  0.00  0.00    +0.000 OA
BRANCH  20  22
ATOM     22  O   UNL     1       5.205   2.133  19.905  0.00  0.00    +0.000 OA
ATOM     23  H   UNL     1       5.353   1.209  20.184  0.00  0.00    +0.000 HD
ENDBRANCH  20  22
ENDBRANCH  17  20
BRANCH  18  24
ATOM     24  O   UNL     1       5.217   4.888  18.360  0.00  0.00    +0.000 OA
ATOM     25  H   UNL     1       5.018   5.170  17.443  0.00  0.00    +0.000 HD
ENDBRANCH  18  24
ENDBRANCH   3  14
BRANCH   1  27
ATOM     26  N   UNL     1      -0.376  10.428  23.462  0.00  0.00    +0.000 NA
ATOM     27  C   UNL     1       0.069   9.856  22.555  0.00  0.00    +0.000 C 
ENDBRANCH   1  27
TORSDOF 6
ENDMDL
MODEL 7
REMARK VINA RESULT:      -7.5      5.187      8.391
REMARK  Name = 
REMARK  6 active torsions:
REMARK  status: ('A' for Active; 'I' for Inactive)
REMARK    1  A    between atoms: C_2  and  C_3
REMARK    2  A    between atoms: N_5  and  C_6
REMARK    3  A    between atoms: C_9  and  C_10
REMARK    4  A    between atoms: C_10  and  O_12
REMARK    5  A    between atoms: C_13  and  O_14
REMARK    6  A    between atoms: C_17  and  C_18
REMARK                            x       y       z     vdW  Elec       q    Type
REMARK                         _______ _______ _______ _____ _____    ______ ____
ROOT
ATOM      1  C   UNL     1       1.239   8.431  20.211  0.00  0.00    +0.000 A 
ATOM      2  C   UNL     1       2.229   7.486  20.035  0.00  0.00    +0.000 A 
ATOM      3  N   UNL     1       2.694   7.542  18.736  0.00  0.00    +0.000 N 
ATOM      4  C   UNL     1       1.985   8.543  18.099  0.00  0.00    +0.000 A 
ATOM      5  C   UNL     1       1.055   9.090  18.967  0.00  0.00    +0.000 A 
ENDROOT
BRANCH   5   6
ATOM      6  C   UNL     1       0.129  10.142  18.565  0.00  0.00    +0.000 A 
ATOM      7  C   UNL     1       0.393  11.483  18.881  0.00  0.00    +0.000 A 
ATOM      8  C   UNL     1      -0.492  12.483  18.493  0.00  0.00    +0.000 A 
ATOM      9  F   UNL     1      -0.224  13.755  18.810  0.00  0.00    +0.000 F 
ATOM     10  C   UNL     1      -1.645  12.184  17.783  0.00  0.00    +0.000 A 
ATOM     11  C   UNL     1      -1.902  10.860  17.465  0.00  0.00    +0.000 A 
ATOM     12  F   UNL     1      -3.009  10.551  16.779  0.00  0.00    +0.000 F 
ATOM     13  C   UNL     1      -1.035   9.841  17.849  0.00  0.00    +0.000 A 
ENDBRANCH   5   6
BRANCH   3  14
ATOM     14  C   UNL     1       3.710   6.720  18.160  0.00  0.00    +0.000 A 
ATOM     15  C   UNL     1       4.211   7.015  16.883  0.00  0.00    +0.000 A 
ATOM     16  C   UNL     1       5.204   6.220  16.309  0.00  0.00    +0.000 A 
ATOM     17  C   UNL     1       5.710   5.109  16.984  0.00  0.00    +0.000 A 
ATOM     18  C   UNL     1       5.196   4.799  18.252  0.00  0.00    +0.000 A 
ATOM     19  C   UNL     1       4.221   5.605  18.844  0.00  0.00    +0.000 A 
BRANCH  17  20
ATOM     20  C   UNL     1       6.736   4.302  16.286  0.00  0.00    +0.000 C 
ATOM     21  O   UNL     1       6.554   3.847  15.172  0.00  0.00    +0.000 OA
BRANCH  20  22
ATOM     22  O   UNL     1       7.884   4.143  16.975  0.00  0.00    +0.000 OA
ATOM     23  H   UNL     1       7.776   4.161  17.947  0.00  0.00    +0.000 HD
ENDBRANCH  20  22
ENDBRANCH  17  20
BRANCH  18  24
ATOM     24  O   UNL     1       5.602   3.700  18.950  0.00  0.00    +0.000 OA
ATOM     25  H   UNL     1       6.118   3.138  18.337  0.00  0.00    +0.000 HD
ENDBRANCH  18  24
ENDBRANCH   3  14
BRANCH   1  27
ATOM     26  N   UNL     1      -0.021   8.780  22.450  0.00  0.00    +0.000 NA
ATOM     27  C   UNL     1       0.550   8.639  21.449  0.00  0.00    +0.000 C 
ENDBRANCH   1  27
TORSDOF 6
ENDMDL
MODEL 8
REMARK VINA RESULT:      -7.5      1.260      1.317
REMARK  Name = 
REMARK  6 active torsions:
REMARK  status: ('A' for Active; 'I' for Inactive)
REMARK    1  A    between atoms: C_2  and  C_3
REMARK    2  A    between atoms: N_5  and  C_6
REMARK    3  A    between atoms: C_9  and  C_10
REMARK    4  A    between atoms: C_10  and  O_12
REMARK    5  A    between atoms: C_13  and  O_14
REMARK    6  A    between atoms: C_17  and  C_18
REMARK                            x       y       z     vdW  Elec       q    Type
REMARK                         _______ _______ _______ _____ _____    ______ ____
ROOT
ATOM      1  C   UNL     1       2.666   4.933  17.973  0.00  0.00    +0.000 A 
ATOM      2  C   UNL     1       1.788   5.800  18.591  0.00  0.00    +0.000 A 
ATOM      3  N   UNL     1       2.340   7.066  18.628  0.00  0.00    +0.000 N 
ATOM      4  C   UNL     1       3.576   6.982  18.016  0.00  0.00    +0.000 A 
ATOM      5  C   UNL     1       3.825   5.676  17.630  0.00  0.00    +0.000 A 
ENDROOT
BRANCH   5   6
ATOM      6  C   UNL     1       5.073   5.269  16.995  0.00  0.00    +0.000 A 
ATOM      7  C   UNL     1       5.187   5.249  15.596  0.00  0.00    +0.000 A 
ATOM      8  C   UNL     1       6.380   4.863  14.995  0.00  0.00    +0.000 A 
ATOM      9  F   UNL     1       6.465   4.845  13.659  0.00  0.00    +0.000 F 
ATOM     10  C   UNL     1       7.482   4.500  15.755  0.00  0.00    +0.000 A 
ATOM     11  C   UNL     1       7.371   4.527  17.136  0.00  0.00    +0.000 A 
ATOM     12  F   UNL     1       8.423   4.181  17.888  0.00  0.00    +0.000 F 
ATOM     13  C   UNL     1       6.185   4.902  17.760  0.00  0.00    +0.000 A 
ENDBRANCH   5   6
BRANCH   3  14
ATOM     14  C   UNL     1       1.747   8.236  19.193  0.00  0.00    +0.000 A 
ATOM     15  C   UNL     1       1.361   9.298  18.362  0.00  0.00    +0.000 A 
ATOM     16  C   UNL     1       0.780  10.446  18.903  0.00  0.00    +0.000 A 
ATOM     17  C   UNL     1       0.585  10.570  20.279  0.00  0.00    +0.000 A 
ATOM     18  C   UNL     1       0.991   9.519  21.114  0.00  0.00    +0.000 A 
ATOM     19  C   UNL     1       1.547   8.355  20.578  0.00  0.00    +0.000 A 
BRANCH  17  20
ATOM     20  C   UNL     1      -0.004  11.837  20.768  0.00  0.00    +0.000 C 
ATOM     21  O   UNL     1      -1.071  12.255  20.357  0.00  0.00    +0.000 OA
BRANCH  20  22
ATOM     22  O   UNL     1       0.724  12.461  21.715  0.00  0.00    +0.000 OA
ATOM     23  H   UNL     1       0.542  12.158  22.627  0.00  0.00    +0.000 HD
ENDBRANCH  20  22
ENDBRANCH  17  20
BRANCH  18  24
ATOM     24  O   UNL     1       0.881   9.588  22.471  0.00  0.00    +0.000 OA
ATOM     25  H   UNL     1       1.057   8.692  22.825  0.00  0.00    +0.000 HD
ENDBRANCH  18  24
ENDBRANCH   3  14
BRANCH   1  27
ATOM     26  N   UNL     1       2.170   2.420  17.568  0.00  0.00    +0.000 NA
ATOM     27  C   UNL     1       2.395   3.542  17.766  0.00  0.00    +0.000 C 
ENDBRANCH   1  27
TORSDOF 6
ENDMDL
MODEL 9
REMARK VINA RESULT:      -7.5      1.508      2.048
REMARK  Name = 
REMARK  6 active torsions:
REMARK  status: ('A' for Active; 'I' for Inactive)
REMARK    1  A    between atoms: C_2  and  C_3
REMARK    2  A    between atoms: N_5  and  C_6
REMARK    3  A    between atoms: C_9  and  C_10
REMARK    4  A    between atoms: C_10  and  O_12
REMARK    5  A    between atoms: C_13  and  O_14
REMARK    6  A    between atoms: C_17  and  C_18
REMARK                            x       y       z     vdW  Elec       q    Type
REMARK                         _______ _______ _______ _____ _____    ______ ____
ROOT
ATOM      1  C   UNL     1       2.654   5.113  17.886  0.00  0.00    +0.000 A 
ATOM      2  C   UNL     1       1.796   6.023  18.471  0.00  0.00    +0.000 A 
ATOM      3  N   UNL     1       2.382   7.273  18.473  0.00  0.00    +0.000 N 
ATOM      4  C   UNL     1       3.620   7.137  17.873  0.00  0.00    +0.000 A 
ATOM      5  C   UNL     1       3.836   5.813  17.529  0.00  0.00    +0.000 A 
ENDROOT
BRANCH   5   6
ATOM      6  C   UNL     1       5.076   5.354  16.915  0.00  0.00    +0.000 A 
ATOM      7  C   UNL     1       5.200   5.292  15.519  0.00  0.00    +0.000 A 
ATOM      8  C   UNL     1       6.386   4.856  14.938  0.00  0.00    +0.000 A 
ATOM      9  F   UNL     1       6.481   4.799  13.605  0.00  0.00    +0.000 F 
ATOM     10  C   UNL     1       7.470   4.482  15.717  0.00  0.00    +0.000 A 
ATOM     11  C   UNL     1       7.351   4.550  17.096  0.00  0.00    +0.000 A 
ATOM     12  F   UNL     1       8.386   4.194  17.866  0.00  0.00    +0.000 F 
ATOM     13  C   UNL     1       6.171   4.975  17.700  0.00  0.00    +0.000 A 
ENDBRANCH   5   6
BRANCH   3  14
ATOM     14  C   UNL     1       1.818   8.476  18.999  0.00  0.00    +0.000 A 
ATOM     15  C   UNL     1       1.270   8.487  20.290  0.00  0.00    +0.000 A 
ATOM     16  C   UNL     1       0.716   9.656  20.814  0.00  0.00    +0.000 A 
ATOM     17  C   UNL     1       0.682  10.832  20.064  0.00  0.00    +0.000 A 
ATOM     18  C   UNL     1       1.210  10.817  18.764  0.00  0.00    +0.000 A 
ATOM     19  C   UNL     1       1.790   9.659  18.242  0.00  0.00    +0.000 A 
BRANCH  17  20
ATOM     20  C   UNL     1       0.044  12.014  20.686  0.00  0.00    +0.000 C 
ATOM     21  O   UNL     1      -0.688  12.758  20.060  0.00  0.00    +0.000 OA
BRANCH  20  22
ATOM     22  O   UNL     1       0.320  12.171  21.996  0.00  0.00    +0.000 OA
ATOM     23  H   UNL     1      -0.173  11.569  22.586  0.00  0.00    +0.000 HD
ENDBRANCH  20  22
ENDBRANCH  17  20
BRANCH  18  24
ATOM     24  O   UNL     1       1.166  11.911  17.952  0.00  0.00    +0.000 OA
ATOM     25  H   UNL     1       0.543  12.549  18.355  0.00  0.00    +0.000 HD
ENDBRANCH  18  24
ENDBRANCH   3  14
BRANCH   1  27
ATOM     26  N   UNL     1       2.085   2.605  17.557  0.00  0.00    +0.000 NA
ATOM     27  C   UNL     1       2.347   3.724  17.719  0.00  0.00    +0.000 C 
ENDBRANCH   1  27
TORSDOF 6
ENDMDL
