MODEL 1
REMARK VINA RESULT:      -6.2      0.000      0.000
REMARK  Name = 
REMARK  8 active torsions:
REMARK  status: ('A' for Active; 'I' for Inactive)
REMARK    1  A    between atoms: C_1  and  O_2
REMARK    2  A    between atoms: O_2  and  C_3
REMARK    3  A    between atoms: C_6  and  C_7
REMARK    4  A    between atoms: C_7  and  C_8
REMARK    5  A    between atoms: C_8  and  N_9
REMARK    6  A    between atoms: C_10  and  C_12
REMARK    7  A    between atoms: C_16  and  O_17
REMARK    8  A    between atoms: O_17  and  C_18
REMARK                            x       y       z     vdW  Elec       q    Type
REMARK                         _______ _______ _______ _____ _____    ______ ____
ROOT
ATOM      1  C   UNL     1       2.019   7.075  20.109  0.00  0.00    +0.000 A 
ATOM      2  C   UNL     1       1.702   5.759  20.481  0.00  0.00    +0.000 A 
ATOM      3  C   UNL     1       1.924   4.690  19.608  0.00  0.00    +0.000 A 
ATOM      4  C   UNL     1       2.439   4.918  18.331  0.00  0.00    +0.000 A 
ATOM      5  C   UNL     1       2.617   6.247  17.924  0.00  0.00    +0.000 A 
ATOM      6  C   UNL     1       2.424   7.330  18.794  0.00  0.00    +0.000 A 
ENDROOT
BRANCH   1   8
ATOM      7  C   UNL     1       0.571   8.483  21.331  0.00  0.00    +0.000 C 
ATOM      8  O   UNL     1       1.909   8.105  21.003  0.00  0.00    +0.000 OA
ENDBRANCH   1   8
BRANCH   6   9
ATOM      9  O   UNL     1       2.707   8.519  18.181  0.00  0.00    +0.000 OA
ATOM     10  C   UNL     1       1.645   9.384  17.819  0.00  0.00    +0.000 C 
ENDBRANCH   6   9
BRANCH   4  11
ATOM     11  C   UNL     1       2.765   3.749  17.427  0.00  0.00    +0.000 C 
BRANCH  11  12
ATOM     12  C   UNL     1       4.097   3.063  17.754  0.00  0.00    +0.000 C 
BRANCH  12  13
ATOM     13  N   UNL     1       5.246   3.842  17.350  0.00  0.00    +0.000 N 
ATOM     14  C   UNL     1       6.012   4.516  18.266  0.00  0.00    +0.000 C 
ATOM     15  O   UNL     1       5.864   4.458  19.479  0.00  0.00    +0.000 OA
ATOM     16  H   UNL     1       5.468   3.905  16.368  0.00  0.00    +0.000 HD
BRANCH  14  17
ATOM     17  C   UNL     1       7.088   5.343  17.654  0.00  0.00    +0.000 C 
ATOM     18  C   UNL     1       6.846   6.799  17.331  0.00  0.00    +0.000 C 
ATOM     19  C   UNL     1       7.749   6.427  18.470  0.00  0.00    +0.000 C 
ENDBRANCH  14  17
ENDBRANCH  12  13
ENDBRANCH  11  12
ENDBRANCH   4  11
TORSDOF 6
ENDMDL
MODEL 2
REMARK VINA RESULT:      -6.0      3.038      4.621
REMARK  Name = 
REMARK  8 active torsions:
REMARK  status: ('A' for Active; 'I' for Inactive)
REMARK    1  A    between atoms: C_1  and  O_2
REMARK    2  A    between atoms: O_2  and  C_3
REMARK    3  A    between atoms: C_6  and  C_7
REMARK    4  A    between atoms: C_7  and  C_8
REMARK    5  A    between atoms: C_8  and  N_9
REMARK    6  A    between atoms: C_10  and  C_12
REMARK    7  A    between atoms: C_16  and  O_17
REMARK    8  A    between atoms: O_17  and  C_18
REMARK                            x       y       z     vdW  Elec       q    Type
REMARK                         _______ _______ _______ _____ _____    ______ ____
ROOT
ATOM      1  C   UNL     1       2.554   4.815  19.013  0.00  0.00    +0.000 A 
ATOM      2  C   UNL     1       2.441   5.937  18.176  0.00  0.00    +0.000 A 
ATOM      3  C   UNL     1       3.575   6.551  17.636  0.00  0.00    +0.000 A 
ATOM      4  C   UNL     1       4.849   6.075  17.947  0.00  0.00    +0.000 A 
ATOM      5  C   UNL     1       4.952   5.046  18.893  0.00  0.00    +0.000 A 
ATOM      6  C   UNL     1       3.826   4.402  19.425  0.00  0.00    +0.000 A 
ENDROOT
BRANCH   1   8
ATOM      7  C   UNL     1       1.041   3.043  18.635  0.00  0.00    +0.000 C 
ATOM      8  O   UNL     1       1.442   4.146  19.448  0.00  0.00    +0.000 OA
ENDBRANCH   1   8
BRANCH   6   9
ATOM      9  O   UNL     1       4.184   3.402  20.287  0.00  0.00    +0.000 OA
ATOM     10  C   UNL     1       4.404   2.097  19.784  0.00  0.00    +0.000 C 
ENDBRANCH   6   9
BRANCH   4  11
ATOM     11  C   UNL     1       6.066   6.684  17.285  0.00  0.00    +0.000 C 
BRANCH  11  12
ATOM     12  C   UNL     1       7.151   5.664  16.919  0.00  0.00    +0.000 C 
BRANCH  12  13
ATOM     13  N   UNL     1       6.683   4.647  16.003  0.00  0.00    +0.000 N 
ATOM     14  C   UNL     1       6.945   4.720  14.658  0.00  0.00    +0.000 C 
ATOM     15  O   UNL     1       7.649   5.567  14.128  0.00  0.00    +0.000 OA
ATOM     16  H   UNL     1       6.132   3.885  16.365  0.00  0.00    +0.000 HD
BRANCH  14  17
ATOM     17  C   UNL     1       6.296   3.640  13.864  0.00  0.00    +0.000 C 
ATOM     18  C   UNL     1       5.166   3.961  12.914  0.00  0.00    +0.000 C 
ATOM     19  C   UNL     1       6.513   3.583  12.372  0.00  0.00    +0.000 C 
ENDBRANCH  14  17
ENDBRANCH  12  13
ENDBRANCH  11  12
ENDBRANCH   4  11
TORSDOF 6
ENDMDL
MODEL 3
REMARK VINA RESULT:      -6.0      3.048      5.941
REMARK  Name = 
REMARK  8 active torsions:
REMARK  status: ('A' for Active; 'I' for Inactive)
REMARK    1  A    between atoms: C_1  and  O_2
REMARK    2  A    between atoms: O_2  and  C_3
REMARK    3  A    between atoms: C_6  and  C_7
REMARK    4  A    between atoms: C_7  and  C_8
REMARK    5  A    between atoms: C_8  and  N_9
REMARK    6  A    between atoms: C_10  and  C_12
REMARK    7  A    between atoms: C_16  and  O_17
REMARK    8  A    between atoms: O_17  and  C_18
REMARK                            x       y       z     vdW  Elec       q    Type
REMARK                         _______ _______ _______ _____ _____    ______ ____
ROOT
ATOM      1  C   UNL     1       6.586   5.051  15.913  0.00  0.00    +0.000 A 
ATOM      2  C   UNL     1       5.472   4.221  16.122  0.00  0.00    +0.000 A 
ATOM      3  C   UNL     1       4.382   4.656  16.882  0.00  0.00    +0.000 A 
ATOM      4  C   UNL     1       4.396   5.919  17.476  0.00  0.00    +0.000 A 
ATOM      5  C   UNL     1       5.570   6.677  17.376  0.00  0.00    +0.000 A 
ATOM      6  C   UNL     1       6.662   6.268  16.598  0.00  0.00    +0.000 A 
ENDROOT
BRANCH   1   8
ATOM      7  C   UNL     1       7.398   4.979  13.698  0.00  0.00    +0.000 C 
ATOM      8  O   UNL     1       7.601   4.670  15.077  0.00  0.00    +0.000 OA
ENDBRANCH   1   8
BRANCH   6   9
ATOM      9  O   UNL     1       7.666   7.197  16.620  0.00  0.00    +0.000 OA
ATOM     10  C   UNL     1       7.832   8.014  17.765  0.00  0.00    +0.000 C 
ENDBRANCH   6   9
BRANCH   4  11
ATOM     11  C   UNL     1       3.175   6.419  18.217  0.00  0.00    +0.000 C 
BRANCH  11  12
ATOM     12  C   UNL     1       1.979   5.458  18.165  0.00  0.00    +0.000 C 
BRANCH  12  13
ATOM     13  N   UNL     1       1.964   4.517  19.262  0.00  0.00    +0.000 N 
ATOM     14  C   UNL     1       1.632   3.200  19.071  0.00  0.00    +0.000 C 
ATOM     15  O   UNL     1       1.411   2.685  17.984  0.00  0.00    +0.000 OA
ATOM     16  H   UNL     1       2.180   4.849  20.189  0.00  0.00    +0.000 HD
BRANCH  14  17
ATOM     17  C   UNL     1       1.573   2.409  20.331  0.00  0.00    +0.000 C 
ATOM     18  C   UNL     1       2.702   2.477  21.332  0.00  0.00    +0.000 C 
ATOM     19  C   UNL     1       1.385   3.123  21.648  0.00  0.00    +0.000 C 
ENDBRANCH  14  17
ENDBRANCH  12  13
ENDBRANCH  11  12
ENDBRANCH   4  11
TORSDOF 6
ENDMDL
MODEL 4
REMARK VINA RESULT:      -6.0      2.476      5.763
REMARK  Name = 
REMARK  8 active torsions:
REMARK  status: ('A' for Active; 'I' for Inactive)
REMARK    1  A    between atoms: C_1  and  O_2
REMARK    2  A    between atoms: O_2  and  C_3
REMARK    3  A    between atoms: C_6  and  C_7
REMARK    4  A    between atoms: C_7  and  C_8
REMARK    5  A    between atoms: C_8  and  N_9
REMARK    6  A    between atoms: C_10  and  C_12
REMARK    7  A    between atoms: C_16  and  O_17
REMARK    8  A    between atoms: O_17  and  C_18
REMARK                            x       y       z     vdW  Elec       q    Type
REMARK                         _______ _______ _______ _____ _____    ______ ____
ROOT
ATOM      1  C   UNL     1       5.959   4.855  16.299  0.00  0.00    +0.000 A 
ATOM      2  C   UNL     1       4.694   4.323  16.599  0.00  0.00    +0.000 A 
ATOM      3  C   UNL     1       3.703   5.112  17.189  0.00  0.00    +0.000 A 
ATOM      4  C   UNL     1       3.965   6.441  17.523  0.00  0.00    +0.000 A 
ATOM      5  C   UNL     1       5.273   6.915  17.348  0.00  0.00    +0.000 A 
ATOM      6  C   UNL     1       6.272   6.147  16.733  0.00  0.00    +0.000 A 
ENDROOT
BRANCH   1   8
ATOM      7  C   UNL     1       6.686   4.039  14.206  0.00  0.00    +0.000 C 
ATOM      8  O   UNL     1       6.889   4.117  15.618  0.00  0.00    +0.000 OA
ENDBRANCH   1   8
BRANCH   6   9
ATOM      9  O   UNL     1       7.445   6.843  16.633  0.00  0.00    +0.000 OA
ATOM     10  C   UNL     1       7.686   7.928  17.511  0.00  0.00    +0.000 C 
ENDBRANCH   6   9
BRANCH   4  11
ATOM     11  C   UNL     1       2.859   7.315  18.075  0.00  0.00    +0.000 C 
BRANCH  11  12
ATOM     12  C   UNL     1       2.666   7.189  19.592  0.00  0.00    +0.000 C 
BRANCH  12  13
ATOM     13  N   UNL     1       1.756   6.126  19.957  0.00  0.00    +0.000 N 
ATOM     14  C   UNL     1       2.215   4.911  20.400  0.00  0.00    +0.000 C 
ATOM     15  O   UNL     1       3.389   4.642  20.610  0.00  0.00    +0.000 OA
ATOM     16  H   UNL     1       0.765   6.280  19.858  0.00  0.00    +0.000 HD
BRANCH  14  17
ATOM     17  C   UNL     1       1.136   3.912  20.630  0.00  0.00    +0.000 C 
ATOM     18  C   UNL     1       0.799   2.890  19.570  0.00  0.00    +0.000 C 
ATOM     19  C   UNL     1       1.497   2.460  20.827  0.00  0.00    +0.000 C 
ENDBRANCH  14  17
ENDBRANCH  12  13
ENDBRANCH  11  12
ENDBRANCH   4  11
TORSDOF 6
ENDMDL
MODEL 5
REMARK VINA RESULT:      -6.0      3.404      6.357
REMARK  Name = 
REMARK  8 active torsions:
REMARK  status: ('A' for Active; 'I' for Inactive)
REMARK    1  A    between atoms: C_1  and  O_2
REMARK    2  A    between atoms: O_2  and  C_3
REMARK    3  A    between atoms: C_6  and  C_7
REMARK    4  A    between atoms: C_7  and  C_8
REMARK    5  A    between atoms: C_8  and  N_9
REMARK    6  A    between atoms: C_10  and  C_12
REMARK    7  A    between atoms: C_16  and  O_17
REMARK    8  A    between atoms: O_17  and  C_18
REMARK                            x       y       z     vdW  Elec       q    Type
REMARK                         _______ _______ _______ _____ _____    ______ ____
ROOT
ATOM      1  C   UNL     1       1.542   4.513  19.933  0.00  0.00    +0.000 A 
ATOM      2  C   UNL     1       1.915   5.715  20.556  0.00  0.00    +0.000 A 
ATOM      3  C   UNL     1       2.301   6.827  19.802  0.00  0.00    +0.000 A 
ATOM      4  C   UNL     1       2.354   6.751  18.409  0.00  0.00    +0.000 A 
ATOM      5  C   UNL     1       2.116   5.506  17.812  0.00  0.00    +0.000 A 
ATOM      6  C   UNL     1       1.702   4.388  18.549  0.00  0.00    +0.000 A 
ENDROOT
BRANCH   1   8
ATOM      7  C   UNL     1       1.991   2.865  21.563  0.00  0.00    +0.000 C 
ATOM      8  O   UNL     1       1.055   3.463  20.664  0.00  0.00    +0.000 OA
ENDBRANCH   1   8
BRANCH   6   9
ATOM      9  O   UNL     1       1.487   3.307  17.738  0.00  0.00    +0.000 OA
ATOM     10  C   UNL     1       2.438   2.258  17.712  0.00  0.00    +0.000 C 
ENDBRANCH   6   9
BRANCH   4  11
ATOM     11  C   UNL     1       2.681   7.985  17.597  0.00  0.00    +0.000 C 
BRANCH  11  12
ATOM     12  C   UNL     1       2.106   9.283  18.178  0.00  0.00    +0.000 C 
BRANCH  12  13
ATOM     13  N   UNL     1       0.696   9.448  17.902  0.00  0.00    +0.000 N 
ATOM     14  C   UNL     1      -0.082  10.306  18.638  0.00  0.00    +0.000 C 
ATOM     15  O   UNL     1       0.336  11.056  19.508  0.00  0.00    +0.000 OA
ATOM     16  H   UNL     1       0.278   8.898  17.168  0.00  0.00    +0.000 HD
BRANCH  14  17
ATOM     17  C   UNL     1      -1.525  10.264  18.275  0.00  0.00    +0.000 C 
ATOM     18  C   UNL     1      -2.116  11.313  17.362  0.00  0.00    +0.000 C 
ATOM     19  C   UNL     1      -1.927   9.910  16.863  0.00  0.00    +0.000 C 
ENDBRANCH  14  17
ENDBRANCH  12  13
ENDBRANCH  11  12
ENDBRANCH   4  11
TORSDOF 6
ENDMDL
MODEL 6
REMARK VINA RESULT:      -5.9      3.520      6.453
REMARK  Name = 
REMARK  8 active torsions:
REMARK  status: ('A' for Active; 'I' for Inactive)
REMARK    1  A    between atoms: C_1  and  O_2
REMARK    2  A    between atoms: O_2  and  C_3
REMARK    3  A    between atoms: C_6  and  C_7
REMARK    4  A    between atoms: C_7  and  C_8
REMARK    5  A    between atoms: C_8  and  N_9
REMARK    6  A    between atoms: C_10  and  C_12
REMARK    7  A    between atoms: C_16  and  O_17
REMARK    8  A    between atoms: O_17  and  C_18
REMARK                            x       y       z     vdW  Elec       q    Type
REMARK                         _______ _______ _______ _____ _____    ______ ____
ROOT
ATOM      1  C   UNL     1       7.059   4.979  14.861  0.00  0.00    +0.000 A 
ATOM      2  C   UNL     1       6.038   4.333  14.145  0.00  0.00    +0.000 A 
ATOM      3  C   UNL     1       4.879   3.888  14.787  0.00  0.00    +0.000 A 
ATOM      4  C   UNL     1       4.731   4.048  16.166  0.00  0.00    +0.000 A 
ATOM      5  C   UNL     1       5.816   4.565  16.886  0.00  0.00    +0.000 A 
ATOM      6  C   UNL     1       6.975   5.041  16.256  0.00  0.00    +0.000 A 
ENDROOT
BRANCH   1   8
ATOM      7  C   UNL     1       8.077   5.473  12.789  0.00  0.00    +0.000 C 
ATOM      8  O   UNL     1       8.140   5.516  14.215  0.00  0.00    +0.000 OA
ENDBRANCH   1   8
BRANCH   6   9
ATOM      9  O   UNL     1       7.868   5.539  17.165  0.00  0.00    +0.000 OA
ATOM     10  C   UNL     1       7.392   6.290  18.267  0.00  0.00    +0.000 C 
ENDBRANCH   6   9
BRANCH   4  11
ATOM     11  C   UNL     1       3.435   3.649  16.838  0.00  0.00    +0.000 C 
BRANCH  11  12
ATOM     12  C   UNL     1       3.597   2.550  17.897  0.00  0.00    +0.000 C 
BRANCH  12  13
ATOM     13  N   UNL     1       2.992   2.895  19.164  0.00  0.00    +0.000 N 
ATOM     14  C   UNL     1       1.648   2.731  19.384  0.00  0.00    +0.000 C 
ATOM     15  O   UNL     1       0.869   2.212  18.596  0.00  0.00    +0.000 OA
ATOM     16  H   UNL     1       3.573   3.287  19.888  0.00  0.00    +0.000 HD
BRANCH  14  17
ATOM     17  C   UNL     1       1.192   3.235  20.708  0.00  0.00    +0.000 C 
ATOM     18  C   UNL     1       1.435   2.426  21.961  0.00  0.00    +0.000 C 
ATOM     19  C   UNL     1       2.215   3.686  21.723  0.00  0.00    +0.000 C 
ENDBRANCH  14  17
ENDBRANCH  12  13
ENDBRANCH  11  12
ENDBRANCH   4  11
TORSDOF 6
ENDMDL
MODEL 7
REMARK VINA RESULT:      -5.9      2.517      5.600
REMARK  Name = 
REMARK  8 active torsions:
REMARK  status: ('A' for Active; 'I' for Inactive)
REMARK    1  A    between atoms: C_1  and  O_2
REMARK    2  A    between atoms: O_2  and  C_3
REMARK    3  A    between atoms: C_6  and  C_7
REMARK    4  A    between atoms: C_7  and  C_8
REMARK    5  A    between atoms: C_8  and  N_9
REMARK    6  A    between atoms: C_10  and  C_12
REMARK    7  A    between atoms: C_16  and  O_17
REMARK    8  A    between atoms: O_17  and  C_18
REMARK                            x       y       z     vdW  Elec       q    Type
REMARK                         _______ _______ _______ _____ _____    ______ ____
ROOT
ATOM      1  C   UNL     1       5.973   4.844  16.166  0.00  0.00    +0.000 A 
ATOM      2  C   UNL     1       4.727   4.268  16.460  0.00  0.00    +0.000 A 
ATOM      3  C   UNL     1       3.750   4.984  17.160  0.00  0.00    +0.000 A 
ATOM      4  C   UNL     1       4.012   6.279  17.609  0.00  0.00    +0.000 A 
ATOM      5  C   UNL     1       5.307   6.785  17.432  0.00  0.00    +0.000 A 
ATOM      6  C   UNL     1       6.289   6.093  16.711  0.00  0.00    +0.000 A 
ENDROOT
BRANCH   1   8
ATOM      7  C   UNL     1       6.518   4.052  14.010  0.00  0.00    +0.000 C 
ATOM      8  O   UNL     1       6.885   4.187  15.384  0.00  0.00    +0.000 OA
ENDBRANCH   1   8
BRANCH   6   9
ATOM      9  O   UNL     1       7.451   6.812  16.634  0.00  0.00    +0.000 OA
ATOM     10  C   UNL     1       7.701   7.831  17.585  0.00  0.00    +0.000 C 
ENDBRANCH   6   9
BRANCH   4  11
ATOM     11  C   UNL     1       2.919   7.080  18.283  0.00  0.00    +0.000 C 
BRANCH  11  12
ATOM     12  C   UNL     1       2.736   6.755  19.771  0.00  0.00    +0.000 C 
BRANCH  12  13
ATOM     13  N   UNL     1       3.023   5.373  20.085  0.00  0.00    +0.000 N 
ATOM     14  C   UNL     1       2.034   4.509  20.483  0.00  0.00    +0.000 C 
ATOM     15  O   UNL     1       0.843   4.782  20.524  0.00  0.00    +0.000 OA
ATOM     16  H   UNL     1       3.977   5.051  20.032  0.00  0.00    +0.000 HD
BRANCH  14  17
ATOM     17  C   UNL     1       2.535   3.159  20.860  0.00  0.00    +0.000 C 
ATOM     18  C   UNL     1       2.468   2.014  19.876  0.00  0.00    +0.000 C 
ATOM     19  C   UNL     1       3.794   2.628  20.218  0.00  0.00    +0.000 C 
ENDBRANCH  14  17
ENDBRANCH  12  13
ENDBRANCH  11  12
ENDBRANCH   4  11
TORSDOF 6
ENDMDL
MODEL 8
REMARK VINA RESULT:      -5.9      2.574      5.650
REMARK  Name = 
REMARK  8 active torsions:
REMARK  status: ('A' for Active; 'I' for Inactive)
REMARK    1  A    between atoms: C_1  and  O_2
REMARK    2  A    between atoms: O_2  and  C_3
REMARK    3  A    between atoms: C_6  and  C_7
REMARK    4  A    between atoms: C_7  and  C_8
REMARK    5  A    between atoms: C_8  and  N_9
REMARK    6  A    between atoms: C_10  and  C_12
REMARK    7  A    between atoms: C_16  and  O_17
REMARK    8  A    between atoms: O_17  and  C_18
REMARK                            x       y       z     vdW  Elec       q    Type
REMARK                         _______ _______ _______ _____ _____    ______ ____
ROOT
ATOM      1  C   UNL     1       4.977   4.280  17.314  0.00  0.00    +0.000 A 
ATOM      2  C   UNL     1       3.621   4.490  17.012  0.00  0.00    +0.000 A 
ATOM      3  C   UNL     1       2.815   5.285  17.833  0.00  0.00    +0.000 A 
ATOM      4  C   UNL     1       3.340   5.860  18.991  0.00  0.00    +0.000 A 
ATOM      5  C   UNL     1       4.652   5.526  19.353  0.00  0.00    +0.000 A 
ATOM      6  C   UNL     1       5.482   4.753  18.530  0.00  0.00    +0.000 A 
ENDROOT
BRANCH   1   8
ATOM      7  C   UNL     1       6.591   4.418  15.597  0.00  0.00    +0.000 C 
ATOM      8  O   UNL     1       5.792   3.598  16.451  0.00  0.00    +0.000 OA
ENDBRANCH   1   8
BRANCH   6   9
ATOM      9  O   UNL     1       6.728   4.606  19.075  0.00  0.00    +0.000 OA
ATOM     10  C   UNL     1       7.573   5.736  19.191  0.00  0.00    +0.000 C 
ENDBRANCH   6   9
BRANCH   4  11
ATOM     11  C   UNL     1       2.488   6.794  19.823  0.00  0.00    +0.000 C 
BRANCH  11  12
ATOM     12  C   UNL     1       1.560   6.075  20.812  0.00  0.00    +0.000 C 
BRANCH  12  13
ATOM     13  N   UNL     1       1.188   4.749  20.373  0.00  0.00    +0.000 N 
ATOM     14  C   UNL     1       1.632   3.627  21.027  0.00  0.00    +0.000 C 
ATOM     15  O   UNL     1       2.287   3.634  22.060  0.00  0.00    +0.000 OA
ATOM     16  H   UNL     1       0.610   4.653  19.553  0.00  0.00    +0.000 HD
BRANCH  14  17
ATOM     17  C   UNL     1       1.229   2.353  20.370  0.00  0.00    +0.000 C 
ATOM     18  C   UNL     1       0.687   2.356  18.960  0.00  0.00    +0.000 C 
ATOM     19  C   UNL     1       2.058   1.810  19.232  0.00  0.00    +0.000 C 
ENDBRANCH  14  17
ENDBRANCH  12  13
ENDBRANCH  11  12
ENDBRANCH   4  11
TORSDOF 6
ENDMDL
MODEL 9
REMARK VINA RESULT:      -5.9      3.425      4.849
REMARK  Name = 
REMARK  8 active torsions:
REMARK  status: ('A' for Active; 'I' for Inactive)
REMARK    1  A    between atoms: C_1  and  O_2
REMARK    2  A    between atoms: O_2  and  C_3
REMARK    3  A    between atoms: C_6  and  C_7
REMARK    4  A    between atoms: C_7  and  C_8
REMARK    5  A    between atoms: C_8  and  N_9
REMARK    6  A    between atoms: C_10  and  C_12
REMARK    7  A    between atoms: C_16  and  O_17
REMARK    8  A    between atoms: O_17  and  C_18
REMARK                            x       y       z     vdW  Elec       q    Type
REMARK                         _______ _______ _______ _____ _____    ______ ____
ROOT
ATOM      1  C   UNL     1       2.168   4.476  18.217  0.00  0.00    +0.000 A 
ATOM      2  C   UNL     1       2.365   5.860  18.352  0.00  0.00    +0.000 A 
ATOM      3  C   UNL     1       3.517   6.475  17.853  0.00  0.00    +0.000 A 
ATOM      4  C   UNL     1       4.511   5.715  17.235  0.00  0.00    +0.000 A 
ATOM      5  C   UNL     1       4.365   4.321  17.234  0.00  0.00    +0.000 A 
ATOM      6  C   UNL     1       3.206   3.689  17.706  0.00  0.00    +0.000 A 
ENDROOT
BRANCH   1   8
ATOM      7  C   UNL     1       0.920   3.529  19.982  0.00  0.00    +0.000 C 
ATOM      8  O   UNL     1       0.991   3.892  18.603  0.00  0.00    +0.000 OA
ENDBRANCH   1   8
BRANCH   6   9
ATOM      9  O   UNL     1       3.281   2.332  17.555  0.00  0.00    +0.000 OA
ATOM     10  C   UNL     1       3.616   1.526  18.670  0.00  0.00    +0.000 C 
ENDBRANCH   6   9
BRANCH   4  11
ATOM     11  C   UNL     1       5.709   6.400  16.614  0.00  0.00    +0.000 C 
BRANCH  11  12
ATOM     12  C   UNL     1       6.878   5.453  16.310  0.00  0.00    +0.000 C 
BRANCH  12  13
ATOM     13  N   UNL     1       6.526   4.405  15.378  0.00  0.00    +0.000 N 
ATOM     14  C   UNL     1       6.813   4.509  14.041  0.00  0.00    +0.000 C 
ATOM     15  O   UNL     1       7.450   5.420  13.532  0.00  0.00    +0.000 OA
ATOM     16  H   UNL     1       6.037   3.593  15.723  0.00  0.00    +0.000 HD
BRANCH  14  17
ATOM     17  C   UNL     1       6.284   3.381  13.226  0.00  0.00    +0.000 C 
ATOM     18  C   UNL     1       5.198   3.617  12.202  0.00  0.00    +0.000 C 
ATOM     19  C   UNL     1       6.598   3.318  11.751  0.00  0.00    +0.000 C 
ENDBRANCH  14  17
ENDBRANCH  12  13
ENDBRANCH  11  12
ENDBRANCH   4  11
TORSDOF 6
ENDMDL
