MODEL 1
REMARK VINA RESULT:      -7.6      0.000      0.000
REMARK  Name = 
REMARK  7 active torsions:
REMARK  status: ('A' for Active; 'I' for Inactive)
REMARK    1  A    between atoms: C_1  and  C_2
REMARK    2  A    between atoms: C_2  and  C_5
REMARK    3  A    between atoms: C_5  and  C_6
REMARK    4  A    between atoms: C_6  and  N_7
REMARK    5  A    between atoms: C_6  and  C_20
REMARK    6  A    between atoms: N_22  and  C_23
REMARK    7  A    between atoms: C_23  and  C_24
REMARK                            x       y       z     vdW  Elec       q    Type
REMARK                         _______ _______ _______ _____ _____    ______ ____
ROOT
ATOM      1  C   UNL     1       3.611   5.321  19.490  0.00  0.00    +0.000 C 
ENDROOT
BRANCH   1   2
ATOM      2  N   UNL     1       2.941   6.577  19.119  0.00  0.00    +0.000 N 
ATOM      3  C   UNL     1       2.039   7.192  19.952  0.00  0.00    +0.000 C 
ATOM      4  O   UNL     1       1.764   6.729  21.054  0.00  0.00    +0.000 OA
ATOM      5  N   UNL     1       1.484   8.351  19.447  0.00  0.00    +0.000 N 
ATOM      6  C   UNL     1       0.592   9.144  20.286  0.00  0.00    +0.000 C 
ATOM      7  C   UNL     1       1.108  10.583  20.367  0.00  0.00    +0.000 C 
ATOM      8  C   UNL     1       1.309  11.229  18.969  0.00  0.00    +0.000 C 
ATOM      9  C   UNL     1       2.010  12.606  19.109  0.00  0.00    +0.000 C 
ATOM     10  C   UNL     1       1.072  13.637  18.493  0.00  0.00    +0.000 C 
ATOM     11  C   UNL     1      -0.304  13.016  18.618  0.00  0.00    +0.000 C 
ATOM     12  C   UNL     1      -0.050  11.550  18.301  0.00  0.00    +0.000 C 
ATOM     13  C   UNL     1       2.163  10.286  18.093  0.00  0.00    +0.000 C 
ATOM     14  C   UNL     1       1.627   8.858  18.081  0.00  0.00    +0.000 C 
ATOM     15  H   UNL     1       3.492   7.209  18.558  0.00  0.00    +0.000 HD
ENDBRANCH   1   2
BRANCH   1  16
ATOM     16  C   UNL     1       5.121   5.395  19.103  0.00  0.00    +0.000 C 
ATOM     17  O   UNL     1       6.001   4.818  19.740  0.00  0.00    +0.000 OA
ATOM     18  N   UNL     1       5.371   6.196  18.004  0.00  0.00    +0.000 N 
ATOM     19  H   UNL     1       4.599   6.336  17.361  0.00  0.00    +0.000 HD
BRANCH  18  20
ATOM     20  C   UNL     1       6.678   6.489  17.463  0.00  0.00    +0.000 C 
ATOM     21  C   UNL     1       7.867   7.008  18.253  0.00  0.00    +0.000 C 
ATOM     22  C   UNL     1       7.055   7.971  17.450  0.00  0.00    +0.000 C 
BRANCH  20  23
ATOM     23  C   UNL     1       6.994   5.730  16.269  0.00  0.00    +0.000 C 
ATOM     24  N   UNL     1       7.265   5.161  15.309  0.00  0.00    +0.000 NA
ENDBRANCH  20  23
ENDBRANCH  18  20
ENDBRANCH   1  16
BRANCH   1  25
ATOM     25  C   UNL     1       2.906   4.123  18.817  0.00  0.00    +0.000 C 
BRANCH  25  27
ATOM     26  C   UNL     1       2.383   3.300  21.187  0.00  0.00    +0.000 C 
ATOM     27  C   UNL     1       1.933   3.409  19.744  0.00  0.00    +0.000 C 
ATOM     28  F   UNL     1       1.662   2.171  19.263  0.00  0.00    +0.000 F 
ATOM     29  F   UNL     1       0.754   4.081  19.764  0.00  0.00    +0.000 F 
ENDBRANCH  25  27
ENDBRANCH   1  25
TORSDOF 6
ENDMDL
MODEL 2
REMARK VINA RESULT:      -7.6      1.570      1.857
REMARK  Name = 
REMARK  7 active torsions:
REMARK  status: ('A' for Active; 'I' for Inactive)
REMARK    1  A    between atoms: C_1  and  C_2
REMARK    2  A    between atoms: C_2  and  C_5
REMARK    3  A    between atoms: C_5  and  C_6
REMARK    4  A    between atoms: C_6  and  N_7
REMARK    5  A    between atoms: C_6  and  C_20
REMARK    6  A    between atoms: N_22  and  C_23
REMARK    7  A    between atoms: C_23  and  C_24
REMARK                            x       y       z     vdW  Elec       q    Type
REMARK                         _______ _______ _______ _____ _____    ______ ____
ROOT
ATOM      1  C   UNL     1       3.208   6.089  18.563  0.00  0.00    +0.000 C 
ENDROOT
BRANCH   1   2
ATOM      2  N   UNL     1       2.558   7.408  18.514  0.00  0.00    +0.000 N 
ATOM      3  C   UNL     1       1.835   7.900  19.571  0.00  0.00    +0.000 C 
ATOM      4  O   UNL     1       1.711   7.268  20.615  0.00  0.00    +0.000 OA
ATOM      5  N   UNL     1       1.272   9.143  19.358  0.00  0.00    +0.000 N 
ATOM      6  C   UNL     1       0.569   9.809  20.449  0.00  0.00    +0.000 C 
ATOM      7  C   UNL     1       1.170  11.199  20.674  0.00  0.00    +0.000 C 
ATOM      8  C   UNL     1       1.184  12.065  19.385  0.00  0.00    +0.000 C 
ATOM      9  C   UNL     1       1.973  13.377  19.627  0.00  0.00    +0.000 C 
ATOM     10  C   UNL     1       1.009  14.524  19.347  0.00  0.00    +0.000 C 
ATOM     11  C   UNL     1      -0.363  13.931  19.595  0.00  0.00    +0.000 C 
ATOM     12  C   UNL     1      -0.244  12.532  19.009  0.00  0.00    +0.000 C 
ATOM     13  C   UNL     1       1.835  11.257  18.240  0.00  0.00    +0.000 C 
ATOM     14  C   UNL     1       1.226   9.867  18.086  0.00  0.00    +0.000 C 
ATOM     15  H   UNL     1       3.048   8.109  17.978  0.00  0.00    +0.000 HD
ENDBRANCH   1   2
BRANCH   1  16
ATOM     16  C   UNL     1       4.532   6.123  17.737  0.00  0.00    +0.000 C 
ATOM     17  O   UNL     1       5.159   7.160  17.527  0.00  0.00    +0.000 OA
ATOM     18  N   UNL     1       4.905   4.888  17.240  0.00  0.00    +0.000 N 
ATOM     19  H   UNL     1       4.547   4.075  17.731  0.00  0.00    +0.000 HD
BRANCH  18  20
ATOM     20  C   UNL     1       6.051   4.637  16.397  0.00  0.00    +0.000 C 
ATOM     21  C   UNL     1       6.218   5.114  14.965  0.00  0.00    +0.000 C 
ATOM     22  C   UNL     1       5.792   3.704  15.214  0.00  0.00    +0.000 C 
BRANCH  20  23
ATOM     23  C   UNL     1       7.278   4.418  17.138  0.00  0.00    +0.000 C 
ATOM     24  N   UNL     1       8.242   4.279  17.746  0.00  0.00    +0.000 NA
ENDBRANCH  20  23
ENDBRANCH  18  20
ENDBRANCH   1  16
BRANCH   1  25
ATOM     25  C   UNL     1       2.240   5.000  18.049  0.00  0.00    +0.000 C 
BRANCH  25  27
ATOM     26  C   UNL     1       2.934   3.722  20.158  0.00  0.00    +0.000 C 
ATOM     27  C   UNL     1       1.863   3.988  19.120  0.00  0.00    +0.000 C 
ATOM     28  F   UNL     1       1.497   2.818  18.540  0.00  0.00    +0.000 F 
ATOM     29  F   UNL     1       0.778   4.435  19.801  0.00  0.00    +0.000 F 
ENDBRANCH  25  27
ENDBRANCH   1  25
TORSDOF 6
ENDMDL
MODEL 3
REMARK VINA RESULT:      -7.5      1.056      1.517
REMARK  Name = 
REMARK  7 active torsions:
REMARK  status: ('A' for Active; 'I' for Inactive)
REMARK    1  A    between atoms: C_1  and  C_2
REMARK    2  A    between atoms: C_2  and  C_5
REMARK    3  A    between atoms: C_5  and  C_6
REMARK    4  A    between atoms: C_6  and  N_7
REMARK    5  A    between atoms: C_6  and  C_20
REMARK    6  A    between atoms: N_22  and  C_23
REMARK    7  A    between atoms: C_23  and  C_24
REMARK                            x       y       z     vdW  Elec       q    Type
REMARK                         _______ _______ _______ _____ _____    ______ ____
ROOT
ATOM      1  C   UNL     1       2.955   5.716  19.322  0.00  0.00    +0.000 C 
ENDROOT
BRANCH   1   2
ATOM      2  N   UNL     1       2.405   7.053  19.045  0.00  0.00    +0.000 N 
ATOM      3  C   UNL     1       1.643   7.728  19.965  0.00  0.00    +0.000 C 
ATOM      4  O   UNL     1       1.400   7.255  21.069  0.00  0.00    +0.000 OA
ATOM      5  N   UNL     1       1.187   8.962  19.542  0.00  0.00    +0.000 N 
ATOM      6  C   UNL     1       0.455   9.813  20.473  0.00  0.00    +0.000 C 
ATOM      7  C   UNL     1       1.135  11.182  20.559  0.00  0.00    +0.000 C 
ATOM      8  C   UNL     1       1.304  11.859  19.172  0.00  0.00    +0.000 C 
ATOM      9  C   UNL     1       2.165  13.142  19.301  0.00  0.00    +0.000 C 
ATOM     10  C   UNL     1       1.307  14.295  18.793  0.00  0.00    +0.000 C 
ATOM     11  C   UNL     1      -0.118  13.825  19.005  0.00  0.00    +0.000 C 
ATOM     12  C   UNL     1      -0.056  12.355  18.623  0.00  0.00    +0.000 C 
ATOM     13  C   UNL     1       1.978  10.863  18.202  0.00  0.00    +0.000 C 
ATOM     14  C   UNL     1       1.285   9.504  18.186  0.00  0.00    +0.000 C 
ATOM     15  H   UNL     1       2.981   7.642  18.463  0.00  0.00    +0.000 HD
ENDBRANCH   1   2
BRANCH   1  16
ATOM     16  C   UNL     1       4.373   5.586  18.684  0.00  0.00    +0.000 C 
ATOM     17  O   UNL     1       5.395   5.449  19.355  0.00  0.00    +0.000 OA
ATOM     18  N   UNL     1       4.369   5.677  17.305  0.00  0.00    +0.000 N 
ATOM     19  H   UNL     1       3.499   5.444  16.838  0.00  0.00    +0.000 HD
BRANCH  18  20
ATOM     20  C   UNL     1       5.541   5.648  16.461  0.00  0.00    +0.000 C 
ATOM     21  C   UNL     1       5.590   5.136  15.032  0.00  0.00    +0.000 C 
ATOM     22  C   UNL     1       6.070   4.251  16.135  0.00  0.00    +0.000 C 
BRANCH  20  23
ATOM     23  C   UNL     1       6.529   6.651  16.808  0.00  0.00    +0.000 C 
ATOM     24  N   UNL     1       7.286   7.474  17.071  0.00  0.00    +0.000 NA
ENDBRANCH  20  23
ENDBRANCH  18  20
ENDBRANCH   1  16
BRANCH   1  25
ATOM     25  C   UNL     1       1.992   4.626  18.802  0.00  0.00    +0.000 C 
BRANCH  25  27
ATOM     26  C   UNL     1       2.351   3.478  21.064  0.00  0.00    +0.000 C 
ATOM     27  C   UNL     1       1.408   3.769  19.915  0.00  0.00    +0.000 C 
ATOM     28  F   UNL     1       0.948   2.601  19.404  0.00  0.00    +0.000 F 
ATOM     29  F   UNL     1       0.336   4.402  20.455  0.00  0.00    +0.000 F 
ENDBRANCH  25  27
ENDBRANCH   1  25
TORSDOF 6
ENDMDL
MODEL 4
REMARK VINA RESULT:      -7.5      1.372      1.627
REMARK  Name = 
REMARK  7 active torsions:
REMARK  status: ('A' for Active; 'I' for Inactive)
REMARK    1  A    between atoms: C_1  and  C_2
REMARK    2  A    between atoms: C_2  and  C_5
REMARK    3  A    between atoms: C_5  and  C_6
REMARK    4  A    between atoms: C_6  and  N_7
REMARK    5  A    between atoms: C_6  and  C_20
REMARK    6  A    between atoms: N_22  and  C_23
REMARK    7  A    between atoms: C_23  and  C_24
REMARK                            x       y       z     vdW  Elec       q    Type
REMARK                         _______ _______ _______ _____ _____    ______ ____
ROOT
ATOM      1  C   UNL     1       3.143   5.887  19.052  0.00  0.00    +0.000 C 
ENDROOT
BRANCH   1   2
ATOM      2  N   UNL     1       2.538   7.211  18.835  0.00  0.00    +0.000 N 
ATOM      3  C   UNL     1       1.769   7.823  19.793  0.00  0.00    +0.000 C 
ATOM      4  O   UNL     1       1.565   7.302  20.884  0.00  0.00    +0.000 OA
ATOM      5  N   UNL     1       1.258   9.053  19.424  0.00  0.00    +0.000 N 
ATOM      6  C   UNL     1       0.513   9.841  20.399  0.00  0.00    +0.000 C 
ATOM      7  C   UNL     1       1.143  11.231  20.523  0.00  0.00    +0.000 C 
ATOM      8  C   UNL     1       1.258  11.963  19.159  0.00  0.00    +0.000 C 
ATOM      9  C   UNL     1       2.072  13.274  19.319  0.00  0.00    +0.000 C 
ATOM     10  C   UNL     1       1.162  14.410  18.869  0.00  0.00    +0.000 C 
ATOM     11  C   UNL     1      -0.240  13.879  19.091  0.00  0.00    +0.000 C 
ATOM     12  C   UNL     1      -0.130  12.426  18.653  0.00  0.00    +0.000 C 
ATOM     13  C   UNL     1       1.951  11.030  18.141  0.00  0.00    +0.000 C 
ATOM     14  C   UNL     1       1.309   9.647  18.087  0.00  0.00    +0.000 C 
ATOM     15  H   UNL     1       3.079   7.843  18.264  0.00  0.00    +0.000 HD
ENDBRANCH   1   2
BRANCH   1  16
ATOM     16  C   UNL     1       4.425   5.743  18.174  0.00  0.00    +0.000 C 
ATOM     17  O   UNL     1       4.393   5.347  17.010  0.00  0.00    +0.000 OA
ATOM     18  N   UNL     1       5.591   6.068  18.841  0.00  0.00    +0.000 N 
ATOM     19  H   UNL     1       5.499   6.690  19.637  0.00  0.00    +0.000 HD
BRANCH  18  20
ATOM     20  C   UNL     1       6.924   5.971  18.292  0.00  0.00    +0.000 C 
ATOM     21  C   UNL     1       7.626   4.685  17.894  0.00  0.00    +0.000 C 
ATOM     22  C   UNL     1       7.955   5.312  19.209  0.00  0.00    +0.000 C 
BRANCH  20  23
ATOM     23  C   UNL     1       7.349   7.168  17.592  0.00  0.00    +0.000 C 
ATOM     24  N   UNL     1       7.696   8.132  17.073  0.00  0.00    +0.000 NA
ENDBRANCH  20  23
ENDBRANCH  18  20
ENDBRANCH   1  16
BRANCH   1  25
ATOM     25  C   UNL     1       2.114   4.776  18.750  0.00  0.00    +0.000 C 
BRANCH  25  27
ATOM     26  C   UNL     1       1.800   2.468  19.818  0.00  0.00    +0.000 C 
ATOM     27  C   UNL     1       1.729   3.972  19.983  0.00  0.00    +0.000 C 
ATOM     28  F   UNL     1       0.484   4.322  20.391  0.00  0.00    +0.000 F 
ATOM     29  F   UNL     1       2.569   4.281  21.003  0.00  0.00    +0.000 F 
ENDBRANCH  25  27
ENDBRANCH   1  25
TORSDOF 6
ENDMDL
MODEL 5
REMARK VINA RESULT:      -7.4      1.706      2.335
REMARK  Name = 
REMARK  7 active torsions:
REMARK  status: ('A' for Active; 'I' for Inactive)
REMARK    1  A    between atoms: C_1  and  C_2
REMARK    2  A    between atoms: C_2  and  C_5
REMARK    3  A    between atoms: C_5  and  C_6
REMARK    4  A    between atoms: C_6  and  N_7
REMARK    5  A    between atoms: C_6  and  C_20
REMARK    6  A    between atoms: N_22  and  C_23
REMARK    7  A    between atoms: C_23  and  C_24
REMARK                            x       y       z     vdW  Elec       q    Type
REMARK                         _______ _______ _______ _____ _____    ______ ____
ROOT
ATOM      1  C   UNL     1       2.999   5.014  19.672  0.00  0.00    +0.000 C 
ENDROOT
BRANCH   1   2
ATOM      2  N   UNL     1       2.404   6.351  19.835  0.00  0.00    +0.000 N 
ATOM      3  C   UNL     1       2.446   7.290  18.836  0.00  0.00    +0.000 C 
ATOM      4  O   UNL     1       2.968   7.052  17.752  0.00  0.00    +0.000 OA
ATOM      5  N   UNL     1       1.861   8.500  19.155  0.00  0.00    +0.000 N 
ATOM      6  C   UNL     1       1.756   9.537  18.134  0.00  0.00    +0.000 C 
ATOM      7  C   UNL     1       0.295   9.975  17.997  0.00  0.00    +0.000 C 
ATOM      8  C   UNL     1      -0.325  10.430  19.346  0.00  0.00    +0.000 C 
ATOM      9  C   UNL     1      -1.848  10.676  19.182  0.00  0.00    +0.000 C 
ATOM     10  C   UNL     1      -2.099  12.128  19.570  0.00  0.00    +0.000 C 
ATOM     11  C   UNL     1      -0.776  12.820  19.313  0.00  0.00    +0.000 C 
ATOM     12  C   UNL     1       0.245  11.799  19.791  0.00  0.00    +0.000 C 
ATOM     13  C   UNL     1      -0.076   9.339  20.411  0.00  0.00    +0.000 C 
ATOM     14  C   UNL     1       1.387   8.911  20.477  0.00  0.00    +0.000 C 
ATOM     15  H   UNL     1       1.574   6.385  20.408  0.00  0.00    +0.000 HD
ENDBRANCH   1   2
BRANCH   1  16
ATOM     16  C   UNL     1       4.420   5.144  19.039  0.00  0.00    +0.000 C 
ATOM     17  O   UNL     1       5.376   5.629  19.642  0.00  0.00    +0.000 OA
ATOM     18  N   UNL     1       4.486   4.697  17.733  0.00  0.00    +0.000 N 
ATOM     19  H   UNL     1       3.782   4.023  17.449  0.00  0.00    +0.000 HD
BRANCH  18  20
ATOM     20  C   UNL     1       5.656   4.751  16.888  0.00  0.00    +0.000 C 
ATOM     21  C   UNL     1       5.760   5.492  15.566  0.00  0.00    +0.000 C 
ATOM     22  C   UNL     1       5.524   4.018  15.553  0.00  0.00    +0.000 C 
BRANCH  20  23
ATOM     23  C   UNL     1       6.900   4.565  17.609  0.00  0.00    +0.000 C 
ATOM     24  N   UNL     1       7.865   4.421  18.215  0.00  0.00    +0.000 NA
ENDBRANCH  20  23
ENDBRANCH  18  20
ENDBRANCH   1  16
BRANCH   1  25
ATOM     25  C   UNL     1       2.073   4.119  18.821  0.00  0.00    +0.000 C 
BRANCH  25  27
ATOM     26  C   UNL     1       1.325   3.128  21.063  0.00  0.00    +0.000 C 
ATOM     27  C   UNL     1       1.556   2.907  19.582  0.00  0.00    +0.000 C 
ATOM     28  F   UNL     1       2.400   1.860  19.409  0.00  0.00    +0.000 F 
ATOM     29  F   UNL     1       0.360   2.527  19.065  0.00  0.00    +0.000 F 
ENDBRANCH  25  27
ENDBRANCH   1  25
TORSDOF 6
ENDMDL
MODEL 6
REMARK VINA RESULT:      -7.2      1.247      1.377
REMARK  Name = 
REMARK  7 active torsions:
REMARK  status: ('A' for Active; 'I' for Inactive)
REMARK    1  A    between atoms: C_1  and  C_2
REMARK    2  A    between atoms: C_2  and  C_5
REMARK    3  A    between atoms: C_5  and  C_6
REMARK    4  A    between atoms: C_6  and  N_7
REMARK    5  A    between atoms: C_6  and  C_20
REMARK    6  A    between atoms: N_22  and  C_23
REMARK    7  A    between atoms: C_23  and  C_24
REMARK                            x       y       z     vdW  Elec       q    Type
REMARK                         _______ _______ _______ _____ _____    ______ ____
ROOT
ATOM      1  C   UNL     1       2.939   5.804  19.502  0.00  0.00    +0.000 C 
ENDROOT
BRANCH   1   2
ATOM      2  N   UNL     1       2.390   7.132  19.185  0.00  0.00    +0.000 N 
ATOM      3  C   UNL     1       1.655   7.850  20.095  0.00  0.00    +0.000 C 
ATOM      4  O   UNL     1       1.437   7.424  21.224  0.00  0.00    +0.000 OA
ATOM      5  N   UNL     1       1.194   9.068  19.634  0.00  0.00    +0.000 N 
ATOM      6  C   UNL     1       0.492   9.961  20.549  0.00  0.00    +0.000 C 
ATOM      7  C   UNL     1       1.181  11.328  20.561  0.00  0.00    +0.000 C 
ATOM      8  C   UNL     1       1.318  11.947  19.144  0.00  0.00    +0.000 C 
ATOM      9  C   UNL     1       2.189  13.229  19.198  0.00  0.00    +0.000 C 
ATOM     10  C   UNL     1       1.324  14.366  18.666  0.00  0.00    +0.000 C 
ATOM     11  C   UNL     1      -0.097  13.914  18.933  0.00  0.00    +0.000 C 
ATOM     12  C   UNL     1      -0.053  12.429  18.609  0.00  0.00    +0.000 C 
ATOM     13  C   UNL     1       1.962  10.908  18.199  0.00  0.00    +0.000 C 
ATOM     14  C   UNL     1       1.261   9.554  18.255  0.00  0.00    +0.000 C 
ATOM     15  H   UNL     1       2.954   7.694  18.565  0.00  0.00    +0.000 HD
ENDBRANCH   1   2
BRANCH   1  16
ATOM     16  C   UNL     1       3.973   5.387  18.410  0.00  0.00    +0.000 C 
ATOM     17  O   UNL     1       3.738   4.524  17.566  0.00  0.00    +0.000 OA
ATOM     18  N   UNL     1       5.179   6.054  18.508  0.00  0.00    +0.000 N 
ATOM     19  H   UNL     1       5.164   6.952  18.981  0.00  0.00    +0.000 HD
BRANCH  18  20
ATOM     20  C   UNL     1       6.332   5.827  17.668  0.00  0.00    +0.000 C 
ATOM     21  C   UNL     1       7.513   4.934  18.008  0.00  0.00    +0.000 C 
ATOM     22  C   UNL     1       7.643   6.411  18.196  0.00  0.00    +0.000 C 
BRANCH  20  23
ATOM     23  C   UNL     1       6.063   6.010  16.255  0.00  0.00    +0.000 C 
ATOM     24  N   UNL     1       5.854   6.116  15.131  0.00  0.00    +0.000 NA
ENDBRANCH  20  23
ENDBRANCH  18  20
ENDBRANCH   1  16
BRANCH   1  25
ATOM     25  C   UNL     1       1.796   4.773  19.632  0.00  0.00    +0.000 C 
BRANCH  25  27
ATOM     26  C   UNL     1       2.976   2.710  20.589  0.00  0.00    +0.000 C 
ATOM     27  C   UNL     1       1.980   3.830  20.811  0.00  0.00    +0.000 C 
ATOM     28  F   UNL     1       0.783   3.303  21.170  0.00  0.00    +0.000 F 
ATOM     29  F   UNL     1       2.429   4.530  21.883  0.00  0.00    +0.000 F 
ENDBRANCH  25  27
ENDBRANCH   1  25
TORSDOF 6
ENDMDL
MODEL 7
REMARK VINA RESULT:      -7.2      1.557      2.155
REMARK  Name = 
REMARK  7 active torsions:
REMARK  status: ('A' for Active; 'I' for Inactive)
REMARK    1  A    between atoms: C_1  and  C_2
REMARK    2  A    between atoms: C_2  and  C_5
REMARK    3  A    between atoms: C_5  and  C_6
REMARK    4  A    between atoms: C_6  and  N_7
REMARK    5  A    between atoms: C_6  and  C_20
REMARK    6  A    between atoms: N_22  and  C_23
REMARK    7  A    between atoms: C_23  and  C_24
REMARK                            x       y       z     vdW  Elec       q    Type
REMARK                         _______ _______ _______ _____ _____    ______ ____
ROOT
ATOM      1  C   UNL     1       3.162   4.620  19.497  0.00  0.00    +0.000 C 
ENDROOT
BRANCH   1   2
ATOM      2  N   UNL     1       2.656   5.990  19.674  0.00  0.00    +0.000 N 
ATOM      3  C   UNL     1       2.656   6.902  18.649  0.00  0.00    +0.000 C 
ATOM      4  O   UNL     1       3.064   6.611  17.530  0.00  0.00    +0.000 OA
ATOM      5  N   UNL     1       2.167   8.150  18.986  0.00  0.00    +0.000 N 
ATOM      6  C   UNL     1       2.024   9.167  17.950  0.00  0.00    +0.000 C 
ATOM      7  C   UNL     1       0.582   9.682  17.932  0.00  0.00    +0.000 C 
ATOM      8  C   UNL     1       0.112  10.201  19.318  0.00  0.00    +0.000 C 
ATOM      9  C   UNL     1      -1.404  10.526  19.284  0.00  0.00    +0.000 C 
ATOM     10  C   UNL     1      -1.542  11.998  19.652  0.00  0.00    +0.000 C 
ATOM     11  C   UNL     1      -0.214  12.611  19.258  0.00  0.00    +0.000 C 
ATOM     12  C   UNL     1       0.791  11.546  19.671  0.00  0.00    +0.000 C 
ATOM     13  C   UNL     1       0.399   9.123  20.386  0.00  0.00    +0.000 C 
ATOM     14  C   UNL     1       1.838   8.617  20.333  0.00  0.00    +0.000 C 
ATOM     15  H   UNL     1       1.885   6.083  20.319  0.00  0.00    +0.000 HD
ENDBRANCH   1   2
BRANCH   1  16
ATOM     16  C   UNL     1       4.451   4.645  18.617  0.00  0.00    +0.000 C 
ATOM     17  O   UNL     1       4.602   3.918  17.636  0.00  0.00    +0.000 OA
ATOM     18  N   UNL     1       5.411   5.532  19.067  0.00  0.00    +0.000 N 
ATOM     19  H   UNL     1       5.082   6.304  19.638  0.00  0.00    +0.000 HD
BRANCH  18  20
ATOM     20  C   UNL     1       6.718   5.719  18.482  0.00  0.00    +0.000 C 
ATOM     21  C   UNL     1       7.778   4.643  18.321  0.00  0.00    +0.000 C 
ATOM     22  C   UNL     1       7.888   5.603  19.460  0.00  0.00    +0.000 C 
BRANCH  20  23
ATOM     23  C   UNL     1       6.775   6.811  17.530  0.00  0.00    +0.000 C 
ATOM     24  N   UNL     1       6.820   7.702  16.807  0.00  0.00    +0.000 NA
ENDBRANCH  20  23
ENDBRANCH  18  20
ENDBRANCH   1  16
BRANCH   1  25
ATOM     25  C   UNL     1       2.066   3.723  18.881  0.00  0.00    +0.000 C 
BRANCH  25  27
ATOM     26  C   UNL     1       1.632   2.598  21.142  0.00  0.00    +0.000 C 
ATOM     27  C   UNL     1       1.046   3.246  19.904  0.00  0.00    +0.000 C 
ATOM     28  F   UNL     1       0.172   2.390  19.319  0.00  0.00    +0.000 F 
ATOM     29  F   UNL     1       0.315   4.303  20.339  0.00  0.00    +0.000 F 
ENDBRANCH  25  27
ENDBRANCH   1  25
TORSDOF 6
ENDMDL
MODEL 8
REMARK VINA RESULT:      -7.1      1.366      1.473
REMARK  Name = 
REMARK  7 active torsions:
REMARK  status: ('A' for Active; 'I' for Inactive)
REMARK    1  A    between atoms: C_1  and  C_2
REMARK    2  A    between atoms: C_2  and  C_5
REMARK    3  A    between atoms: C_5  and  C_6
REMARK    4  A    between atoms: C_6  and  N_7
REMARK    5  A    between atoms: C_6  and  C_20
REMARK    6  A    between atoms: N_22  and  C_23
REMARK    7  A    between atoms: C_23  and  C_24
REMARK                            x       y       z     vdW  Elec       q    Type
REMARK                         _______ _______ _______ _____ _____    ______ ____
ROOT
ATOM      1  C   UNL     1       3.134   6.154  18.581  0.00  0.00    +0.000 C 
ENDROOT
BRANCH   1   2
ATOM      2  N   UNL     1       2.493   7.478  18.538  0.00  0.00    +0.000 N 
ATOM      3  C   UNL     1       1.787   7.978  19.604  0.00  0.00    +0.000 C 
ATOM      4  O   UNL     1       1.673   7.348  20.650  0.00  0.00    +0.000 OA
ATOM      5  N   UNL     1       1.230   9.224  19.395  0.00  0.00    +0.000 N 
ATOM      6  C   UNL     1       0.546   9.897  20.493  0.00  0.00    +0.000 C 
ATOM      7  C   UNL     1       1.160  11.284  20.707  0.00  0.00    +0.000 C 
ATOM      8  C   UNL     1       1.162  12.146  19.416  0.00  0.00    +0.000 C 
ATOM      9  C   UNL     1       1.964  13.454  19.645  0.00  0.00    +0.000 C 
ATOM     10  C   UNL     1       1.004  14.606  19.375  0.00  0.00    +0.000 C 
ATOM     11  C   UNL     1      -0.368  14.023  19.643  0.00  0.00    +0.000 C 
ATOM     12  C   UNL     1      -0.266  12.622  19.059  0.00  0.00    +0.000 C 
ATOM     13  C   UNL     1       1.793  11.332  18.265  0.00  0.00    +0.000 C 
ATOM     14  C   UNL     1       1.172   9.945  18.122  0.00  0.00    +0.000 C 
ATOM     15  H   UNL     1       2.981   8.175  17.995  0.00  0.00    +0.000 HD
ENDBRANCH   1   2
BRANCH   1  16
ATOM     16  C   UNL     1       4.534   6.225  17.895  0.00  0.00    +0.000 C 
ATOM     17  O   UNL     1       4.701   6.688  16.768  0.00  0.00    +0.000 OA
ATOM     18  N   UNL     1       5.552   5.687  18.660  0.00  0.00    +0.000 N 
ATOM     19  H   UNL     1       5.398   5.655  19.662  0.00  0.00    +0.000 HD
BRANCH  18  20
ATOM     20  C   UNL     1       6.933   5.568  18.251  0.00  0.00    +0.000 C 
ATOM     21  C   UNL     1       8.135   5.573  19.180  0.00  0.00    +0.000 C 
ATOM     22  C   UNL     1       7.777   6.827  18.450  0.00  0.00    +0.000 C 
BRANCH  20  23
ATOM     23  C   UNL     1       7.106   4.862  16.996  0.00  0.00    +0.000 C 
ATOM     24  N   UNL     1       7.266   4.335  15.989  0.00  0.00    +0.000 NA
ENDBRANCH  20  23
ENDBRANCH  18  20
ENDBRANCH   1  16
BRANCH   1  25
ATOM     25  C   UNL     1       2.223   5.100  17.916  0.00  0.00    +0.000 C 
BRANCH  25  27
ATOM     26  C   UNL     1       1.240   4.104  20.063  0.00  0.00    +0.000 C 
ATOM     27  C   UNL     1       2.013   3.867  18.782  0.00  0.00    +0.000 C 
ATOM     28  F   UNL     1       3.210   3.301  19.077  0.00  0.00    +0.000 F 
ATOM     29  F   UNL     1       1.312   2.939  18.082  0.00  0.00    +0.000 F 
ENDBRANCH  25  27
ENDBRANCH   1  25
TORSDOF 6
ENDMDL
MODEL 9
REMARK VINA RESULT:      -7.0      1.679      2.412
REMARK  Name = 
REMARK  7 active torsions:
REMARK  status: ('A' for Active; 'I' for Inactive)
REMARK    1  A    between atoms: C_1  and  C_2
REMARK    2  A    between atoms: C_2  and  C_5
REMARK    3  A    between atoms: C_5  and  C_6
REMARK    4  A    between atoms: C_6  and  N_7
REMARK    5  A    between atoms: C_6  and  C_20
REMARK    6  A    between atoms: N_22  and  C_23
REMARK    7  A    between atoms: C_23  and  C_24
REMARK                            x       y       z     vdW  Elec       q    Type
REMARK                         _______ _______ _______ _____ _____    ______ ____
ROOT
ATOM      1  C   UNL     1       3.275   5.074  19.211  0.00  0.00    +0.000 C 
ENDROOT
BRANCH   1   2
ATOM      2  N   UNL     1       2.619   6.367  19.471  0.00  0.00    +0.000 N 
ATOM      3  C   UNL     1       2.640   7.387  18.555  0.00  0.00    +0.000 C 
ATOM      4  O   UNL     1       3.191   7.263  17.466  0.00  0.00    +0.000 OA
ATOM      5  N   UNL     1       1.997   8.541  18.960  0.00  0.00    +0.000 N 
ATOM      6  C   UNL     1       1.866   9.655  18.027  0.00  0.00    +0.000 C 
ATOM      7  C   UNL     1       0.390  10.042  17.896  0.00  0.00    +0.000 C 
ATOM      8  C   UNL     1      -0.274  10.356  19.263  0.00  0.00    +0.000 C 
ATOM      9  C   UNL     1      -1.802  10.551  19.087  0.00  0.00    +0.000 C 
ATOM     10  C   UNL     1      -2.123  11.954  19.589  0.00  0.00    +0.000 C 
ATOM     11  C   UNL     1      -0.827  12.720  19.419  0.00  0.00    +0.000 C 
ATOM     12  C   UNL     1       0.228  11.705  19.833  0.00  0.00    +0.000 C 
ATOM     13  C   UNL     1       0.003   9.190  20.239  0.00  0.00    +0.000 C 
ATOM     14  C   UNL     1       1.481   8.820  20.302  0.00  0.00    +0.000 C 
ATOM     15  H   UNL     1       1.779   6.318  20.027  0.00  0.00    +0.000 HD
ENDBRANCH   1   2
BRANCH   1  16
ATOM     16  C   UNL     1       4.786   5.304  18.898  0.00  0.00    +0.000 C 
ATOM     17  O   UNL     1       5.614   5.572  19.768  0.00  0.00    +0.000 OA
ATOM     18  N   UNL     1       5.092   5.213  17.553  0.00  0.00    +0.000 N 
ATOM     19  H   UNL     1       4.456   4.668  16.980  0.00  0.00    +0.000 HD
BRANCH  18  20
ATOM     20  C   UNL     1       6.397   5.436  16.974  0.00  0.00    +0.000 C 
ATOM     21  C   UNL     1       7.008   4.638  15.835  0.00  0.00    +0.000 C 
ATOM     22  C   UNL     1       7.419   4.330  17.238  0.00  0.00    +0.000 C 
BRANCH  20  23
ATOM     23  C   UNL     1       6.866   6.801  17.114  0.00  0.00    +0.000 C 
ATOM     24  N   UNL     1       7.273   7.867  17.240  0.00  0.00    +0.000 NA
ENDBRANCH  20  23
ENDBRANCH  18  20
ENDBRANCH   1  16
BRANCH   1  25
ATOM     25  C   UNL     1       2.557   4.336  18.061  0.00  0.00    +0.000 C 
BRANCH  25  27
ATOM     26  C   UNL     1       0.842   2.565  18.760  0.00  0.00    +0.000 C 
ATOM     27  C   UNL     1       2.275   2.875  18.378  0.00  0.00    +0.000 C 
ATOM     28  F   UNL     1       3.105   2.449  19.362  0.00  0.00    +0.000 F 
ATOM     29  F   UNL     1       2.550   2.115  17.288  0.00  0.00    +0.000 F 
ENDBRANCH  25  27
ENDBRANCH   1  25
TORSDOF 6
ENDMDL
