MODEL 1
REMARK VINA RESULT:      -7.5      0.000      0.000
REMARK  Name = 
REMARK  17 active torsions:
REMARK  status: ('A' for Active; 'I' for Inactive)
REMARK    1  A    between atoms: C_1  and  C_2
REMARK    2  A    between atoms: C_2  and  C_3
REMARK    3  A    between atoms: C_3  and  C_4
REMARK    4  A    between atoms: C_5  and  C_6
REMARK    5  A    between atoms: C_5  and  C_9
REMARK    6  A    between atoms: C_6  and  C_7
REMARK    7  A    between atoms: C_7  and  C_8
REMARK    8  A    between atoms: C_9  and  N_10
REMARK    9  A    between atoms: C_9  and  C_18
REMARK   10  A    between atoms: C_11  and  O_13
REMARK   11  A    between atoms: O_13  and  C_14
REMARK   12  A    between atoms: C_14  and  C_15
REMARK   13  A    between atoms: C_15  and  C_16
REMARK   14  A    between atoms: C_15  and  C_17
REMARK   15  A    between atoms: C_21  and  C_22
REMARK   16  A    between atoms: C_22  and  O_24
REMARK   17  A    between atoms: O_24  and  C_25
REMARK                            x       y       z     vdW  Elec       q    Type
REMARK                         _______ _______ _______ _____ _____    ______ ____
ROOT
ATOM      1  C   UNL     1       3.390   5.923  17.477  0.00  0.00    +0.000 C 
ENDROOT
BRANCH   1   2
ATOM      2  C   UNL     1       2.735   7.090  18.236  0.00  0.00    +0.000 A 
ATOM      3  C   UNL     1       2.428   6.941  19.600  0.00  0.00    +0.000 A 
ATOM      4  C   UNL     1       1.720   7.927  20.304  0.00  0.00    +0.000 A 
ATOM      5  C   UNL     1       1.312   9.106  19.669  0.00  0.00    +0.000 A 
ATOM      6  C   UNL     1       1.685   9.310  18.339  0.00  0.00    +0.000 A 
ATOM      7  C   UNL     1       2.403   8.323  17.642  0.00  0.00    +0.000 A 
BRANCH   5   8
ATOM      8  C   UNL     1       0.490  10.080  20.448  0.00  0.00    +0.000 C 
ATOM      9  O   UNL     1      -0.728  10.100  20.423  0.00  0.00    +0.000 OA
BRANCH   8  10
ATOM     10  O   UNL     1       1.276  10.933  21.157  0.00  0.00    +0.000 OA
ATOM     11  C   UNL     1       1.284  12.271  20.644  0.00  0.00    +0.000 C 
ENDBRANCH   8  10
ENDBRANCH   5   8
ENDBRANCH   1   2
BRANCH   1  12
ATOM     12  N   UNL     1       3.441   4.698  18.242  0.00  0.00    +0.000 N 
ATOM     13  C   UNL     1       2.914   3.526  17.804  0.00  0.00    +0.000 C 
ATOM     14  O   UNL     1       2.337   3.361  16.743  0.00  0.00    +0.000 OA
ATOM     15  H   UNL     1       3.899   4.676  19.141  0.00  0.00    +0.000 HD
BRANCH  13  16
ATOM     16  O   UNL     1       3.099   2.575  18.756  0.00  0.00    +0.000 OA
BRANCH  16  17
ATOM     17  C   UNL     1       1.903   1.986  19.291  0.00  0.00    +0.000 C 
BRANCH  17  18
ATOM     18  C   UNL     1       1.432   2.596  20.619  0.00  0.00    +0.000 C 
ATOM     19  C   UNL     1       2.588   2.839  21.588  0.00  0.00    +0.000 C 
ATOM     20  C   UNL     1       0.688   3.906  20.346  0.00  0.00    +0.000 C 
ENDBRANCH  17  18
ENDBRANCH  16  17
ENDBRANCH  13  16
ENDBRANCH   1  12
BRANCH   1  22
ATOM     21  C   UNL     1       5.727   6.869  17.735  0.00  0.00    +0.000 C 
ATOM     22  C   UNL     1       4.830   6.201  16.975  0.00  0.00    +0.000 C 
BRANCH  21  23
ATOM     23  C   UNL     1       7.161   7.200  17.438  0.00  0.00    +0.000 C 
BRANCH  23  25
ATOM     24  C   UNL     1       7.762   5.620  19.274  0.00  0.00    +0.000 C 
ATOM     25  C   UNL     1       8.114   6.943  18.608  0.00  0.00    +0.000 C 
ENDBRANCH  23  25
ENDBRANCH  21  23
BRANCH  22  26
ATOM     26  C   UNL     1       5.168   5.705  15.575  0.00  0.00    +0.000 C 
BRANCH  26  27
ATOM     27  C   UNL     1       5.790   4.305  15.415  0.00  0.00    +0.000 C 
ATOM     28  C   UNL     1       6.168   3.909  13.996  0.00  0.00    +0.000 C 
ENDBRANCH  26  27
ENDBRANCH  22  26
ENDBRANCH   1  22
TORSDOF 12
ENDMDL
MODEL 2
REMARK VINA RESULT:      -7.5      0.746      1.174
REMARK  Name = 
REMARK  17 active torsions:
REMARK  status: ('A' for Active; 'I' for Inactive)
REMARK    1  A    between atoms: C_1  and  C_2
REMARK    2  A    between atoms: C_2  and  C_3
REMARK    3  A    between atoms: C_3  and  C_4
REMARK    4  A    between atoms: C_5  and  C_6
REMARK    5  A    between atoms: C_5  and  C_9
REMARK    6  A    between atoms: C_6  and  C_7
REMARK    7  A    between atoms: C_7  and  C_8
REMARK    8  A    between atoms: C_9  and  N_10
REMARK    9  A    between atoms: C_9  and  C_18
REMARK   10  A    between atoms: C_11  and  O_13
REMARK   11  A    between atoms: O_13  and  C_14
REMARK   12  A    between atoms: C_14  and  C_15
REMARK   13  A    between atoms: C_15  and  C_16
REMARK   14  A    between atoms: C_15  and  C_17
REMARK   15  A    between atoms: C_21  and  C_22
REMARK   16  A    between atoms: C_22  and  O_24
REMARK   17  A    between atoms: O_24  and  C_25
REMARK                            x       y       z     vdW  Elec       q    Type
REMARK                         _______ _______ _______ _____ _____    ______ ____
ROOT
ATOM      1  C   UNL     1       3.591   5.851  17.358  0.00  0.00    +0.000 C 
ENDROOT
BRANCH   1   2
ATOM      2  C   UNL     1       2.870   6.912  18.208  0.00  0.00    +0.000 A 
ATOM      3  C   UNL     1       2.611   6.649  19.565  0.00  0.00    +0.000 A 
ATOM      4  C   UNL     1       1.849   7.530  20.349  0.00  0.00    +0.000 A 
ATOM      5  C   UNL     1       1.338   8.715  19.804  0.00  0.00    +0.000 A 
ATOM      6  C   UNL     1       1.662   9.034  18.484  0.00  0.00    +0.000 A 
ATOM      7  C   UNL     1       2.433   8.153  17.706  0.00  0.00    +0.000 A 
BRANCH   5   8
ATOM      8  C   UNL     1       0.467   9.569  20.665  0.00  0.00    +0.000 C 
ATOM      9  O   UNL     1       0.253  10.748  20.440  0.00  0.00    +0.000 OA
BRANCH   8  10
ATOM     10  O   UNL     1      -0.026   8.867  21.719  0.00  0.00    +0.000 OA
ATOM     11  C   UNL     1      -0.188   9.650  22.909  0.00  0.00    +0.000 C 
ENDBRANCH   8  10
ENDBRANCH   5   8
ENDBRANCH   1   2
BRANCH   1  12
ATOM     12  N   UNL     1       3.721   4.575  18.023  0.00  0.00    +0.000 N 
ATOM     13  C   UNL     1       3.042   3.464  17.637  0.00  0.00    +0.000 C 
ATOM     14  O   UNL     1       2.250   3.402  16.712  0.00  0.00    +0.000 OA
ATOM     15  H   UNL     1       4.350   4.467  18.803  0.00  0.00    +0.000 HD
BRANCH  13  16
ATOM     16  O   UNL     1       3.358   2.441  18.472  0.00  0.00    +0.000 OA
BRANCH  16  17
ATOM     17  C   UNL     1       2.338   2.065  19.413  0.00  0.00    +0.000 C 
BRANCH  17  18
ATOM     18  C   UNL     1       1.984   3.152  20.436  0.00  0.00    +0.000 C 
ATOM     19  C   UNL     1       0.613   3.774  20.171  0.00  0.00    +0.000 C 
ATOM     20  C   UNL     1       2.032   2.563  21.849  0.00  0.00    +0.000 C 
ENDBRANCH  17  18
ENDBRANCH  16  17
ENDBRANCH  13  16
ENDBRANCH   1  12
BRANCH   1  22
ATOM     21  C   UNL     1       5.842   6.975  17.664  0.00  0.00    +0.000 C 
ATOM     22  C   UNL     1       5.008   6.256  16.878  0.00  0.00    +0.000 C 
BRANCH  21  23
ATOM     23  C   UNL     1       7.247   7.426  17.390  0.00  0.00    +0.000 C 
BRANCH  23  25
ATOM     24  C   UNL     1       7.810   5.808  19.204  0.00  0.00    +0.000 C 
ATOM     25  C   UNL     1       8.237   7.093  18.510  0.00  0.00    +0.000 C 
ENDBRANCH  23  25
ENDBRANCH  21  23
BRANCH  22  26
ATOM     26  C   UNL     1       5.399   5.821  15.472  0.00  0.00    +0.000 C 
BRANCH  26  27
ATOM     27  C   UNL     1       6.143   4.486  15.289  0.00  0.00    +0.000 C 
ATOM     28  C   UNL     1       6.122   3.905  13.883  0.00  0.00    +0.000 C 
ENDBRANCH  26  27
ENDBRANCH  22  26
ENDBRANCH   1  22
TORSDOF 12
ENDMDL
MODEL 3
REMARK VINA RESULT:      -7.4      0.926      1.225
REMARK  Name = 
REMARK  17 active torsions:
REMARK  status: ('A' for Active; 'I' for Inactive)
REMARK    1  A    between atoms: C_1  and  C_2
REMARK    2  A    between atoms: C_2  and  C_3
REMARK    3  A    between atoms: C_3  and  C_4
REMARK    4  A    between atoms: C_5  and  C_6
REMARK    5  A    between atoms: C_5  and  C_9
REMARK    6  A    between atoms: C_6  and  C_7
REMARK    7  A    between atoms: C_7  and  C_8
REMARK    8  A    between atoms: C_9  and  N_10
REMARK    9  A    between atoms: C_9  and  C_18
REMARK   10  A    between atoms: C_11  and  O_13
REMARK   11  A    between atoms: O_13  and  C_14
REMARK   12  A    between atoms: C_14  and  C_15
REMARK   13  A    between atoms: C_15  and  C_16
REMARK   14  A    between atoms: C_15  and  C_17
REMARK   15  A    between atoms: C_21  and  C_22
REMARK   16  A    between atoms: C_22  and  O_24
REMARK   17  A    between atoms: O_24  and  C_25
REMARK                            x       y       z     vdW  Elec       q    Type
REMARK                         _______ _______ _______ _____ _____    ______ ____
ROOT
ATOM      1  C   UNL     1       3.471   5.743  17.566  0.00  0.00    +0.000 C 
ENDROOT
BRANCH   1   2
ATOM      2  C   UNL     1       2.798   6.839  18.411  0.00  0.00    +0.000 A 
ATOM      3  C   UNL     1       2.470   6.573  19.752  0.00  0.00    +0.000 A 
ATOM      4  C   UNL     1       1.746   7.493  20.525  0.00  0.00    +0.000 A 
ATOM      5  C   UNL     1       1.342   8.721  19.987  0.00  0.00    +0.000 A 
ATOM      6  C   UNL     1       1.736   9.038  18.685  0.00  0.00    +0.000 A 
ATOM      7  C   UNL     1       2.470   8.117  17.918  0.00  0.00    +0.000 A 
BRANCH   5   8
ATOM      8  C   UNL     1       0.504   9.622  20.832  0.00  0.00    +0.000 C 
ATOM      9  O   UNL     1      -0.489  10.196  20.419  0.00  0.00    +0.000 OA
BRANCH   8  10
ATOM     10  O   UNL     1       1.004   9.723  22.092  0.00  0.00    +0.000 OA
ATOM     11  C   UNL     1       0.026   9.512  23.119  0.00  0.00    +0.000 C 
ENDBRANCH   8  10
ENDBRANCH   5   8
ENDBRANCH   1   2
BRANCH   1  12
ATOM     12  N   UNL     1       3.416   4.434  18.176  0.00  0.00    +0.000 N 
ATOM     13  C   UNL     1       2.833   3.362  17.582  0.00  0.00    +0.000 C 
ATOM     14  O   UNL     1       2.286   3.365  16.493  0.00  0.00    +0.000 OA
ATOM     15  H   UNL     1       3.838   4.273  19.078  0.00  0.00    +0.000 HD
BRANCH  13  16
ATOM     16  O   UNL     1       2.922   2.293  18.415  0.00  0.00    +0.000 OA
BRANCH  16  17
ATOM     17  C   UNL     1       3.180   2.596  19.796  0.00  0.00    +0.000 C 
BRANCH  17  18
ATOM     18  C   UNL     1       1.943   2.541  20.702  0.00  0.00    +0.000 C 
ATOM     19  C   UNL     1       2.115   3.375  21.971  0.00  0.00    +0.000 C 
ATOM     20  C   UNL     1       0.714   3.017  19.922  0.00  0.00    +0.000 C 
ENDBRANCH  17  18
ENDBRANCH  16  17
ENDBRANCH  13  16
ENDBRANCH   1  12
BRANCH   1  22
ATOM     21  C   UNL     1       5.874   6.276  18.173  0.00  0.00    +0.000 C 
ATOM     22  C   UNL     1       4.956   6.015  17.214  0.00  0.00    +0.000 C 
BRANCH  21  23
ATOM     23  C   UNL     1       7.347   6.526  18.030  0.00  0.00    +0.000 C 
BRANCH  23  25
ATOM     24  C   UNL     1       8.397   8.774  18.298  0.00  0.00    +0.000 C 
ATOM     25  C   UNL     1       7.690   7.841  17.325  0.00  0.00    +0.000 C 
ENDBRANCH  23  25
ENDBRANCH  21  23
BRANCH  22  26
ATOM     26  C   UNL     1       5.317   5.994  15.734  0.00  0.00    +0.000 C 
BRANCH  26  27
ATOM     27  C   UNL     1       5.514   4.635  15.038  0.00  0.00    +0.000 C 
ATOM     28  C   UNL     1       6.722   4.533  14.119  0.00  0.00    +0.000 C 
ENDBRANCH  26  27
ENDBRANCH  22  26
ENDBRANCH   1  22
TORSDOF 12
ENDMDL
MODEL 4
REMARK VINA RESULT:      -7.1      0.882      1.472
REMARK  Name = 
REMARK  17 active torsions:
REMARK  status: ('A' for Active; 'I' for Inactive)
REMARK    1  A    between atoms: C_1  and  C_2
REMARK    2  A    between atoms: C_2  and  C_3
REMARK    3  A    between atoms: C_3  and  C_4
REMARK    4  A    between atoms: C_5  and  C_6
REMARK    5  A    between atoms: C_5  and  C_9
REMARK    6  A    between atoms: C_6  and  C_7
REMARK    7  A    between atoms: C_7  and  C_8
REMARK    8  A    between atoms: C_9  and  N_10
REMARK    9  A    between atoms: C_9  and  C_18
REMARK   10  A    between atoms: C_11  and  O_13
REMARK   11  A    between atoms: O_13  and  C_14
REMARK   12  A    between atoms: C_14  and  C_15
REMARK   13  A    between atoms: C_15  and  C_16
REMARK   14  A    between atoms: C_15  and  C_17
REMARK   15  A    between atoms: C_21  and  C_22
REMARK   16  A    between atoms: C_22  and  O_24
REMARK   17  A    between atoms: O_24  and  C_25
REMARK                            x       y       z     vdW  Elec       q    Type
REMARK                         _______ _______ _______ _____ _____    ______ ____
ROOT
ATOM      1  C   UNL     1       3.788   5.366  17.467  0.00  0.00    +0.000 C 
ENDROOT
BRANCH   1   2
ATOM      2  C   UNL     1       3.022   6.560  18.063  0.00  0.00    +0.000 A 
ATOM      3  C   UNL     1       2.770   7.687  17.261  0.00  0.00    +0.000 A 
ATOM      4  C   UNL     1       2.186   8.848  17.792  0.00  0.00    +0.000 A 
ATOM      5  C   UNL     1       1.817   8.912  19.141  0.00  0.00    +0.000 A 
ATOM      6  C   UNL     1       1.979   7.770  19.930  0.00  0.00    +0.000 A 
ATOM      7  C   UNL     1       2.555   6.607  19.390  0.00  0.00    +0.000 A 
BRANCH   5   8
ATOM      8  C   UNL     1       1.277  10.201  19.666  0.00  0.00    +0.000 C 
ATOM      9  O   UNL     1       1.129  11.196  18.977  0.00  0.00    +0.000 OA
BRANCH   8  10
ATOM     10  O   UNL     1       0.999  10.116  20.994  0.00  0.00    +0.000 OA
ATOM     11  C   UNL     1      -0.333  10.524  21.331  0.00  0.00    +0.000 C 
ENDBRANCH   8  10
ENDBRANCH   5   8
ENDBRANCH   1   2
BRANCH   1  12
ATOM     12  N   UNL     1       3.655   4.154  18.244  0.00  0.00    +0.000 N 
ATOM     13  C   UNL     1       2.901   3.097  17.847  0.00  0.00    +0.000 C 
ATOM     14  O   UNL     1       2.249   3.038  16.820  0.00  0.00    +0.000 OA
ATOM     15  H   UNL     1       4.148   4.052  19.118  0.00  0.00    +0.000 HD
BRANCH  13  16
ATOM     16  O   UNL     1       2.959   2.131  18.800  0.00  0.00    +0.000 OA
BRANCH  16  17
ATOM     17  C   UNL     1       1.709   1.791  19.422  0.00  0.00    +0.000 C 
BRANCH  17  18
ATOM     18  C   UNL     1       1.424   2.541  20.730  0.00  0.00    +0.000 C 
ATOM     19  C   UNL     1       2.690   2.771  21.555  0.00  0.00    +0.000 C 
ATOM     20  C   UNL     1       0.748   3.880  20.418  0.00  0.00    +0.000 C 
ENDBRANCH  17  18
ENDBRANCH  16  17
ENDBRANCH  13  16
ENDBRANCH   1  12
BRANCH   1  22
ATOM     21  C   UNL     1       6.146   5.757  18.311  0.00  0.00    +0.000 C 
ATOM     22  C   UNL     1       5.306   5.605  17.262  0.00  0.00    +0.000 C 
BRANCH  21  23
ATOM     23  C   UNL     1       7.634   5.959  18.311  0.00  0.00    +0.000 C 
BRANCH  23  25
ATOM     24  C   UNL     1       7.770   8.330  17.542  0.00  0.00    +0.000 C 
ATOM     25  C   UNL     1       8.069   7.377  18.692  0.00  0.00    +0.000 C 
ENDBRANCH  23  25
ENDBRANCH  21  23
BRANCH  22  26
ATOM     26  C   UNL     1       5.792   5.683  15.820  0.00  0.00    +0.000 C 
BRANCH  26  27
ATOM     27  C   UNL     1       5.425   4.543  14.852  0.00  0.00    +0.000 C 
ATOM     28  C   UNL     1       6.489   4.178  13.828  0.00  0.00    +0.000 C 
ENDBRANCH  26  27
ENDBRANCH  22  26
ENDBRANCH   1  22
TORSDOF 12
ENDMDL
MODEL 5
REMARK VINA RESULT:      -7.0      1.913      4.953
REMARK  Name = 
REMARK  17 active torsions:
REMARK  status: ('A' for Active; 'I' for Inactive)
REMARK    1  A    between atoms: C_1  and  C_2
REMARK    2  A    between atoms: C_2  and  C_3
REMARK    3  A    between atoms: C_3  and  C_4
REMARK    4  A    between atoms: C_5  and  C_6
REMARK    5  A    between atoms: C_5  and  C_9
REMARK    6  A    between atoms: C_6  and  C_7
REMARK    7  A    between atoms: C_7  and  C_8
REMARK    8  A    between atoms: C_9  and  N_10
REMARK    9  A    between atoms: C_9  and  C_18
REMARK   10  A    between atoms: C_11  and  O_13
REMARK   11  A    between atoms: O_13  and  C_14
REMARK   12  A    between atoms: C_14  and  C_15
REMARK   13  A    between atoms: C_15  and  C_16
REMARK   14  A    between atoms: C_15  and  C_17
REMARK   15  A    between atoms: C_21  and  C_22
REMARK   16  A    between atoms: C_22  and  O_24
REMARK   17  A    between atoms: O_24  and  C_25
REMARK                            x       y       z     vdW  Elec       q    Type
REMARK                         _______ _______ _______ _____ _____    ______ ____
ROOT
ATOM      1  C   UNL     1       3.024   6.419  18.834  0.00  0.00    +0.000 C 
ENDROOT
BRANCH   1   2
ATOM      2  C   UNL     1       2.220   7.724  18.970  0.00  0.00    +0.000 A 
ATOM      3  C   UNL     1       2.052   8.551  17.845  0.00  0.00    +0.000 A 
ATOM      4  C   UNL     1       1.435   9.808  17.946  0.00  0.00    +0.000 A 
ATOM      5  C   UNL     1       0.948  10.270  19.175  0.00  0.00    +0.000 A 
ATOM      6  C   UNL     1       1.027   9.424  20.283  0.00  0.00    +0.000 A 
ATOM      7  C   UNL     1       1.637   8.162  20.174  0.00  0.00    +0.000 A 
BRANCH   5   8
ATOM      8  C   UNL     1       0.377  11.648  19.235  0.00  0.00    +0.000 C 
ATOM      9  O   UNL     1       0.853  12.542  19.912  0.00  0.00    +0.000 OA
BRANCH   8  10
ATOM     10  O   UNL     1      -0.735  11.756  18.459  0.00  0.00    +0.000 OA
ATOM     11  C   UNL     1      -1.934  12.011  19.202  0.00  0.00    +0.000 C 
ENDBRANCH   8  10
ENDBRANCH   5   8
ENDBRANCH   1   2
BRANCH   1  12
ATOM     12  N   UNL     1       3.792   6.343  17.612  0.00  0.00    +0.000 N 
ATOM     13  C   UNL     1       5.124   6.077  17.586  0.00  0.00    +0.000 C 
ATOM     14  O   UNL     1       5.826   5.882  18.563  0.00  0.00    +0.000 OA
ATOM     15  H   UNL     1       3.344   6.473  16.718  0.00  0.00    +0.000 HD
BRANCH  13  16
ATOM     16  O   UNL     1       5.555   6.101  16.299  0.00  0.00    +0.000 OA
BRANCH  16  17
ATOM     17  C   UNL     1       6.797   5.424  16.043  0.00  0.00    +0.000 C 
BRANCH  17  18
ATOM     18  C   UNL     1       6.765   4.468  14.843  0.00  0.00    +0.000 C 
ATOM     19  C   UNL     1       5.340   4.124  14.413  0.00  0.00    +0.000 C 
ATOM     20  C   UNL     1       7.534   5.088  13.673  0.00  0.00    +0.000 C 
ENDBRANCH  17  18
ENDBRANCH  16  17
ENDBRANCH  13  16
ENDBRANCH   1  12
BRANCH   1  22
ATOM     21  C   UNL     1       1.711   4.657  20.097  0.00  0.00    +0.000 C 
ATOM     22  C   UNL     1       2.178   5.123  18.915  0.00  0.00    +0.000 C 
BRANCH  21  23
ATOM     23  C   UNL     1       0.856   3.454  20.368  0.00  0.00    +0.000 C 
BRANCH  23  25
ATOM     24  C   UNL     1       2.868   2.504  21.499  0.00  0.00    +0.000 C 
ATOM     25  C   UNL     1       1.349   2.590  21.533  0.00  0.00    +0.000 C 
ENDBRANCH  23  25
ENDBRANCH  21  23
BRANCH  22  26
ATOM     26  C   UNL     1       1.924   4.395  17.603  0.00  0.00    +0.000 C 
BRANCH  26  27
ATOM     27  C   UNL     1       2.465   2.963  17.433  0.00  0.00    +0.000 C 
ATOM     28  C   UNL     1       3.904   2.743  17.874  0.00  0.00    +0.000 C 
ENDBRANCH  26  27
ENDBRANCH  22  26
ENDBRANCH   1  22
TORSDOF 12
ENDMDL
MODEL 6
REMARK VINA RESULT:      -7.0      1.907      5.082
REMARK  Name = 
REMARK  17 active torsions:
REMARK  status: ('A' for Active; 'I' for Inactive)
REMARK    1  A    between atoms: C_1  and  C_2
REMARK    2  A    between atoms: C_2  and  C_3
REMARK    3  A    between atoms: C_3  and  C_4
REMARK    4  A    between atoms: C_5  and  C_6
REMARK    5  A    between atoms: C_5  and  C_9
REMARK    6  A    between atoms: C_6  and  C_7
REMARK    7  A    between atoms: C_7  and  C_8
REMARK    8  A    between atoms: C_9  and  N_10
REMARK    9  A    between atoms: C_9  and  C_18
REMARK   10  A    between atoms: C_11  and  O_13
REMARK   11  A    between atoms: O_13  and  C_14
REMARK   12  A    between atoms: C_14  and  C_15
REMARK   13  A    between atoms: C_15  and  C_16
REMARK   14  A    between atoms: C_15  and  C_17
REMARK   15  A    between atoms: C_21  and  C_22
REMARK   16  A    between atoms: C_22  and  O_24
REMARK   17  A    between atoms: O_24  and  C_25
REMARK                            x       y       z     vdW  Elec       q    Type
REMARK                         _______ _______ _______ _____ _____    ______ ____
ROOT
ATOM      1  C   UNL     1       2.897   6.661  19.246  0.00  0.00    +0.000 C 
ENDROOT
BRANCH   1   2
ATOM      2  C   UNL     1       2.017   7.922  19.280  0.00  0.00    +0.000 A 
ATOM      3  C   UNL     1       1.817   8.657  18.098  0.00  0.00    +0.000 A 
ATOM      4  C   UNL     1       1.126   9.878  18.103  0.00  0.00    +0.000 A 
ATOM      5  C   UNL     1       0.594  10.396  19.290  0.00  0.00    +0.000 A 
ATOM      6  C   UNL     1       0.706   9.636  20.456  0.00  0.00    +0.000 A 
ATOM      7  C   UNL     1       1.391   8.409  20.444  0.00  0.00    +0.000 A 
BRANCH   5   8
ATOM      8  C   UNL     1      -0.058  11.739  19.246  0.00  0.00    +0.000 C 
ATOM      9  O   UNL     1       0.165  12.619  20.059  0.00  0.00    +0.000 OA
BRANCH   8  10
ATOM     10  O   UNL     1      -0.928  11.831  18.205  0.00  0.00    +0.000 OA
ATOM     11  C   UNL     1      -2.284  11.533  18.559  0.00  0.00    +0.000 C 
ENDBRANCH   8  10
ENDBRANCH   5   8
ENDBRANCH   1   2
BRANCH   1  12
ATOM     12  N   UNL     1       3.789   6.615  18.109  0.00  0.00    +0.000 N 
ATOM     13  C   UNL     1       5.034   6.077  18.163  0.00  0.00    +0.000 C 
ATOM     14  O   UNL     1       5.553   5.587  19.152  0.00  0.00    +0.000 OA
ATOM     15  H   UNL     1       3.494   6.975  17.214  0.00  0.00    +0.000 HD
BRANCH  13  16
ATOM     16  O   UNL     1       5.626   6.209  16.948  0.00  0.00    +0.000 OA
BRANCH  16  17
ATOM     17  C   UNL     1       5.066   5.412  15.891  0.00  0.00    +0.000 C 
BRANCH  17  18
ATOM     18  C   UNL     1       5.915   4.196  15.493  0.00  0.00    +0.000 C 
ATOM     19  C   UNL     1       6.029   4.040  13.978  0.00  0.00    +0.000 C 
ATOM     20  C   UNL     1       7.308   4.316  16.118  0.00  0.00    +0.000 C 
ENDBRANCH  17  18
ENDBRANCH  16  17
ENDBRANCH  13  16
ENDBRANCH   1  12
BRANCH   1  22
ATOM     21  C   UNL     1       1.976   4.573  18.144  0.00  0.00    +0.000 C 
ATOM     22  C   UNL     1       2.117   5.322  19.262  0.00  0.00    +0.000 C 
BRANCH  21  23
ATOM     23  C   UNL     1       1.293   3.247  17.973  0.00  0.00    +0.000 C 
BRANCH  23  25
ATOM     24  C   UNL     1       3.663   2.475  17.870  0.00  0.00    +0.000 C 
ATOM     25  C   UNL     1       2.226   2.043  18.124  0.00  0.00    +0.000 C 
ENDBRANCH  23  25
ENDBRANCH  21  23
BRANCH  22  26
ATOM     26  C   UNL     1       1.500   4.912  20.592  0.00  0.00    +0.000 C 
BRANCH  26  27
ATOM     27  C   UNL     1       2.238   3.877  21.463  0.00  0.00    +0.000 C 
ATOM     28  C   UNL     1       1.518   2.553  21.668  0.00  0.00    +0.000 C 
ENDBRANCH  26  27
ENDBRANCH  22  26
ENDBRANCH   1  22
TORSDOF 12
ENDMDL
MODEL 7
REMARK VINA RESULT:      -7.0      1.921      4.893
REMARK  Name = 
REMARK  17 active torsions:
REMARK  status: ('A' for Active; 'I' for Inactive)
REMARK    1  A    between atoms: C_1  and  C_2
REMARK    2  A    between atoms: C_2  and  C_3
REMARK    3  A    between atoms: C_3  and  C_4
REMARK    4  A    between atoms: C_5  and  C_6
REMARK    5  A    between atoms: C_5  and  C_9
REMARK    6  A    between atoms: C_6  and  C_7
REMARK    7  A    between atoms: C_7  and  C_8
REMARK    8  A    between atoms: C_9  and  N_10
REMARK    9  A    between atoms: C_9  and  C_18
REMARK   10  A    between atoms: C_11  and  O_13
REMARK   11  A    between atoms: O_13  and  C_14
REMARK   12  A    between atoms: C_14  and  C_15
REMARK   13  A    between atoms: C_15  and  C_16
REMARK   14  A    between atoms: C_15  and  C_17
REMARK   15  A    between atoms: C_21  and  C_22
REMARK   16  A    between atoms: C_22  and  O_24
REMARK   17  A    between atoms: O_24  and  C_25
REMARK                            x       y       z     vdW  Elec       q    Type
REMARK                         _______ _______ _______ _____ _____    ______ ____
ROOT
ATOM      1  C   UNL     1       3.346   6.147  18.441  0.00  0.00    +0.000 C 
ENDROOT
BRANCH   1   2
ATOM      2  C   UNL     1       2.548   7.439  18.684  0.00  0.00    +0.000 A 
ATOM      3  C   UNL     1       2.046   7.708  19.970  0.00  0.00    +0.000 A 
ATOM      4  C   UNL     1       1.209   8.808  20.214  0.00  0.00    +0.000 A 
ATOM      5  C   UNL     1       0.862   9.687  19.181  0.00  0.00    +0.000 A 
ATOM      6  C   UNL     1       1.423   9.485  17.918  0.00  0.00    +0.000 A 
ATOM      7  C   UNL     1       2.269   8.387  17.682  0.00  0.00    +0.000 A 
BRANCH   5   8
ATOM      8  C   UNL     1      -0.098  10.790  19.484  0.00  0.00    +0.000 C 
ATOM      9  O   UNL     1      -0.446  11.083  20.615  0.00  0.00    +0.000 OA
BRANCH   8  10
ATOM     10  O   UNL     1      -0.532  11.394  18.346  0.00  0.00    +0.000 OA
ATOM     11  C   UNL     1      -0.695  12.813  18.473  0.00  0.00    +0.000 C 
ENDBRANCH   8  10
ENDBRANCH   5   8
ENDBRANCH   1   2
BRANCH   1  12
ATOM     12  N   UNL     1       3.980   6.100  17.143  0.00  0.00    +0.000 N 
ATOM     13  C   UNL     1       5.307   6.319  16.955  0.00  0.00    +0.000 C 
ATOM     14  O   UNL     1       6.112   6.586  17.830  0.00  0.00    +0.000 OA
ATOM     15  H   UNL     1       3.441   5.879  16.319  0.00  0.00    +0.000 HD
BRANCH  13  16
ATOM     16  O   UNL     1       5.586   6.231  15.629  0.00  0.00    +0.000 OA
BRANCH  16  17
ATOM     17  C   UNL     1       5.208   5.000  14.991  0.00  0.00    +0.000 C 
BRANCH  17  18
ATOM     18  C   UNL     1       6.356   4.278  14.271  0.00  0.00    +0.000 C 
ATOM     19  C   UNL     1       5.898   3.610  12.975  0.00  0.00    +0.000 C 
ATOM     20  C   UNL     1       7.486   5.271  13.982  0.00  0.00    +0.000 C 
ENDBRANCH  17  18
ENDBRANCH  16  17
ENDBRANCH  13  16
ENDBRANCH   1  12
BRANCH   1  22
ATOM     21  C   UNL     1       1.669   4.656  19.620  0.00  0.00    +0.000 C 
ATOM     22  C   UNL     1       2.528   4.839  18.590  0.00  0.00    +0.000 C 
BRANCH  21  23
ATOM     23  C   UNL     1       0.774   3.486  19.910  0.00  0.00    +0.000 C 
BRANCH  23  25
ATOM     24  C   UNL     1       2.274   3.292  21.895  0.00  0.00    +0.000 C 
ATOM     25  C   UNL     1       1.319   2.537  20.981  0.00  0.00    +0.000 C 
ENDBRANCH  23  25
ENDBRANCH  21  23
BRANCH  22  26
ATOM     26  C   UNL     1       2.761   3.768  17.533  0.00  0.00    +0.000 C 
BRANCH  26  27
ATOM     27  C   UNL     1       3.910   2.762  17.737  0.00  0.00    +0.000 C 
ATOM     28  C   UNL     1       3.517   1.426  18.348  0.00  0.00    +0.000 C 
ENDBRANCH  26  27
ENDBRANCH  22  26
ENDBRANCH   1  22
TORSDOF 12
ENDMDL
MODEL 8
REMARK VINA RESULT:      -7.0      1.887      4.751
REMARK  Name = 
REMARK  17 active torsions:
REMARK  status: ('A' for Active; 'I' for Inactive)
REMARK    1  A    between atoms: C_1  and  C_2
REMARK    2  A    between atoms: C_2  and  C_3
REMARK    3  A    between atoms: C_3  and  C_4
REMARK    4  A    between atoms: C_5  and  C_6
REMARK    5  A    between atoms: C_5  and  C_9
REMARK    6  A    between atoms: C_6  and  C_7
REMARK    7  A    between atoms: C_7  and  C_8
REMARK    8  A    between atoms: C_9  and  N_10
REMARK    9  A    between atoms: C_9  and  C_18
REMARK   10  A    between atoms: C_11  and  O_13
REMARK   11  A    between atoms: O_13  and  C_14
REMARK   12  A    between atoms: C_14  and  C_15
REMARK   13  A    between atoms: C_15  and  C_16
REMARK   14  A    between atoms: C_15  and  C_17
REMARK   15  A    between atoms: C_21  and  C_22
REMARK   16  A    between atoms: C_22  and  O_24
REMARK   17  A    between atoms: O_24  and  C_25
REMARK                            x       y       z     vdW  Elec       q    Type
REMARK                         _______ _______ _______ _____ _____    ______ ____
ROOT
ATOM      1  C   UNL     1       3.074   6.403  18.953  0.00  0.00    +0.000 C 
ENDROOT
BRANCH   1   2
ATOM      2  C   UNL     1       2.292   7.727  19.005  0.00  0.00    +0.000 A 
ATOM      3  C   UNL     1       1.717   8.141  20.219  0.00  0.00    +0.000 A 
ATOM      4  C   UNL     1       0.892   9.275  20.289  0.00  0.00    +0.000 A 
ATOM      5  C   UNL     1       0.631  10.043  19.148  0.00  0.00    +0.000 A 
ATOM      6  C   UNL     1       1.266   9.696  17.953  0.00  0.00    +0.000 A 
ATOM      7  C   UNL     1       2.099   8.566  17.891  0.00  0.00    +0.000 A 
BRANCH   5   8
ATOM      8  C   UNL     1      -0.319  11.188  19.269  0.00  0.00    +0.000 C 
ATOM      9  O   UNL     1      -0.368  12.107  18.470  0.00  0.00    +0.000 OA
BRANCH   8  10
ATOM     10  O   UNL     1      -1.093  11.072  20.382  0.00  0.00    +0.000 OA
ATOM     11  C   UNL     1      -1.103  12.247  21.202  0.00  0.00    +0.000 C 
ENDBRANCH   8  10
ENDBRANCH   5   8
ENDBRANCH   1   2
BRANCH   1  12
ATOM     12  N   UNL     1       3.955   6.301  17.811  0.00  0.00    +0.000 N 
ATOM     13  C   UNL     1       5.267   5.967  17.913  0.00  0.00    +0.000 C 
ATOM     14  O   UNL     1       5.859   5.726  18.951  0.00  0.00    +0.000 OA
ATOM     15  H   UNL     1       3.604   6.463  16.880  0.00  0.00    +0.000 HD
BRANCH  13  16
ATOM     16  O   UNL     1       5.824   5.983  16.675  0.00  0.00    +0.000 OA
BRANCH  16  17
ATOM     17  C   UNL     1       6.788   4.950  16.410  0.00  0.00    +0.000 C 
BRANCH  17  18
ATOM     18  C   UNL     1       6.610   4.246  15.058  0.00  0.00    +0.000 C 
ATOM     19  C   UNL     1       5.140   4.102  14.667  0.00  0.00    +0.000 C 
ATOM     20  C   UNL     1       7.372   5.016  13.974  0.00  0.00    +0.000 C 
ENDBRANCH  17  18
ENDBRANCH  16  17
ENDBRANCH  13  16
ENDBRANCH   1  12
BRANCH   1  22
ATOM     21  C   UNL     1       1.660   4.641  20.102  0.00  0.00    +0.000 C 
ATOM     22  C   UNL     1       2.194   5.127  18.958  0.00  0.00    +0.000 C 
BRANCH  21  23
ATOM     23  C   UNL     1       0.764   3.453  20.298  0.00  0.00    +0.000 C 
BRANCH  23  25
ATOM     24  C   UNL     1       2.771   2.690  21.570  0.00  0.00    +0.000 C 
ATOM     25  C   UNL     1       1.292   2.436  21.314  0.00  0.00    +0.000 C 
ENDBRANCH  23  25
ENDBRANCH  21  23
BRANCH  22  26
ATOM     26  C   UNL     1       1.984   4.442  17.614  0.00  0.00    +0.000 C 
BRANCH  26  27
ATOM     27  C   UNL     1       2.449   2.984  17.444  0.00  0.00    +0.000 C 
ATOM     28  C   UNL     1       3.858   2.679  17.930  0.00  0.00    +0.000 C 
ENDBRANCH  26  27
ENDBRANCH  22  26
ENDBRANCH   1  22
TORSDOF 12
ENDMDL
MODEL 9
REMARK VINA RESULT:      -7.0      1.927      4.824
REMARK  Name = 
REMARK  17 active torsions:
REMARK  status: ('A' for Active; 'I' for Inactive)
REMARK    1  A    between atoms: C_1  and  C_2
REMARK    2  A    between atoms: C_2  and  C_3
REMARK    3  A    between atoms: C_3  and  C_4
REMARK    4  A    between atoms: C_5  and  C_6
REMARK    5  A    between atoms: C_5  and  C_9
REMARK    6  A    between atoms: C_6  and  C_7
REMARK    7  A    between atoms: C_7  and  C_8
REMARK    8  A    between atoms: C_9  and  N_10
REMARK    9  A    between atoms: C_9  and  C_18
REMARK   10  A    between atoms: C_11  and  O_13
REMARK   11  A    between atoms: O_13  and  C_14
REMARK   12  A    between atoms: C_14  and  C_15
REMARK   13  A    between atoms: C_15  and  C_16
REMARK   14  A    between atoms: C_15  and  C_17
REMARK   15  A    between atoms: C_21  and  C_22
REMARK   16  A    between atoms: C_22  and  O_24
REMARK   17  A    between atoms: O_24  and  C_25
REMARK                            x       y       z     vdW  Elec       q    Type
REMARK                         _______ _______ _______ _____ _____    ______ ____
ROOT
ATOM      1  C   UNL     1       3.018   6.494  19.220  0.00  0.00    +0.000 C 
ENDROOT
BRANCH   1   2
ATOM      2  C   UNL     1       2.235   7.810  19.074  0.00  0.00    +0.000 A 
ATOM      3  C   UNL     1       1.549   8.332  20.185  0.00  0.00    +0.000 A 
ATOM      4  C   UNL     1       0.722   9.460  20.071  0.00  0.00    +0.000 A 
ATOM      5  C   UNL     1       0.569  10.116  18.843  0.00  0.00    +0.000 A 
ATOM      6  C   UNL     1       1.313   9.664  17.751  0.00  0.00    +0.000 A 
ATOM      7  C   UNL     1       2.147   8.539  17.873  0.00  0.00    +0.000 A 
BRANCH   5   8
ATOM      8  C   UNL     1      -0.388  11.259  18.767  0.00  0.00    +0.000 C 
ATOM      9  O   UNL     1      -0.055  12.394  18.474  0.00  0.00    +0.000 OA
BRANCH   8  10
ATOM     10  O   UNL     1      -1.652  10.867  19.082  0.00  0.00    +0.000 OA
ATOM     11  C   UNL     1      -2.358  10.266  17.990  0.00  0.00    +0.000 C 
ENDBRANCH   8  10
ENDBRANCH   5   8
ENDBRANCH   1   2
BRANCH   1  12
ATOM     12  N   UNL     1       4.036   6.316  18.210  0.00  0.00    +0.000 N 
ATOM     13  C   UNL     1       5.266   5.807  18.477  0.00  0.00    +0.000 C 
ATOM     14  O   UNL     1       5.664   5.452  19.572  0.00  0.00    +0.000 OA
ATOM     15  H   UNL     1       3.849   6.557  17.249  0.00  0.00    +0.000 HD
BRANCH  13  16
ATOM     16  O   UNL     1       5.996   5.793  17.332  0.00  0.00    +0.000 OA
BRANCH  16  17
ATOM     17  C   UNL     1       5.242   5.839  16.109  0.00  0.00    +0.000 C 
BRANCH  17  18
ATOM     18  C   UNL     1       5.991   5.311  14.878  0.00  0.00    +0.000 C 
ATOM     19  C   UNL     1       7.408   4.849  15.216  0.00  0.00    +0.000 C 
ATOM     20  C   UNL     1       5.198   4.163  14.248  0.00  0.00    +0.000 C 
ENDBRANCH  17  18
ENDBRANCH  16  17
ENDBRANCH  13  16
ENDBRANCH   1  12
BRANCH   1  22
ATOM     21  C   UNL     1       1.671   4.670  20.355  0.00  0.00    +0.000 C 
ATOM     22  C   UNL     1       2.144   5.213  19.209  0.00  0.00    +0.000 C 
BRANCH  21  23
ATOM     23  C   UNL     1       0.791   3.468  20.539  0.00  0.00    +0.000 C 
BRANCH  23  25
ATOM     24  C   UNL     1       2.879   2.503  21.508  0.00  0.00    +0.000 C 
ATOM     25  C   UNL     1       1.359   2.424  21.505  0.00  0.00    +0.000 C 
ENDBRANCH  23  25
ENDBRANCH  21  23
BRANCH  22  26
ATOM     26  C   UNL     1       1.870   4.591  17.847  0.00  0.00    +0.000 C 
BRANCH  26  27
ATOM     27  C   UNL     1       2.789   3.460  17.349  0.00  0.00    +0.000 C 
ATOM     28  C   UNL     1       2.406   2.055  17.790  0.00  0.00    +0.000 C 
ENDBRANCH  26  27
ENDBRANCH  22  26
ENDBRANCH   1  22
TORSDOF 12
ENDMDL
