MODEL 1
REMARK VINA RESULT:      -4.9      0.000      0.000
REMARK  Name = 
REMARK  0 active torsions:
REMARK  status: ('A' for Active; 'I' for Inactive)
REMARK                            x       y       z     vdW  Elec       q    Type
REMARK                         _______ _______ _______ _____ _____    ______ ____
ROOT
ATOM      1  N   UNL     1       8.274   5.337  20.264  0.00  0.00    +0.000 N 
ATOM      2  C   UNL     1       7.916   5.651  18.982  0.00  0.00    +0.000 A 
ATOM      3  C   UNL     1       7.968   7.064  18.536  0.00  0.00    +0.000 A 
ATOM      4  C   UNL     1       7.627   7.280  17.266  0.00  0.00    +0.000 A 
ATOM      5  N   UNL     1       7.255   6.236  16.476  0.00  0.00    +0.000 N 
ATOM      6  C   UNL     1       7.194   4.932  16.914  0.00  0.00    +0.000 A 
ATOM      7  O   UNL     1       6.830   4.060  16.131  0.00  0.00    +0.000 OA
ATOM      8  N   UNL     1       7.544   4.670  18.215  0.00  0.00    +0.000 NA
ATOM      9  H   UNL     1       8.136   6.035  20.982  0.00  0.00    +0.000 HD
ATOM     10  H   UNL     1       7.974   4.403  20.533  0.00  0.00    +0.000 HD
ATOM     11  H   UNL     1       6.999   6.369  15.508  0.00  0.00    +0.000 HD
ENDROOT
TORSDOF 0
ENDMDL
MODEL 2
REMARK VINA RESULT:      -4.9      2.456      3.811
REMARK  Name = 
REMARK  0 active torsions:
REMARK  status: ('A' for Active; 'I' for Inactive)
REMARK                            x       y       z     vdW  Elec       q    Type
REMARK                         _______ _______ _______ _____ _____    ______ ____
ROOT
ATOM      1  N   UNL     1       7.503   5.359  14.052  0.00  0.00    +0.000 N 
ATOM      2  C   UNL     1       6.948   4.910  15.218  0.00  0.00    +0.000 A 
ATOM      3  C   UNL     1       5.561   4.386  15.211  0.00  0.00    +0.000 A 
ATOM      4  C   UNL     1       5.106   3.946  16.384  0.00  0.00    +0.000 A 
ATOM      5  N   UNL     1       5.903   4.006  17.487  0.00  0.00    +0.000 N 
ATOM      6  C   UNL     1       7.181   4.515  17.477  0.00  0.00    +0.000 A 
ATOM      7  O   UNL     1       7.817   4.543  18.527  0.00  0.00    +0.000 OA
ATOM      8  N   UNL     1       7.687   4.972  16.285  0.00  0.00    +0.000 NA
ATOM      9  H   UNL     1       6.887   5.740  13.346  0.00  0.00    +0.000 HD
ATOM     10  H   UNL     1       8.342   5.912  14.208  0.00  0.00    +0.000 HD
ATOM     11  H   UNL     1       5.587   3.673  18.387  0.00  0.00    +0.000 HD
ENDROOT
TORSDOF 0
ENDMDL
MODEL 3
REMARK VINA RESULT:      -4.7      1.897      2.396
REMARK  Name = 
REMARK  0 active torsions:
REMARK  status: ('A' for Active; 'I' for Inactive)
REMARK                            x       y       z     vdW  Elec       q    Type
REMARK                         _______ _______ _______ _____ _____    ______ ____
ROOT
ATOM      1  N   UNL     1       8.281   5.256  20.243  0.00  0.00    +0.000 N 
ATOM      2  C   UNL     1       7.954   5.660  18.978  0.00  0.00    +0.000 A 
ATOM      3  C   UNL     1       7.556   4.649  17.970  0.00  0.00    +0.000 A 
ATOM      4  C   UNL     1       7.229   5.130  16.770  0.00  0.00    +0.000 A 
ATOM      5  N   UNL     1       7.284   6.471  16.539  0.00  0.00    +0.000 N 
ATOM      6  C   UNL     1       7.675   7.392  17.484  0.00  0.00    +0.000 A 
ATOM      7  O   UNL     1       7.709   8.580  17.175  0.00  0.00    +0.000 OA
ATOM      8  N   UNL     1       8.013   6.935  18.733  0.00  0.00    +0.000 NA
ATOM      9  H   UNL     1       8.673   4.331  20.362  0.00  0.00    +0.000 HD
ATOM     10  H   UNL     1       8.765   5.979  20.770  0.00  0.00    +0.000 HD
ATOM     11  H   UNL     1       7.035   6.864  15.642  0.00  0.00    +0.000 HD
ENDROOT
TORSDOF 0
ENDMDL
MODEL 4
REMARK VINA RESULT:      -4.6      6.443      7.174
REMARK  Name = 
REMARK  0 active torsions:
REMARK  status: ('A' for Active; 'I' for Inactive)
REMARK                            x       y       z     vdW  Elec       q    Type
REMARK                         _______ _______ _______ _____ _____    ______ ____
ROOT
ATOM      1  N   UNL     1       3.965   1.709  18.341  0.00  0.00    +0.000 N 
ATOM      2  C   UNL     1       2.926   2.174  19.099  0.00  0.00    +0.000 A 
ATOM      3  C   UNL     1       1.593   2.355  18.475  0.00  0.00    +0.000 A 
ATOM      4  C   UNL     1       0.631   2.789  19.290  0.00  0.00    +0.000 A 
ATOM      5  N   UNL     1       0.912   3.041  20.598  0.00  0.00    +0.000 N 
ATOM      6  C   UNL     1       2.161   2.884  21.153  0.00  0.00    +0.000 A 
ATOM      7  O   UNL     1       2.320   3.153  22.341  0.00  0.00    +0.000 OA
ATOM      8  N   UNL     1       3.176   2.434  20.347  0.00  0.00    +0.000 NA
ATOM      9  H   UNL     1       3.961   1.912  17.350  0.00  0.00    +0.000 HD
ATOM     10  H   UNL     1       4.867   1.852  18.787  0.00  0.00    +0.000 HD
ATOM     11  H   UNL     1       0.201   3.363  21.239  0.00  0.00    +0.000 HD
ENDROOT
TORSDOF 0
ENDMDL
MODEL 5
REMARK VINA RESULT:      -4.6      2.104      3.447
REMARK  Name = 
REMARK  0 active torsions:
REMARK  status: ('A' for Active; 'I' for Inactive)
REMARK                            x       y       z     vdW  Elec       q    Type
REMARK                         _______ _______ _______ _____ _____    ______ ____
ROOT
ATOM      1  N   UNL     1       5.318   6.648  15.465  0.00  0.00    +0.000 N 
ATOM      2  C   UNL     1       5.640   5.796  16.485  0.00  0.00    +0.000 A 
ATOM      3  C   UNL     1       4.583   5.354  17.426  0.00  0.00    +0.000 A 
ATOM      4  C   UNL     1       4.976   4.504  18.375  0.00  0.00    +0.000 A 
ATOM      5  N   UNL     1       6.278   4.108  18.434  0.00  0.00    +0.000 N 
ATOM      6  C   UNL     1       7.248   4.545  17.562  0.00  0.00    +0.000 A 
ATOM      7  O   UNL     1       8.400   4.144  17.707  0.00  0.00    +0.000 OA
ATOM      8  N   UNL     1       6.880   5.417  16.568  0.00  0.00    +0.000 NA
ATOM      9  H   UNL     1       4.550   7.291  15.605  0.00  0.00    +0.000 HD
ATOM     10  H   UNL     1       6.139   7.073  15.039  0.00  0.00    +0.000 HD
ATOM     11  H   UNL     1       6.602   3.460  19.138  0.00  0.00    +0.000 HD
ENDROOT
TORSDOF 0
ENDMDL
MODEL 6
REMARK VINA RESULT:      -4.6      1.114      2.292
REMARK  Name = 
REMARK  0 active torsions:
REMARK  status: ('A' for Active; 'I' for Inactive)
REMARK                            x       y       z     vdW  Elec       q    Type
REMARK                         _______ _______ _______ _____ _____    ______ ____
ROOT
ATOM      1  N   UNL     1       7.631   8.314  17.288  0.00  0.00    +0.000 N 
ATOM      2  C   UNL     1       7.568   6.958  17.455  0.00  0.00    +0.000 A 
ATOM      3  C   UNL     1       7.838   6.375  18.791  0.00  0.00    +0.000 A 
ATOM      4  C   UNL     1       7.732   5.049  18.873  0.00  0.00    +0.000 A 
ATOM      5  N   UNL     1       7.403   4.325  17.768  0.00  0.00    +0.000 N 
ATOM      6  C   UNL     1       7.175   4.884  16.531  0.00  0.00    +0.000 A 
ATOM      7  O   UNL     1       6.900   4.146  15.588  0.00  0.00    +0.000 OA
ATOM      8  N   UNL     1       7.269   6.247  16.409  0.00  0.00    +0.000 NA
ATOM      9  H   UNL     1       8.255   8.839  17.885  0.00  0.00    +0.000 HD
ATOM     10  H   UNL     1       7.672   8.583  16.309  0.00  0.00    +0.000 HD
ATOM     11  H   UNL     1       7.308   3.320  17.802  0.00  0.00    +0.000 HD
ENDROOT
TORSDOF 0
ENDMDL
MODEL 7
REMARK VINA RESULT:      -4.6      5.765      6.469
REMARK  Name = 
REMARK  0 active torsions:
REMARK  status: ('A' for Active; 'I' for Inactive)
REMARK                            x       y       z     vdW  Elec       q    Type
REMARK                         _______ _______ _______ _____ _____    ______ ____
ROOT
ATOM      1  N   UNL     1       0.688   3.240  20.501  0.00  0.00    +0.000 N 
ATOM      2  C   UNL     1       1.785   2.797  19.813  0.00  0.00    +0.000 A 
ATOM      3  C   UNL     1       1.674   2.531  18.359  0.00  0.00    +0.000 A 
ATOM      4  C   UNL     1       2.794   2.125  17.761  0.00  0.00    +0.000 A 
ATOM      5  N   UNL     1       3.935   1.975  18.489  0.00  0.00    +0.000 N 
ATOM      6  C   UNL     1       4.013   2.209  19.843  0.00  0.00    +0.000 A 
ATOM      7  O   UNL     1       5.084   2.029  20.416  0.00  0.00    +0.000 OA
ATOM      8  N   UNL     1       2.880   2.633  20.492  0.00  0.00    +0.000 NA
ATOM      9  H   UNL     1      -0.226   2.968  20.167  0.00  0.00    +0.000 HD
ATOM     10  H   UNL     1       0.801   3.157  21.508  0.00  0.00    +0.000 HD
ATOM     11  H   UNL     1       4.800   1.677  18.061  0.00  0.00    +0.000 HD
ENDROOT
TORSDOF 0
ENDMDL
MODEL 8
REMARK VINA RESULT:      -4.5      6.114      6.617
REMARK  Name = 
REMARK  0 active torsions:
REMARK  status: ('A' for Active; 'I' for Inactive)
REMARK                            x       y       z     vdW  Elec       q    Type
REMARK                         _______ _______ _______ _____ _____    ______ ____
ROOT
ATOM      1  N   UNL     1       4.754   2.231  20.071  0.00  0.00    +0.000 N 
ATOM      2  C   UNL     1       3.425   2.550  20.099  0.00  0.00    +0.000 A 
ATOM      3  C   UNL     1       2.716   2.605  21.399  0.00  0.00    +0.000 A 
ATOM      4  C   UNL     1       1.429   2.947  21.339  0.00  0.00    +0.000 A 
ATOM      5  N   UNL     1       0.852   3.210  20.134  0.00  0.00    +0.000 N 
ATOM      6  C   UNL     1       1.524   3.135  18.935  0.00  0.00    +0.000 A 
ATOM      7  O   UNL     1       0.913   3.375  17.897  0.00  0.00    +0.000 OA
ATOM      8  N   UNL     1       2.852   2.791  18.958  0.00  0.00    +0.000 NA
ATOM      9  H   UNL     1       5.116   1.632  20.801  0.00  0.00    +0.000 HD
ATOM     10  H   UNL     1       5.076   1.985  19.138  0.00  0.00    +0.000 HD
ATOM     11  H   UNL     1      -0.119   3.479  20.059  0.00  0.00    +0.000 HD
ENDROOT
TORSDOF 0
ENDMDL
MODEL 9
REMARK VINA RESULT:      -4.5      1.708      1.909
REMARK  Name = 
REMARK  0 active torsions:
REMARK  status: ('A' for Active; 'I' for Inactive)
REMARK                            x       y       z     vdW  Elec       q    Type
REMARK                         _______ _______ _______ _____ _____    ______ ____
ROOT
ATOM      1  N   UNL     1       5.659   3.632  18.812  0.00  0.00    +0.000 N 
ATOM      2  C   UNL     1       6.267   4.607  18.070  0.00  0.00    +0.000 A 
ATOM      3  C   UNL     1       6.947   5.729  18.759  0.00  0.00    +0.000 A 
ATOM      4  C   UNL     1       7.535   6.623  17.964  0.00  0.00    +0.000 A 
ATOM      5  N   UNL     1       7.476   6.469  16.612  0.00  0.00    +0.000 N 
ATOM      6  C   UNL     1       6.823   5.430  15.990  0.00  0.00    +0.000 A 
ATOM      7  O   UNL     1       6.811   5.386  14.763  0.00  0.00    +0.000 OA
ATOM      8  N   UNL     1       6.211   4.487  16.778  0.00  0.00    +0.000 NA
ATOM      9  H   UNL     1       5.294   3.882  19.721  0.00  0.00    +0.000 HD
ATOM     10  H   UNL     1       5.028   3.058  18.258  0.00  0.00    +0.000 HD
ATOM     11  H   UNL     1       7.919   7.126  15.985  0.00  0.00    +0.000 HD
ENDROOT
TORSDOF 0
ENDMDL
