MODEL 1
REMARK VINA RESULT:      -7.9      0.000      0.000
REMARK  Name = 
REMARK  5 active torsions:
REMARK  status: ('A' for Active; 'I' for Inactive)
REMARK    1  A    between atoms: C_1  and  N_2
REMARK    2  A    between atoms: N_2  and  C_3
REMARK    3  A    between atoms: N_2  and  C_4
REMARK    4  A    between atoms: C_7  and  C_8
REMARK    5  A    between atoms: C_9  and  C_10
REMARK                            x       y       z     vdW  Elec       q    Type
REMARK                         _______ _______ _______ _____ _____    ______ ____
ROOT
ATOM      1  C   UNL     1       8.142   8.799  17.801  0.00  0.00    +0.000 C 
ATOM      2  C   UNL     1       8.885   9.198  18.839  0.00  0.00    +0.000 C 
ENDROOT
BRANCH   2   3
ATOM      3  C   UNL     1       9.419  10.554  19.021  0.00  0.00    +0.000 A 
ATOM      4  C   UNL     1       9.862  11.006  20.289  0.00  0.00    +0.000 A 
ATOM      5  C   UNL     1      10.691  12.124  20.409  0.00  0.00    +0.000 A 
ATOM      6  C   UNL     1      11.089  12.730  19.241  0.00  0.00    +0.000 A 
ATOM      7  C   UNL     1      10.607  12.337  18.012  0.00  0.00    +0.000 A 
ATOM      8  C   UNL     1       9.739  11.282  17.869  0.00  0.00    +0.000 A 
ATOM      9  O   UNL     1      11.212  13.005  16.989  0.00  0.00    +0.000 OA
ATOM     10  C   UNL     1      12.333  13.553  17.709  0.00  0.00    +0.000 C 
ATOM     11  O   UNL     1      12.068  13.671  19.124  0.00  0.00    +0.000 OA
ENDBRANCH   2   3
BRANCH   1  15
ATOM     12  C   UNL     1       5.862   5.136  17.954  0.00  0.00    +0.000 A 
ATOM     13  C   UNL     1       7.033   5.299  18.705  0.00  0.00    +0.000 A 
ATOM     14  C   UNL     1       7.788   6.477  18.647  0.00  0.00    +0.000 A 
ATOM     15  C   UNL     1       7.386   7.544  17.836  0.00  0.00    +0.000 A 
ATOM     16  C   UNL     1       6.194   7.433  17.134  0.00  0.00    +0.000 A 
ATOM     17  C   UNL     1       5.448   6.246  17.194  0.00  0.00    +0.000 A 
BRANCH  12  19
ATOM     18  C   UNL     1       4.174   3.681  16.890  0.00  0.00    +0.000 C 
ATOM     19  N   UNL     1       5.119   3.949  17.973  0.00  0.00    +0.000 N 
ATOM     20  C   UNL     1       4.775   3.402  19.282  0.00  0.00    +0.000 C 
ENDBRANCH  12  19
ENDBRANCH   1  15
TORSDOF 3
ENDMDL
MODEL 2
REMARK VINA RESULT:      -7.9      0.183      1.084
REMARK  Name = 
REMARK  5 active torsions:
REMARK  status: ('A' for Active; 'I' for Inactive)
REMARK    1  A    between atoms: C_1  and  N_2
REMARK    2  A    between atoms: N_2  and  C_3
REMARK    3  A    between atoms: N_2  and  C_4
REMARK    4  A    between atoms: C_7  and  C_8
REMARK    5  A    between atoms: C_9  and  C_10
REMARK                            x       y       z     vdW  Elec       q    Type
REMARK                         _______ _______ _______ _____ _____    ______ ____
ROOT
ATOM      1  C   UNL     1       8.393   8.735  17.871  0.00  0.00    +0.000 C 
ATOM      2  C   UNL     1       8.856   9.297  18.992  0.00  0.00    +0.000 C 
ENDROOT
BRANCH   2   3
ATOM      3  C   UNL     1       9.448  10.638  19.081  0.00  0.00    +0.000 A 
ATOM      4  C   UNL     1      10.015  11.114  20.290  0.00  0.00    +0.000 A 
ATOM      5  C   UNL     1      10.887  12.205  20.299  0.00  0.00    +0.000 A 
ATOM      6  C   UNL     1      11.201  12.759  19.080  0.00  0.00    +0.000 A 
ATOM      7  C   UNL     1      10.601  12.344  17.911  0.00  0.00    +0.000 A 
ATOM      8  C   UNL     1       9.690  11.317  17.881  0.00  0.00    +0.000 A 
ATOM      9  O   UNL     1      11.135  12.958  16.818  0.00  0.00    +0.000 OA
ATOM     10  C   UNL     1      12.332  13.489  17.419  0.00  0.00    +0.000 C 
ATOM     11  O   UNL     1      12.196  13.660  18.846  0.00  0.00    +0.000 OA
ENDBRANCH   2   3
BRANCH   1  15
ATOM     12  C   UNL     1       5.931   5.188  17.927  0.00  0.00    +0.000 A 
ATOM     13  C   UNL     1       5.632   6.272  17.091  0.00  0.00    +0.000 A 
ATOM     14  C   UNL     1       6.415   7.433  17.080  0.00  0.00    +0.000 A 
ATOM     15  C   UNL     1       7.539   7.544  17.905  0.00  0.00    +0.000 A 
ATOM     16  C   UNL     1       7.895   6.458  18.693  0.00  0.00    +0.000 A 
ATOM     17  C   UNL     1       7.101   5.302  18.702  0.00  0.00    +0.000 A 
BRANCH  12  19
ATOM     18  C   UNL     1       4.175   3.786  16.904  0.00  0.00    +0.000 C 
ATOM     19  N   UNL     1       5.136   4.037  17.977  0.00  0.00    +0.000 N 
ATOM     20  C   UNL     1       4.774   3.536  19.300  0.00  0.00    +0.000 C 
ENDBRANCH  12  19
ENDBRANCH   1  15
TORSDOF 3
ENDMDL
MODEL 3
REMARK VINA RESULT:      -7.5      4.398      8.494
REMARK  Name = 
REMARK  5 active torsions:
REMARK  status: ('A' for Active; 'I' for Inactive)
REMARK    1  A    between atoms: C_1  and  N_2
REMARK    2  A    between atoms: N_2  and  C_3
REMARK    3  A    between atoms: N_2  and  C_4
REMARK    4  A    between atoms: C_7  and  C_8
REMARK    5  A    between atoms: C_9  and  C_10
REMARK                            x       y       z     vdW  Elec       q    Type
REMARK                         _______ _______ _______ _____ _____    ______ ____
ROOT
ATOM      1  C   UNL     1       8.944   9.270  18.829  0.00  0.00    +0.000 C 
ATOM      2  C   UNL     1       8.214   8.758  17.832  0.00  0.00    +0.000 C 
ENDROOT
BRANCH   2   3
ATOM      3  C   UNL     1       7.579   7.433  17.848  0.00  0.00    +0.000 A 
ATOM      4  C   UNL     1       7.951   6.450  18.798  0.00  0.00    +0.000 A 
ATOM      5  C   UNL     1       7.129   5.352  19.061  0.00  0.00    +0.000 A 
ATOM      6  C   UNL     1       5.929   5.299  18.392  0.00  0.00    +0.000 A 
ATOM      7  C   UNL     1       5.594   6.215  17.419  0.00  0.00    +0.000 A 
ATOM      8  C   UNL     1       6.412   7.269  17.092  0.00  0.00    +0.000 A 
ATOM      9  O   UNL     1       4.322   6.033  16.963  0.00  0.00    +0.000 OA
ATOM     10  C   UNL     1       3.830   5.168  18.005  0.00  0.00    +0.000 C 
ATOM     11  O   UNL     1       4.896   4.456  18.671  0.00  0.00    +0.000 OA
ENDBRANCH   2   3
BRANCH   1  15
ATOM     12  C   UNL     1       9.982  13.460  18.924  0.00  0.00    +0.000 A 
ATOM     13  C   UNL     1      10.445  12.570  19.902  0.00  0.00    +0.000 A 
ATOM     14  C   UNL     1      10.098  11.214  19.888  0.00  0.00    +0.000 A 
ATOM     15  C   UNL     1       9.278  10.696  18.881  0.00  0.00    +0.000 A 
ATOM     16  C   UNL     1       8.861  11.543  17.863  0.00  0.00    +0.000 A 
ATOM     17  C   UNL     1       9.208  12.901  17.889  0.00  0.00    +0.000 A 
BRANCH  12  19
ATOM     18  C   UNL     1      10.176  15.604  17.715  0.00  0.00    +0.000 C 
ATOM     19  N   UNL     1      10.289  14.826  18.947  0.00  0.00    +0.000 N 
ATOM     20  C   UNL     1      11.309  15.262  19.896  0.00  0.00    +0.000 C 
ENDBRANCH  12  19
ENDBRANCH   1  15
TORSDOF 3
ENDMDL
MODEL 4
REMARK VINA RESULT:      -7.5      4.413      8.553
REMARK  Name = 
REMARK  5 active torsions:
REMARK  status: ('A' for Active; 'I' for Inactive)
REMARK    1  A    between atoms: C_1  and  N_2
REMARK    2  A    between atoms: N_2  and  C_3
REMARK    3  A    between atoms: N_2  and  C_4
REMARK    4  A    between atoms: C_7  and  C_8
REMARK    5  A    between atoms: C_9  and  C_10
REMARK                            x       y       z     vdW  Elec       q    Type
REMARK                         _______ _______ _______ _____ _____    ______ ____
ROOT
ATOM      1  C   UNL     1       8.849   9.254  18.694  0.00  0.00    +0.000 C 
ATOM      2  C   UNL     1       8.182   8.639  17.712  0.00  0.00    +0.000 C 
ENDROOT
BRANCH   2   3
ATOM      3  C   UNL     1       7.494   7.347  17.840  0.00  0.00    +0.000 A 
ATOM      4  C   UNL     1       7.882   6.402  18.823  0.00  0.00    +0.000 A 
ATOM      5  C   UNL     1       7.032   5.358  19.195  0.00  0.00    +0.000 A 
ATOM      6  C   UNL     1       5.794   5.321  18.598  0.00  0.00    +0.000 A 
ATOM      7  C   UNL     1       5.440   6.196  17.594  0.00  0.00    +0.000 A 
ATOM      8  C   UNL     1       6.280   7.193  17.161  0.00  0.00    +0.000 A 
ATOM      9  O   UNL     1       4.137   6.044  17.222  0.00  0.00    +0.000 OA
ATOM     10  C   UNL     1       3.672   5.261  18.338  0.00  0.00    +0.000 C 
ATOM     11  O   UNL     1       4.745   4.542  18.984  0.00  0.00    +0.000 OA
ENDBRANCH   2   3
BRANCH   1  15
ATOM     12  C   UNL     1       9.946  13.424  18.471  0.00  0.00    +0.000 A 
ATOM     13  C   UNL     1       8.878  12.908  17.724  0.00  0.00    +0.000 A 
ATOM     14  C   UNL     1       8.528  11.553  17.777  0.00  0.00    +0.000 A 
ATOM     15  C   UNL     1       9.234  10.664  18.595  0.00  0.00    +0.000 A 
ATOM     16  C   UNL     1      10.252  11.163  19.395  0.00  0.00    +0.000 A 
ATOM     17  C   UNL     1      10.600  12.521  19.330  0.00  0.00    +0.000 A 
BRANCH  12  19
ATOM     18  C   UNL     1      10.994  15.257  17.191  0.00  0.00    +0.000 C 
ATOM     19  N   UNL     1      10.332  14.768  18.398  0.00  0.00    +0.000 N 
ATOM     20  C   UNL     1      10.704  15.420  19.650  0.00  0.00    +0.000 C 
ENDBRANCH  12  19
ENDBRANCH   1  15
TORSDOF 3
ENDMDL
MODEL 5
REMARK VINA RESULT:      -7.4      4.396      8.537
REMARK  Name = 
REMARK  5 active torsions:
REMARK  status: ('A' for Active; 'I' for Inactive)
REMARK    1  A    between atoms: C_1  and  N_2
REMARK    2  A    between atoms: N_2  and  C_3
REMARK    3  A    between atoms: N_2  and  C_4
REMARK    4  A    between atoms: C_7  and  C_8
REMARK    5  A    between atoms: C_9  and  C_10
REMARK                            x       y       z     vdW  Elec       q    Type
REMARK                         _______ _______ _______ _____ _____    ______ ____
ROOT
ATOM      1  C   UNL     1       8.922   9.120  18.851  0.00  0.00    +0.000 C 
ATOM      2  C   UNL     1       8.116   8.667  17.885  0.00  0.00    +0.000 C 
ENDROOT
BRANCH   2   3
ATOM      3  C   UNL     1       7.528   7.322  17.840  0.00  0.00    +0.000 A 
ATOM      4  C   UNL     1       7.910   6.321  18.769  0.00  0.00    +0.000 A 
ATOM      5  C   UNL     1       7.120   5.187  18.974  0.00  0.00    +0.000 A 
ATOM      6  C   UNL     1       5.942   5.114  18.269  0.00  0.00    +0.000 A 
ATOM      7  C   UNL     1       5.601   6.050  17.317  0.00  0.00    +0.000 A 
ATOM      8  C   UNL     1       6.390   7.141  17.046  0.00  0.00    +0.000 A 
ATOM      9  O   UNL     1       4.349   5.838  16.819  0.00  0.00    +0.000 OA
ATOM     10  C   UNL     1       3.861   4.923  17.819  0.00  0.00    +0.000 C 
ATOM     11  O   UNL     1       4.932   4.227  18.492  0.00  0.00    +0.000 OA
ENDBRANCH   2   3
BRANCH   1  15
ATOM     12  C   UNL     1       9.703  13.341  19.317  0.00  0.00    +0.000 A 
ATOM     13  C   UNL     1       9.416  12.785  18.064  0.00  0.00    +0.000 A 
ATOM     14  C   UNL     1       9.180  11.415  17.901  0.00  0.00    +0.000 A 
ATOM     15  C   UNL     1       9.212  10.549  19.000  0.00  0.00    +0.000 A 
ATOM     16  C   UNL     1       9.427  11.085  20.262  0.00  0.00    +0.000 A 
ATOM     17  C   UNL     1       9.670  12.458  20.413  0.00  0.00    +0.000 A 
BRANCH  12  19
ATOM     18  C   UNL     1       8.888  15.617  19.820  0.00  0.00    +0.000 C 
ATOM     19  N   UNL     1       9.979  14.703  19.489  0.00  0.00    +0.000 N 
ATOM     20  C   UNL     1      11.076  15.263  18.703  0.00  0.00    +0.000 C 
ENDBRANCH  12  19
ENDBRANCH   1  15
TORSDOF 3
ENDMDL
MODEL 6
REMARK VINA RESULT:      -7.3      1.368      2.138
REMARK  Name = 
REMARK  5 active torsions:
REMARK  status: ('A' for Active; 'I' for Inactive)
REMARK    1  A    between atoms: C_1  and  N_2
REMARK    2  A    between atoms: N_2  and  C_3
REMARK    3  A    between atoms: N_2  and  C_4
REMARK    4  A    between atoms: C_7  and  C_8
REMARK    5  A    between atoms: C_9  and  C_10
REMARK                            x       y       z     vdW  Elec       q    Type
REMARK                         _______ _______ _______ _____ _____    ______ ____
ROOT
ATOM      1  C   UNL     1       8.570   8.315  18.904  0.00  0.00    +0.000 C 
ATOM      2  C   UNL     1       8.630   9.533  18.357  0.00  0.00    +0.000 C 
ENDROOT
BRANCH   2   3
ATOM      3  C   UNL     1       9.544  10.603  18.778  0.00  0.00    +0.000 A 
ATOM      4  C   UNL     1      10.172  11.450  17.831  0.00  0.00    +0.000 A 
ATOM      5  C   UNL     1      10.735  12.669  18.213  0.00  0.00    +0.000 A 
ATOM      6  C   UNL     1      10.610  13.024  19.536  0.00  0.00    +0.000 A 
ATOM      7  C   UNL     1      10.062  12.174  20.472  0.00  0.00    +0.000 A 
ATOM      8  C   UNL     1       9.559  10.941  20.136  0.00  0.00    +0.000 A 
ATOM      9  O   UNL     1       9.945  12.768  21.694  0.00  0.00    +0.000 OA
ATOM     10  C   UNL     1      10.136  14.140  21.297  0.00  0.00    +0.000 C 
ATOM     11  O   UNL     1      10.874  14.253  20.061  0.00  0.00    +0.000 OA
ENDBRANCH   2   3
BRANCH   1  15
ATOM     12  C   UNL     1       6.444   5.084  16.984  0.00  0.00    +0.000 A 
ATOM     13  C   UNL     1       7.219   4.869  18.132  0.00  0.00    +0.000 A 
ATOM     14  C   UNL     1       7.926   5.908  18.750  0.00  0.00    +0.000 A 
ATOM     15  C   UNL     1       7.872   7.210  18.241  0.00  0.00    +0.000 A 
ATOM     16  C   UNL     1       7.058   7.462  17.146  0.00  0.00    +0.000 A 
ATOM     17  C   UNL     1       6.359   6.413  16.530  0.00  0.00    +0.000 A 
BRANCH  12  19
ATOM     18  C   UNL     1       5.988   3.830  14.907  0.00  0.00    +0.000 C 
ATOM     19  N   UNL     1       5.763   4.048  16.334  0.00  0.00    +0.000 N 
ATOM     20  C   UNL     1       4.436   3.705  16.840  0.00  0.00    +0.000 C 
ENDBRANCH  12  19
ENDBRANCH   1  15
TORSDOF 3
ENDMDL
MODEL 7
REMARK VINA RESULT:      -7.3      1.310      1.982
REMARK  Name = 
REMARK  5 active torsions:
REMARK  status: ('A' for Active; 'I' for Inactive)
REMARK    1  A    between atoms: C_1  and  N_2
REMARK    2  A    between atoms: N_2  and  C_3
REMARK    3  A    between atoms: N_2  and  C_4
REMARK    4  A    between atoms: C_7  and  C_8
REMARK    5  A    between atoms: C_9  and  C_10
REMARK                            x       y       z     vdW  Elec       q    Type
REMARK                         _______ _______ _______ _____ _____    ______ ____
ROOT
ATOM      1  C   UNL     1       8.211   8.759  17.766  0.00  0.00    +0.000 C 
ATOM      2  C   UNL     1       8.900   9.190  18.828  0.00  0.00    +0.000 C 
ENDROOT
BRANCH   2   3
ATOM      3  C   UNL     1       9.458  10.541  18.979  0.00  0.00    +0.000 A 
ATOM      4  C   UNL     1       9.860  11.300  17.852  0.00  0.00    +0.000 A 
ATOM      5  C   UNL     1      10.040  12.683  17.940  0.00  0.00    +0.000 A 
ATOM      6  C   UNL     1       9.765  13.270  19.153  0.00  0.00    +0.000 A 
ATOM      7  C   UNL     1       9.440  12.527  20.267  0.00  0.00    +0.000 A 
ATOM      8  C   UNL     1       9.319  11.160  20.227  0.00  0.00    +0.000 A 
ATOM      9  O   UNL     1       9.109  13.318  21.328  0.00  0.00    +0.000 OA
ATOM     10  C   UNL     1       8.921  14.565  20.630  0.00  0.00    +0.000 C 
ATOM     11  O   UNL     1       9.649  14.608  19.384  0.00  0.00    +0.000 OA
ENDBRANCH   2   3
BRANCH   1  15
ATOM     12  C   UNL     1       5.835   5.158  17.956  0.00  0.00    +0.000 A 
ATOM     13  C   UNL     1       7.031   5.283  18.674  0.00  0.00    +0.000 A 
ATOM     14  C   UNL     1       7.817   6.440  18.604  0.00  0.00    +0.000 A 
ATOM     15  C   UNL     1       7.422   7.525  17.814  0.00  0.00    +0.000 A 
ATOM     16  C   UNL     1       6.207   7.452  17.146  0.00  0.00    +0.000 A 
ATOM     17  C   UNL     1       5.431   6.287  17.218  0.00  0.00    +0.000 A 
BRANCH  12  19
ATOM     18  C   UNL     1       4.182   3.688  16.859  0.00  0.00    +0.000 C 
ATOM     19  N   UNL     1       5.059   3.993  17.987  0.00  0.00    +0.000 N 
ATOM     20  C   UNL     1       4.614   3.526  19.298  0.00  0.00    +0.000 C 
ENDBRANCH  12  19
ENDBRANCH   1  15
TORSDOF 3
ENDMDL
MODEL 8
REMARK VINA RESULT:      -7.3      6.572      8.908
REMARK  Name = 
REMARK  5 active torsions:
REMARK  status: ('A' for Active; 'I' for Inactive)
REMARK    1  A    between atoms: C_1  and  N_2
REMARK    2  A    between atoms: N_2  and  C_3
REMARK    3  A    between atoms: N_2  and  C_4
REMARK    4  A    between atoms: C_7  and  C_8
REMARK    5  A    between atoms: C_9  and  C_10
REMARK                            x       y       z     vdW  Elec       q    Type
REMARK                         _______ _______ _______ _____ _____    ______ ____
ROOT
ATOM      1  C   UNL     1       2.604   7.999  18.004  0.00  0.00    +0.000 C 
ATOM      2  C   UNL     1       2.630   6.673  18.170  0.00  0.00    +0.000 C 
ENDROOT
BRANCH   2   3
ATOM      3  C   UNL     1       3.710   5.787  17.714  0.00  0.00    +0.000 A 
ATOM      4  C   UNL     1       3.560   4.378  17.726  0.00  0.00    +0.000 A 
ATOM      5  C   UNL     1       4.403   3.555  16.975  0.00  0.00    +0.000 A 
ATOM      6  C   UNL     1       5.348   4.180  16.195  0.00  0.00    +0.000 A 
ATOM      7  C   UNL     1       5.541   5.544  16.233  0.00  0.00    +0.000 A 
ATOM      8  C   UNL     1       4.770   6.372  17.012  0.00  0.00    +0.000 A 
ATOM      9  O   UNL     1       6.455   5.955  15.308  0.00  0.00    +0.000 OA
ATOM     10  C   UNL     1       6.502   4.767  14.494  0.00  0.00    +0.000 C 
ATOM     11  O   UNL     1       6.099   3.588  15.225  0.00  0.00    +0.000 OA
ENDBRANCH   2   3
BRANCH   1  15
ATOM     12  C   UNL     1      -0.204  10.436  20.200  0.00  0.00    +0.000 A 
ATOM     13  C   UNL     1      -0.026  10.591  18.819  0.00  0.00    +0.000 A 
ATOM     14  C   UNL     1       0.896   9.817  18.103  0.00  0.00    +0.000 A 
ATOM     15  C   UNL     1       1.669   8.847  18.749  0.00  0.00    +0.000 A 
ATOM     16  C   UNL     1       1.463   8.628  20.104  0.00  0.00    +0.000 A 
ATOM     17  C   UNL     1       0.543   9.413  20.814  0.00  0.00    +0.000 A 
BRANCH  12  19
ATOM     18  C   UNL     1      -1.801  12.317  20.265  0.00  0.00    +0.000 C 
ATOM     19  N   UNL     1      -1.093  11.229  20.935  0.00  0.00    +0.000 N 
ATOM     20  C   UNL     1      -0.793  11.427  22.350  0.00  0.00    +0.000 C 
ENDBRANCH  12  19
ENDBRANCH   1  15
TORSDOF 3
ENDMDL
MODEL 9
REMARK VINA RESULT:      -7.3      4.303      8.602
REMARK  Name = 
REMARK  5 active torsions:
REMARK  status: ('A' for Active; 'I' for Inactive)
REMARK    1  A    between atoms: C_1  and  N_2
REMARK    2  A    between atoms: N_2  and  C_3
REMARK    3  A    between atoms: N_2  and  C_4
REMARK    4  A    between atoms: C_7  and  C_8
REMARK    5  A    between atoms: C_9  and  C_10
REMARK                            x       y       z     vdW  Elec       q    Type
REMARK                         _______ _______ _______ _____ _____    ______ ____
ROOT
ATOM      1  C   UNL     1       8.265   9.938  18.228  0.00  0.00    +0.000 C 
ATOM      2  C   UNL     1       8.677   8.687  18.458  0.00  0.00    +0.000 C 
ENDROOT
BRANCH   2   3
ATOM      3  C   UNL     1       7.909   7.475  18.142  0.00  0.00    +0.000 A 
ATOM      4  C   UNL     1       8.013   6.309  18.942  0.00  0.00    +0.000 A 
ATOM      5  C   UNL     1       7.045   5.304  18.882  0.00  0.00    +0.000 A 
ATOM      6  C   UNL     1       5.973   5.521  18.049  0.00  0.00    +0.000 A 
ATOM      7  C   UNL     1       5.902   6.620  17.221  0.00  0.00    +0.000 A 
ATOM      8  C   UNL     1       6.871   7.594  17.210  0.00  0.00    +0.000 A 
ATOM      9  O   UNL     1       4.710   6.687  16.562  0.00  0.00    +0.000 OA
ATOM     10  C   UNL     1       3.964   5.738  17.349  0.00  0.00    +0.000 C 
ATOM     11  O   UNL     1       4.823   4.791  18.021  0.00  0.00    +0.000 OA
ENDBRANCH   2   3
BRANCH   1  15
ATOM     12  C   UNL     1      10.976  13.293  18.428  0.00  0.00    +0.000 A 
ATOM     13  C   UNL     1       9.767  13.371  17.725  0.00  0.00    +0.000 A 
ATOM     14  C   UNL     1       8.891  12.282  17.639  0.00  0.00    +0.000 A 
ATOM     15  C   UNL     1       9.194  11.071  18.270  0.00  0.00    +0.000 A 
ATOM     16  C   UNL     1      10.353  10.989  19.030  0.00  0.00    +0.000 A 
ATOM     17  C   UNL     1      11.227  12.083  19.104  0.00  0.00    +0.000 A 
BRANCH  12  19
ATOM     18  C   UNL     1      12.014  15.112  19.736  0.00  0.00    +0.000 C 
ATOM     19  N   UNL     1      11.879  14.361  18.490  0.00  0.00    +0.000 N 
ATOM     20  C   UNL     1      12.109  15.108  17.256  0.00  0.00    +0.000 C 
ENDBRANCH  12  19
ENDBRANCH   1  15
TORSDOF 3
ENDMDL
