MODEL 1
REMARK VINA RESULT:      -7.3      0.000      0.000
REMARK  Name = 
REMARK  10 active torsions:
REMARK  status: ('A' for Active; 'I' for Inactive)
REMARK    1  A    between atoms: C_1  and  O_2
REMARK    2  A    between atoms: O_2  and  C_3
REMARK    3  A    between atoms: C_7  and  C_8
REMARK    4  A    between atoms: C_8  and  N_9
REMARK    5  A    between atoms: N_9  and  C_10
REMARK    6  A    between atoms: C_10  and  C_11
REMARK    7  A    between atoms: C_11  and  N_12
REMARK    8  A    between atoms: C_18  and  O_19
REMARK    9  A    between atoms: O_19  and  C_20
REMARK   10  A    between atoms: C_20  and  C_21
REMARK                            x       y       z     vdW  Elec       q    Type
REMARK                         _______ _______ _______ _____ _____    ______ ____
ROOT
ATOM      1  C   UNL     1       2.432   3.338  18.726  0.00  0.00    +0.000 A 
ATOM      2  C   UNL     1       1.626   3.324  19.871  0.00  0.00    +0.000 A 
ATOM      3  C   UNL     1       1.358   4.487  20.577  0.00  0.00    +0.000 A 
ATOM      4  C   UNL     1       1.869   5.690  20.110  0.00  0.00    +0.000 A 
ATOM      5  C   UNL     1       2.653   5.762  18.935  0.00  0.00    +0.000 A 
ATOM      6  C   UNL     1       2.980   4.551  18.249  0.00  0.00    +0.000 A 
ENDROOT
BRANCH   1   8
ATOM      7  C   UNL     1       3.576   1.230  18.558  0.00  0.00    +0.000 C 
ATOM      8  O   UNL     1       2.520   2.090  18.171  0.00  0.00    +0.000 OA
ENDBRANCH   1   8
BRANCH   5   9
ATOM      9  C   UNL     1       2.998   7.172  18.492  0.00  0.00    +0.000 C 
BRANCH   9  10
ATOM     10  N   UNL     1       2.053   8.192  18.954  0.00  0.00    +0.000 NA
ATOM     11  H   UNL     1       2.485   8.760  19.677  0.00  0.00    +0.000 HD
BRANCH  10  12
ATOM     12  C   UNL     1       1.653   9.141  17.909  0.00  0.00    +0.000 C 
BRANCH  12  13
ATOM     13  C   UNL     1       0.620  10.124  18.460  0.00  0.00    +0.000 C 
BRANCH  13  14
ATOM     14  N   UNL     1       1.111  11.207  19.311  0.00  0.00    +0.000 NA
ATOM     15  C   UNL     1       0.681  11.085  20.717  0.00  0.00    +0.000 C 
ATOM     16  C   UNL     1      -0.827  11.300  20.929  0.00  0.00    +0.000 C 
ATOM     17  O   UNL     1      -1.259  12.561  20.394  0.00  0.00    +0.000 OA
ATOM     18  C   UNL     1      -0.931  12.664  19.001  0.00  0.00    +0.000 C 
ATOM     19  C   UNL     1       0.581  12.483  18.769  0.00  0.00    +0.000 C 
ENDBRANCH  13  14
ENDBRANCH  12  13
ENDBRANCH  10  12
ENDBRANCH   9  10
ENDBRANCH   5   9
BRANCH   6  20
ATOM     20  O   UNL     1       3.744   4.468  17.100  0.00  0.00    +0.000 OA
BRANCH  20  21
ATOM     21  C   UNL     1       5.107   4.082  17.229  0.00  0.00    +0.000 C 
BRANCH  21  22
ATOM     22  C   UNL     1       6.124   5.170  17.409  0.00  0.00    +0.000 A 
ATOM     23  C   UNL     1       6.970   5.052  18.538  0.00  0.00    +0.000 A 
ATOM     24  C   UNL     1       7.779   6.110  18.929  0.00  0.00    +0.000 A 
ATOM     25  C   UNL     1       7.762   7.284  18.188  0.00  0.00    +0.000 A 
ATOM     26 CL   UNL     1       8.731   8.609  18.696  0.00  0.00    +0.000 Cl
ATOM     27  C   UNL     1       6.949   7.408  17.061  0.00  0.00    +0.000 A 
ATOM     28  C   UNL     1       6.125   6.351  16.676  0.00  0.00    +0.000 A 
ATOM     29 CL   UNL     1       5.050   6.590  15.345  0.00  0.00    +0.000 Cl
ENDBRANCH  21  22
ENDBRANCH  20  21
ENDBRANCH   6  20
TORSDOF 9
ENDMDL
MODEL 2
REMARK VINA RESULT:      -7.0      0.988      1.147
REMARK  Name = 
REMARK  10 active torsions:
REMARK  status: ('A' for Active; 'I' for Inactive)
REMARK    1  A    between atoms: C_1  and  O_2
REMARK    2  A    between atoms: O_2  and  C_3
REMARK    3  A    between atoms: C_7  and  C_8
REMARK    4  A    between atoms: C_8  and  N_9
REMARK    5  A    between atoms: N_9  and  C_10
REMARK    6  A    between atoms: C_10  and  C_11
REMARK    7  A    between atoms: C_11  and  N_12
REMARK    8  A    between atoms: C_18  and  O_19
REMARK    9  A    between atoms: O_19  and  C_20
REMARK   10  A    between atoms: C_20  and  C_21
REMARK                            x       y       z     vdW  Elec       q    Type
REMARK                         _______ _______ _______ _____ _____    ______ ____
ROOT
ATOM      1  C   UNL     1       2.125   3.662  19.114  0.00  0.00    +0.000 A 
ATOM      2  C   UNL     1       1.566   4.048  20.338  0.00  0.00    +0.000 A 
ATOM      3  C   UNL     1       1.593   5.369  20.758  0.00  0.00    +0.000 A 
ATOM      4  C   UNL     1       2.151   6.328  19.925  0.00  0.00    +0.000 A 
ATOM      5  C   UNL     1       2.691   5.995  18.660  0.00  0.00    +0.000 A 
ATOM      6  C   UNL     1       2.718   4.622  18.263  0.00  0.00    +0.000 A 
ENDROOT
BRANCH   1   8
ATOM      7  C   UNL     1       3.003   1.424  19.149  0.00  0.00    +0.000 C 
ATOM      8  O   UNL     1       1.941   2.325  18.889  0.00  0.00    +0.000 OA
ENDBRANCH   1   8
BRANCH   5   9
ATOM      9  C   UNL     1       3.118   7.186  17.824  0.00  0.00    +0.000 C 
BRANCH   9  10
ATOM     10  N   UNL     1       2.774   8.484  18.410  0.00  0.00    +0.000 NA
ATOM     11  H   UNL     1       3.550   9.129  18.301  0.00  0.00    +0.000 HD
BRANCH  10  12
ATOM     12  C   UNL     1       1.636   9.142  17.759  0.00  0.00    +0.000 C 
BRANCH  12  13
ATOM     13  C   UNL     1       1.445  10.548  18.327  0.00  0.00    +0.000 C 
BRANCH  13  14
ATOM     14  N   UNL     1       0.474  10.707  19.410  0.00  0.00    +0.000 NA
ATOM     15  C   UNL     1      -0.869  10.201  19.069  0.00  0.00    +0.000 C 
ATOM     16  C   UNL     1      -1.593  11.030  17.995  0.00  0.00    +0.000 C 
ATOM     17  O   UNL     1      -1.673  12.415  18.364  0.00  0.00    +0.000 OA
ATOM     18  C   UNL     1      -0.366  12.953  18.613  0.00  0.00    +0.000 C 
ATOM     19  C   UNL     1       0.365  12.157  19.709  0.00  0.00    +0.000 C 
ENDBRANCH  13  14
ENDBRANCH  12  13
ENDBRANCH  10  12
ENDBRANCH   9  10
ENDBRANCH   5   9
BRANCH   6  20
ATOM     20  O   UNL     1       3.224   4.150  17.066  0.00  0.00    +0.000 OA
BRANCH  20  21
ATOM     21  C   UNL     1       4.542   3.617  17.060  0.00  0.00    +0.000 C 
BRANCH  21  22
ATOM     22  C   UNL     1       5.676   4.562  17.327  0.00  0.00    +0.000 A 
ATOM     23  C   UNL     1       6.090   4.674  18.676  0.00  0.00    +0.000 A 
ATOM     24  C   UNL     1       6.960   5.682  19.068  0.00  0.00    +0.000 A 
ATOM     25  C   UNL     1       7.436   6.573  18.115  0.00  0.00    +0.000 A 
ATOM     26 CL   UNL     1       8.480   7.847  18.605  0.00  0.00    +0.000 Cl
ATOM     27  C   UNL     1       7.053   6.463  16.777  0.00  0.00    +0.000 A 
ATOM     28  C   UNL     1       6.167   5.460  16.385  0.00  0.00    +0.000 A 
ATOM     29 CL   UNL     1       5.631   5.433  14.745  0.00  0.00    +0.000 Cl
ENDBRANCH  21  22
ENDBRANCH  20  21
ENDBRANCH   6  20
TORSDOF 9
ENDMDL
MODEL 3
REMARK VINA RESULT:      -7.0      1.966      2.916
REMARK  Name = 
REMARK  10 active torsions:
REMARK  status: ('A' for Active; 'I' for Inactive)
REMARK    1  A    between atoms: C_1  and  O_2
REMARK    2  A    between atoms: O_2  and  C_3
REMARK    3  A    between atoms: C_7  and  C_8
REMARK    4  A    between atoms: C_8  and  N_9
REMARK    5  A    between atoms: N_9  and  C_10
REMARK    6  A    between atoms: C_10  and  C_11
REMARK    7  A    between atoms: C_11  and  N_12
REMARK    8  A    between atoms: C_18  and  O_19
REMARK    9  A    between atoms: O_19  and  C_20
REMARK   10  A    between atoms: C_20  and  C_21
REMARK                            x       y       z     vdW  Elec       q    Type
REMARK                         _______ _______ _______ _____ _____    ______ ____
ROOT
ATOM      1  C   UNL     1       2.232   3.314  18.979  0.00  0.00    +0.000 A 
ATOM      2  C   UNL     1       1.548   3.091  20.180  0.00  0.00    +0.000 A 
ATOM      3  C   UNL     1       1.334   4.117  21.088  0.00  0.00    +0.000 A 
ATOM      4  C   UNL     1       1.774   5.395  20.774  0.00  0.00    +0.000 A 
ATOM      5  C   UNL     1       2.433   5.679  19.555  0.00  0.00    +0.000 A 
ATOM      6  C   UNL     1       2.708   4.605  18.654  0.00  0.00    +0.000 A 
ENDROOT
BRANCH   1   8
ATOM      7  C   UNL     1       3.391   1.301  18.356  0.00  0.00    +0.000 C 
ATOM      8  O   UNL     1       2.283   2.174  18.224  0.00  0.00    +0.000 OA
ENDBRANCH   1   8
BRANCH   5   9
ATOM      9  C   UNL     1       2.707   7.152  19.315  0.00  0.00    +0.000 C 
BRANCH   9  10
ATOM     10  N   UNL     1       1.901   7.745  18.245  0.00  0.00    +0.000 NA
ATOM     11  H   UNL     1       1.017   7.252  18.165  0.00  0.00    +0.000 HD
BRANCH  10  12
ATOM     12  C   UNL     1       1.538   9.146  18.487  0.00  0.00    +0.000 C 
BRANCH  12  13
ATOM     13  C   UNL     1       1.220   9.358  19.966  0.00  0.00    +0.000 C 
BRANCH  13  14
ATOM     14  N   UNL     1      -0.190   9.485  20.338  0.00  0.00    +0.000 NA
ATOM     15  C   UNL     1      -0.638  10.886  20.457  0.00  0.00    +0.000 C 
ATOM     16  C   UNL     1      -0.023  11.638  21.649  0.00  0.00    +0.000 C 
ATOM     17  O   UNL     1      -0.255  10.945  22.885  0.00  0.00    +0.000 OA
ATOM     18  C   UNL     1       0.256   9.605  22.823  0.00  0.00    +0.000 C 
ATOM     19  C   UNL     1      -0.371   8.823  21.654  0.00  0.00    +0.000 C 
ENDBRANCH  13  14
ENDBRANCH  12  13
ENDBRANCH  10  12
ENDBRANCH   9  10
ENDBRANCH   5   9
BRANCH   6  20
ATOM     20  O   UNL     1       3.352   4.731  17.437  0.00  0.00    +0.000 OA
BRANCH  20  21
ATOM     21  C   UNL     1       4.766   4.584  17.409  0.00  0.00    +0.000 C 
BRANCH  21  22
ATOM     22  C   UNL     1       5.462   4.802  16.098  0.00  0.00    +0.000 A 
ATOM     23  C   UNL     1       4.918   4.122  14.982  0.00  0.00    +0.000 A 
ATOM     24  C   UNL     1       5.612   4.062  13.782  0.00  0.00    +0.000 A 
ATOM     25  C   UNL     1       6.845   4.694  13.682  0.00  0.00    +0.000 A 
ATOM     26 CL   UNL     1       7.725   4.585  12.211  0.00  0.00    +0.000 Cl
ATOM     27  C   UNL     1       7.385   5.385  14.767  0.00  0.00    +0.000 A 
ATOM     28  C   UNL     1       6.695   5.433  15.978  0.00  0.00    +0.000 A 
ATOM     29 CL   UNL     1       7.454   6.199  17.326  0.00  0.00    +0.000 Cl
ENDBRANCH  21  22
ENDBRANCH  20  21
ENDBRANCH   6  20
TORSDOF 9
ENDMDL
MODEL 4
REMARK VINA RESULT:      -7.0      0.895      1.252
REMARK  Name = 
REMARK  10 active torsions:
REMARK  status: ('A' for Active; 'I' for Inactive)
REMARK    1  A    between atoms: C_1  and  O_2
REMARK    2  A    between atoms: O_2  and  C_3
REMARK    3  A    between atoms: C_7  and  C_8
REMARK    4  A    between atoms: C_8  and  N_9
REMARK    5  A    between atoms: N_9  and  C_10
REMARK    6  A    between atoms: C_10  and  C_11
REMARK    7  A    between atoms: C_11  and  N_12
REMARK    8  A    between atoms: C_18  and  O_19
REMARK    9  A    between atoms: O_19  and  C_20
REMARK   10  A    between atoms: C_20  and  C_21
REMARK                            x       y       z     vdW  Elec       q    Type
REMARK                         _______ _______ _______ _____ _____    ______ ____
ROOT
ATOM      1  C   UNL     1       3.030   3.679  19.388  0.00  0.00    +0.000 A 
ATOM      2  C   UNL     1       2.387   3.977  20.596  0.00  0.00    +0.000 A 
ATOM      3  C   UNL     1       1.950   5.262  20.881  0.00  0.00    +0.000 A 
ATOM      4  C   UNL     1       2.120   6.256  19.929  0.00  0.00    +0.000 A 
ATOM      5  C   UNL     1       2.726   5.996  18.677  0.00  0.00    +0.000 A 
ATOM      6  C   UNL     1       3.233   4.686  18.417  0.00  0.00    +0.000 A 
ENDROOT
BRANCH   1   8
ATOM      7  C   UNL     1       4.451   1.841  20.010  0.00  0.00    +0.000 C 
ATOM      8  O   UNL     1       3.330   2.346  19.307  0.00  0.00    +0.000 OA
ENDBRANCH   1   8
BRANCH   5   9
ATOM      9  C   UNL     1       2.692   7.161  17.706  0.00  0.00    +0.000 C 
BRANCH   9  10
ATOM     10  N   UNL     1       2.595   8.474  18.349  0.00  0.00    +0.000 NA
ATOM     11  H   UNL     1       3.370   9.061  18.054  0.00  0.00    +0.000 HD
BRANCH  10  12
ATOM     12  C   UNL     1       1.387   9.222  17.983  0.00  0.00    +0.000 C 
BRANCH  12  13
ATOM     13  C   UNL     1       0.958  10.125  19.139  0.00  0.00    +0.000 C 
BRANCH  13  14
ATOM     14  N   UNL     1      -0.458  10.118  19.506  0.00  0.00    +0.000 NA
ATOM     15  C   UNL     1      -1.331  10.715  18.477  0.00  0.00    +0.000 C 
ATOM     16  C   UNL     1      -1.150  12.234  18.311  0.00  0.00    +0.000 C 
ATOM     17  O   UNL     1      -1.324  12.923  19.558  0.00  0.00    +0.000 OA
ATOM     18  C   UNL     1      -0.419  12.418  20.551  0.00  0.00    +0.000 C 
ATOM     19  C   UNL     1      -0.605  10.904  20.756  0.00  0.00    +0.000 C 
ENDBRANCH  13  14
ENDBRANCH  12  13
ENDBRANCH  10  12
ENDBRANCH   9  10
ENDBRANCH   5   9
BRANCH   6  20
ATOM     20  O   UNL     1       3.857   4.291  17.248  0.00  0.00    +0.000 OA
BRANCH  20  21
ATOM     21  C   UNL     1       5.239   3.963  17.304  0.00  0.00    +0.000 C 
BRANCH  21  22
ATOM     22  C   UNL     1       6.217   5.092  17.451  0.00  0.00    +0.000 A 
ATOM     23  C   UNL     1       7.044   5.056  18.599  0.00  0.00    +0.000 A 
ATOM     24  C   UNL     1       7.809   6.158  18.955  0.00  0.00    +0.000 A 
ATOM     25  C   UNL     1       7.769   7.295  18.159  0.00  0.00    +0.000 A 
ATOM     26 CL   UNL     1       8.683   8.674  18.621  0.00  0.00    +0.000 Cl
ATOM     27  C   UNL     1       6.974   7.338  17.013  0.00  0.00    +0.000 A 
ATOM     28  C   UNL     1       6.193   6.237  16.663  0.00  0.00    +0.000 A 
ATOM     29 CL   UNL     1       5.137   6.378  15.304  0.00  0.00    +0.000 Cl
ENDBRANCH  21  22
ENDBRANCH  20  21
ENDBRANCH   6  20
TORSDOF 9
ENDMDL
MODEL 5
REMARK VINA RESULT:      -7.0      1.014      1.281
REMARK  Name = 
REMARK  10 active torsions:
REMARK  status: ('A' for Active; 'I' for Inactive)
REMARK    1  A    between atoms: C_1  and  O_2
REMARK    2  A    between atoms: O_2  and  C_3
REMARK    3  A    between atoms: C_7  and  C_8
REMARK    4  A    between atoms: C_8  and  N_9
REMARK    5  A    between atoms: N_9  and  C_10
REMARK    6  A    between atoms: C_10  and  C_11
REMARK    7  A    between atoms: C_11  and  N_12
REMARK    8  A    between atoms: C_18  and  O_19
REMARK    9  A    between atoms: O_19  and  C_20
REMARK   10  A    between atoms: C_20  and  C_21
REMARK                            x       y       z     vdW  Elec       q    Type
REMARK                         _______ _______ _______ _____ _____    ______ ____
ROOT
ATOM      1  C   UNL     1       2.114   3.863  19.068  0.00  0.00    +0.000 A 
ATOM      2  C   UNL     1       1.527   4.255  20.277  0.00  0.00    +0.000 A 
ATOM      3  C   UNL     1       1.558   5.576  20.698  0.00  0.00    +0.000 A 
ATOM      4  C   UNL     1       2.149   6.528  19.881  0.00  0.00    +0.000 A 
ATOM      5  C   UNL     1       2.719   6.189  18.631  0.00  0.00    +0.000 A 
ATOM      6  C   UNL     1       2.742   4.817  18.234  0.00  0.00    +0.000 A 
ENDROOT
BRANCH   1   8
ATOM      7  C   UNL     1       0.615   1.988  18.927  0.00  0.00    +0.000 C 
ATOM      8  O   UNL     1       1.921   2.528  18.838  0.00  0.00    +0.000 OA
ENDBRANCH   1   8
BRANCH   5   9
ATOM      9  C   UNL     1       3.183   7.376  17.807  0.00  0.00    +0.000 C 
BRANCH   9  10
ATOM     10  N   UNL     1       2.827   8.677  18.378  0.00  0.00    +0.000 NA
ATOM     11  H   UNL     1       3.603   9.324  18.274  0.00  0.00    +0.000 HD
BRANCH  10  12
ATOM     12  C   UNL     1       1.696   9.327  17.706  0.00  0.00    +0.000 C 
BRANCH  12  13
ATOM     13  C   UNL     1       0.679   9.812  18.738  0.00  0.00    +0.000 C 
BRANCH  13  14
ATOM     14  N   UNL     1       0.162  11.171  18.584  0.00  0.00    +0.000 NA
ATOM     15  C   UNL     1       1.098  12.209  19.057  0.00  0.00    +0.000 C 
ATOM     16  C   UNL     1       1.299  12.219  20.581  0.00  0.00    +0.000 C 
ATOM     17  O   UNL     1       0.048  12.336  21.277  0.00  0.00    +0.000 OA
ATOM     18  C   UNL     1      -0.847  11.280  20.898  0.00  0.00    +0.000 C 
ATOM     19  C   UNL     1      -1.088  11.272  19.377  0.00  0.00    +0.000 C 
ENDBRANCH  13  14
ENDBRANCH  12  13
ENDBRANCH  10  12
ENDBRANCH   9  10
ENDBRANCH   5   9
BRANCH   6  20
ATOM     20  O   UNL     1       3.274   4.339  17.051  0.00  0.00    +0.000 OA
BRANCH  20  21
ATOM     21  C   UNL     1       4.581   3.779  17.083  0.00  0.00    +0.000 C 
BRANCH  21  22
ATOM     22  C   UNL     1       5.731   4.708  17.339  0.00  0.00    +0.000 A 
ATOM     23  C   UNL     1       6.218   4.747  18.667  0.00  0.00    +0.000 A 
ATOM     24  C   UNL     1       7.110   5.733  19.065  0.00  0.00    +0.000 A 
ATOM     25  C   UNL     1       7.536   6.674  18.137  0.00  0.00    +0.000 A 
ATOM     26 CL   UNL     1       8.608   7.920  18.639  0.00  0.00    +0.000 Cl
ATOM     27  C   UNL     1       7.081   6.637  16.819  0.00  0.00    +0.000 A 
ATOM     28  C   UNL     1       6.172   5.656  16.422  0.00  0.00    +0.000 A 
ATOM     29 CL   UNL     1       5.547   5.718  14.814  0.00  0.00    +0.000 Cl
ENDBRANCH  21  22
ENDBRANCH  20  21
ENDBRANCH   6  20
TORSDOF 9
ENDMDL
MODEL 6
REMARK VINA RESULT:      -6.8      1.748      2.612
REMARK  Name = 
REMARK  10 active torsions:
REMARK  status: ('A' for Active; 'I' for Inactive)
REMARK    1  A    between atoms: C_1  and  O_2
REMARK    2  A    between atoms: O_2  and  C_3
REMARK    3  A    between atoms: C_7  and  C_8
REMARK    4  A    between atoms: C_8  and  N_9
REMARK    5  A    between atoms: N_9  and  C_10
REMARK    6  A    between atoms: C_10  and  C_11
REMARK    7  A    between atoms: C_11  and  N_12
REMARK    8  A    between atoms: C_18  and  O_19
REMARK    9  A    between atoms: O_19  and  C_20
REMARK   10  A    between atoms: C_20  and  C_21
REMARK                            x       y       z     vdW  Elec       q    Type
REMARK                         _______ _______ _______ _____ _____    ______ ____
ROOT
ATOM      1  C   UNL     1       2.131   4.083  19.471  0.00  0.00    +0.000 A 
ATOM      2  C   UNL     1       1.671   4.553  20.707  0.00  0.00    +0.000 A 
ATOM      3  C   UNL     1       1.678   5.906  21.011  0.00  0.00    +0.000 A 
ATOM      4  C   UNL     1       2.114   6.808  20.051  0.00  0.00    +0.000 A 
ATOM      5  C   UNL     1       2.549   6.386  18.773  0.00  0.00    +0.000 A 
ATOM      6  C   UNL     1       2.600   4.987  18.490  0.00  0.00    +0.000 A 
ENDROOT
BRANCH   1   8
ATOM      7  C   UNL     1       0.809   2.189  18.800  0.00  0.00    +0.000 C 
ATOM      8  O   UNL     1       1.986   2.725  19.377  0.00  0.00    +0.000 OA
ENDBRANCH   1   8
BRANCH   5   9
ATOM      9  C   UNL     1       2.845   7.515  17.803  0.00  0.00    +0.000 C 
BRANCH   9  10
ATOM     10  N   UNL     1       1.783   8.521  17.713  0.00  0.00    +0.000 NA
ATOM     11  H   UNL     1       1.034   8.291  18.358  0.00  0.00    +0.000 HD
BRANCH  10  12
ATOM     12  C   UNL     1       2.215   9.870  18.093  0.00  0.00    +0.000 C 
BRANCH  12  13
ATOM     13  C   UNL     1       1.017  10.691  18.570  0.00  0.00    +0.000 C 
BRANCH  13  14
ATOM     14  N   UNL     1      -0.120   9.957  19.127  0.00  0.00    +0.000 NA
ATOM     15  C   UNL     1      -1.416  10.620  18.889  0.00  0.00    +0.000 C 
ATOM     16  C   UNL     1      -1.595  11.935  19.666  0.00  0.00    +0.000 C 
ATOM     17  O   UNL     1      -1.396  11.745  21.075  0.00  0.00    +0.000 OA
ATOM     18  C   UNL     1      -0.102  11.183  21.336  0.00  0.00    +0.000 C 
ATOM     19  C   UNL     1       0.088   9.849  20.592  0.00  0.00    +0.000 C 
ENDBRANCH  13  14
ENDBRANCH  12  13
ENDBRANCH  10  12
ENDBRANCH   9  10
ENDBRANCH   5   9
BRANCH   6  20
ATOM     20  O   UNL     1       3.014   4.431  17.294  0.00  0.00    +0.000 OA
BRANCH  20  21
ATOM     21  C   UNL     1       4.340   3.924  17.213  0.00  0.00    +0.000 C 
BRANCH  21  22
ATOM     22  C   UNL     1       5.231   4.476  16.140  0.00  0.00    +0.000 A 
ATOM     23  C   UNL     1       5.177   3.821  14.886  0.00  0.00    +0.000 A 
ATOM     24  C   UNL     1       6.120   4.093  13.904  0.00  0.00    +0.000 A 
ATOM     25  C   UNL     1       7.110   5.032  14.160  0.00  0.00    +0.000 A 
ATOM     26 CL   UNL     1       8.303   5.339  12.961  0.00  0.00    +0.000 Cl
ATOM     27  C   UNL     1       7.165   5.701  15.383  0.00  0.00    +0.000 A 
ATOM     28  C   UNL     1       6.227   5.417  16.376  0.00  0.00    +0.000 A 
ATOM     29 CL   UNL     1       6.402   6.182  17.914  0.00  0.00    +0.000 Cl
ENDBRANCH  21  22
ENDBRANCH  20  21
ENDBRANCH   6  20
TORSDOF 9
ENDMDL
MODEL 7
REMARK VINA RESULT:      -6.8      1.629      2.214
REMARK  Name = 
REMARK  10 active torsions:
REMARK  status: ('A' for Active; 'I' for Inactive)
REMARK    1  A    between atoms: C_1  and  O_2
REMARK    2  A    between atoms: O_2  and  C_3
REMARK    3  A    between atoms: C_7  and  C_8
REMARK    4  A    between atoms: C_8  and  N_9
REMARK    5  A    between atoms: N_9  and  C_10
REMARK    6  A    between atoms: C_10  and  C_11
REMARK    7  A    between atoms: C_11  and  N_12
REMARK    8  A    between atoms: C_18  and  O_19
REMARK    9  A    between atoms: O_19  and  C_20
REMARK   10  A    between atoms: C_20  and  C_21
REMARK                            x       y       z     vdW  Elec       q    Type
REMARK                         _______ _______ _______ _____ _____    ______ ____
ROOT
ATOM      1  C   UNL     1       2.489   2.934  19.022  0.00  0.00    +0.000 A 
ATOM      2  C   UNL     1       2.091   2.872  20.362  0.00  0.00    +0.000 A 
ATOM      3  C   UNL     1       1.847   4.023  21.096  0.00  0.00    +0.000 A 
ATOM      4  C   UNL     1       1.963   5.255  20.470  0.00  0.00    +0.000 A 
ATOM      5  C   UNL     1       2.321   5.370  19.106  0.00  0.00    +0.000 A 
ATOM      6  C   UNL     1       2.635   4.183  18.375  0.00  0.00    +0.000 A 
ENDROOT
BRANCH   1   8
ATOM      7  C   UNL     1       3.862   1.000  18.626  0.00  0.00    +0.000 C 
ATOM      8  O   UNL     1       2.627   1.681  18.491  0.00  0.00    +0.000 OA
ENDBRANCH   1   8
BRANCH   5   9
ATOM      9  C   UNL     1       2.251   6.781  18.552  0.00  0.00    +0.000 C 
BRANCH   9  10
ATOM     10  N   UNL     1       2.031   7.813  19.568  0.00  0.00    +0.000 NA
ATOM     11  H   UNL     1       2.916   8.078  19.989  0.00  0.00    +0.000 HD
BRANCH  10  12
ATOM     12  C   UNL     1       1.474   9.060  19.031  0.00  0.00    +0.000 C 
BRANCH  12  13
ATOM     13  C   UNL     1       0.993   9.955  20.173  0.00  0.00    +0.000 C 
BRANCH  13  14
ATOM     14  N   UNL     1      -0.397   9.806  20.603  0.00  0.00    +0.000 NA
ATOM     15  C   UNL     1      -1.028  11.082  20.992  0.00  0.00    +0.000 C 
ATOM     16  C   UNL     1      -0.458  11.690  22.284  0.00  0.00    +0.000 C 
ATOM     17  O   UNL     1      -0.523  10.761  23.377  0.00  0.00    +0.000 OA
ATOM     18  C   UNL     1       0.165   9.544  23.052  0.00  0.00    +0.000 C 
ATOM     19  C   UNL     1      -0.412   8.900  21.778  0.00  0.00    +0.000 C 
ENDBRANCH  13  14
ENDBRANCH  12  13
ENDBRANCH  10  12
ENDBRANCH   9  10
ENDBRANCH   5   9
BRANCH   6  20
ATOM     20  O   UNL     1       3.011   4.144  17.045  0.00  0.00    +0.000 OA
BRANCH  20  21
ATOM     21  C   UNL     1       4.399   4.100  16.742  0.00  0.00    +0.000 C 
BRANCH  21  22
ATOM     22  C   UNL     1       5.259   5.218  17.256  0.00  0.00    +0.000 A 
ATOM     23  C   UNL     1       5.479   6.295  16.364  0.00  0.00    +0.000 A 
ATOM     24  C   UNL     1       6.439   7.258  16.642  0.00  0.00    +0.000 A 
ATOM     25  C   UNL     1       7.171   7.163  17.818  0.00  0.00    +0.000 A 
ATOM     26 CL   UNL     1       8.389   8.331  18.143  0.00  0.00    +0.000 Cl
ATOM     27  C   UNL     1       6.951   6.119  18.716  0.00  0.00    +0.000 A 
ATOM     28  C   UNL     1       5.998   5.142  18.431  0.00  0.00    +0.000 A 
ATOM     29 CL   UNL     1       5.841   3.806  19.513  0.00  0.00    +0.000 Cl
ENDBRANCH  21  22
ENDBRANCH  20  21
ENDBRANCH   6  20
TORSDOF 9
ENDMDL
MODEL 8
REMARK VINA RESULT:      -6.8      1.987      2.740
REMARK  Name = 
REMARK  10 active torsions:
REMARK  status: ('A' for Active; 'I' for Inactive)
REMARK    1  A    between atoms: C_1  and  O_2
REMARK    2  A    between atoms: O_2  and  C_3
REMARK    3  A    between atoms: C_7  and  C_8
REMARK    4  A    between atoms: C_8  and  N_9
REMARK    5  A    between atoms: N_9  and  C_10
REMARK    6  A    between atoms: C_10  and  C_11
REMARK    7  A    between atoms: C_11  and  N_12
REMARK    8  A    between atoms: C_18  and  O_19
REMARK    9  A    between atoms: O_19  and  C_20
REMARK   10  A    between atoms: C_20  and  C_21
REMARK                            x       y       z     vdW  Elec       q    Type
REMARK                         _______ _______ _______ _____ _____    ______ ____
ROOT
ATOM      1  C   UNL     1       3.399   2.945  20.108  0.00  0.00    +0.000 A 
ATOM      2  C   UNL     1       2.319   2.536  20.900  0.00  0.00    +0.000 A 
ATOM      3  C   UNL     1       1.351   3.437  21.319  0.00  0.00    +0.000 A 
ATOM      4  C   UNL     1       1.441   4.759  20.908  0.00  0.00    +0.000 A 
ATOM      5  C   UNL     1       2.490   5.212  20.073  0.00  0.00    +0.000 A 
ATOM      6  C   UNL     1       3.519   4.293  19.699  0.00  0.00    +0.000 A 
ENDROOT
BRANCH   1   8
ATOM      7  C   UNL     1       5.075   1.346  20.752  0.00  0.00    +0.000 C 
ATOM      8  O   UNL     1       4.197   1.882  19.780  0.00  0.00    +0.000 OA
ENDBRANCH   1   8
BRANCH   5   9
ATOM      9  C   UNL     1       2.346   6.647  19.601  0.00  0.00    +0.000 C 
BRANCH   9  10
ATOM     10  N   UNL     1       2.830   6.881  18.238  0.00  0.00    +0.000 NA
ATOM     11  H   UNL     1       2.279   6.339  17.579  0.00  0.00    +0.000 HD
BRANCH  10  12
ATOM     12  C   UNL     1       2.696   8.273  17.796  0.00  0.00    +0.000 C 
BRANCH  12  13
ATOM     13  C   UNL     1       1.606   8.979  18.602  0.00  0.00    +0.000 C 
BRANCH  13  14
ATOM     14  N   UNL     1       1.044  10.206  18.040  0.00  0.00    +0.000 NA
ATOM     15  C   UNL     1       1.594  11.433  18.648  0.00  0.00    +0.000 C 
ATOM     16  C   UNL     1       1.174  11.645  20.113  0.00  0.00    +0.000 C 
ATOM     17  O   UNL     1      -0.254  11.626  20.259  0.00  0.00    +0.000 OA
ATOM     18  C   UNL     1      -0.803  10.400  19.754  0.00  0.00    +0.000 C 
ATOM     19  C   UNL     1      -0.421  10.183  18.278  0.00  0.00    +0.000 C 
ENDBRANCH  13  14
ENDBRANCH  12  13
ENDBRANCH  10  12
ENDBRANCH   9  10
ENDBRANCH   5   9
BRANCH   6  20
ATOM     20  O   UNL     1       4.606   4.596  18.902  0.00  0.00    +0.000 OA
BRANCH  20  21
ATOM     21  C   UNL     1       4.902   3.728  17.815  0.00  0.00    +0.000 C 
BRANCH  21  22
ATOM     22  C   UNL     1       5.623   4.312  16.635  0.00  0.00    +0.000 A 
ATOM     23  C   UNL     1       4.971   4.191  15.384  0.00  0.00    +0.000 A 
ATOM     24  C   UNL     1       5.645   4.479  14.205  0.00  0.00    +0.000 A 
ATOM     25  C   UNL     1       6.964   4.907  14.268  0.00  0.00    +0.000 A 
ATOM     26 CL   UNL     1       7.812   5.224  12.807  0.00  0.00    +0.000 Cl
ATOM     27  C   UNL     1       7.613   5.051  15.494  0.00  0.00    +0.000 A 
ATOM     28  C   UNL     1       6.942   4.747  16.678  0.00  0.00    +0.000 A 
ATOM     29 CL   UNL     1       7.820   4.827  18.163  0.00  0.00    +0.000 Cl
ENDBRANCH  21  22
ENDBRANCH  20  21
ENDBRANCH   6  20
TORSDOF 9
ENDMDL
MODEL 9
REMARK VINA RESULT:      -6.7      1.030      1.444
REMARK  Name = 
REMARK  10 active torsions:
REMARK  status: ('A' for Active; 'I' for Inactive)
REMARK    1  A    between atoms: C_1  and  O_2
REMARK    2  A    between atoms: O_2  and  C_3
REMARK    3  A    between atoms: C_7  and  C_8
REMARK    4  A    between atoms: C_8  and  N_9
REMARK    5  A    between atoms: N_9  and  C_10
REMARK    6  A    between atoms: C_10  and  C_11
REMARK    7  A    between atoms: C_11  and  N_12
REMARK    8  A    between atoms: C_18  and  O_19
REMARK    9  A    between atoms: O_19  and  C_20
REMARK   10  A    between atoms: C_20  and  C_21
REMARK                            x       y       z     vdW  Elec       q    Type
REMARK                         _______ _______ _______ _____ _____    ______ ____
ROOT
ATOM      1  C   UNL     1       2.537   3.033  18.753  0.00  0.00    +0.000 A 
ATOM      2  C   UNL     1       1.699   2.533  19.758  0.00  0.00    +0.000 A 
ATOM      3  C   UNL     1       1.162   3.365  20.728  0.00  0.00    +0.000 A 
ATOM      4  C   UNL     1       1.432   4.725  20.672  0.00  0.00    +0.000 A 
ATOM      5  C   UNL     1       2.238   5.285  19.652  0.00  0.00    +0.000 A 
ATOM      6  C   UNL     1       2.841   4.413  18.694  0.00  0.00    +0.000 A 
ENDROOT
BRANCH   1   8
ATOM      7  C   UNL     1       3.876   1.091  18.288  0.00  0.00    +0.000 C 
ATOM      8  O   UNL     1       2.908   2.042  17.885  0.00  0.00    +0.000 OA
ENDBRANCH   1   8
BRANCH   5   9
ATOM      9  C   UNL     1       2.301   6.801  19.659  0.00  0.00    +0.000 C 
BRANCH   9  10
ATOM     10  N   UNL     1       1.976   7.407  20.953  0.00  0.00    +0.000 NA
ATOM     11  H   UNL     1       2.827   7.708  21.417  0.00  0.00    +0.000 HD
BRANCH  10  12
ATOM     12  C   UNL     1       1.151   8.616  20.846  0.00  0.00    +0.000 C 
BRANCH  12  13
ATOM     13  C   UNL     1       1.327   9.253  19.468  0.00  0.00    +0.000 C 
BRANCH  13  14
ATOM     14  N   UNL     1       0.335  10.246  19.056  0.00  0.00    +0.000 NA
ATOM     15  C   UNL     1       0.932  11.529  18.637  0.00  0.00    +0.000 C 
ATOM     16  C   UNL     1       1.578  12.321  19.786  0.00  0.00    +0.000 C 
ATOM     17  O   UNL     1       0.650  12.543  20.859  0.00  0.00    +0.000 OA
ATOM     18  C   UNL     1       0.123  11.298  21.344  0.00  0.00    +0.000 C 
ATOM     19  C   UNL     1      -0.556  10.502  20.215  0.00  0.00    +0.000 C 
ENDBRANCH  13  14
ENDBRANCH  12  13
ENDBRANCH  10  12
ENDBRANCH   9  10
ENDBRANCH   5   9
BRANCH   6  20
ATOM     20  O   UNL     1       3.658   4.815  17.654  0.00  0.00    +0.000 OA
BRANCH  20  21
ATOM     21  C   UNL     1       5.006   4.363  17.648  0.00  0.00    +0.000 C 
BRANCH  21  22
ATOM     22  C   UNL     1       6.088   5.400  17.702  0.00  0.00    +0.000 A 
ATOM     23  C   UNL     1       6.979   5.316  18.799  0.00  0.00    +0.000 A 
ATOM     24  C   UNL     1       7.862   6.351  19.075  0.00  0.00    +0.000 A 
ATOM     25  C   UNL     1       7.874   7.468  18.249  0.00  0.00    +0.000 A 
ATOM     26 CL   UNL     1       8.936   8.768  18.614  0.00  0.00    +0.000 Cl
ATOM     27  C   UNL     1       7.016   7.556  17.152  0.00  0.00    +0.000 A 
ATOM     28  C   UNL     1       6.118   6.524  16.883  0.00  0.00    +0.000 A 
ATOM     29 CL   UNL     1       4.997   6.728  15.586  0.00  0.00    +0.000 Cl
ENDBRANCH  21  22
ENDBRANCH  20  21
ENDBRANCH   6  20
TORSDOF 9
ENDMDL
