MODEL 1
REMARK VINA RESULT:      -6.4      0.000      0.000
REMARK  Name = 
REMARK  3 active torsions:
REMARK  status: ('A' for Active; 'I' for Inactive)
REMARK    1  A    between atoms: C_1  and  C_2
REMARK    2  A    between atoms: C_5  and  C_6
REMARK    3  A    between atoms: C_6  and  C_7
REMARK                            x       y       z     vdW  Elec       q    Type
REMARK                         _______ _______ _______ _____ _____    ______ ____
ROOT
ATOM      1  C   UNL     1       3.148   4.473  19.310  0.00  0.00    +0.000 C 
ATOM      2  C   UNL     1       2.507   5.615  20.122  0.00  0.00    +0.000 C 
ATOM      3  C   UNL     1       3.065   3.134  20.083  0.00  0.00    +0.000 C 
ATOM      4  N   UNL     1       2.188   2.252  19.246  0.00  0.00    +0.000 NA
ATOM      5  C   UNL     1       2.978   1.830  18.054  0.00  0.00    +0.000 C 
ATOM      6  C   UNL     1       3.000   3.074  17.167  0.00  0.00    +0.000 C 
ATOM      7  C   UNL     1       2.297   4.114  18.059  0.00  0.00    +0.000 C 
ATOM      8  C   UNL     1       1.224   3.218  18.659  0.00  0.00    +0.000 C 
ENDROOT
BRANCH   1  13
ATOM      9  C   UNL     1       7.221   6.680  17.572  0.00  0.00    +0.000 C 
ATOM     10  C   UNL     1       6.311   5.749  18.263  0.00  0.00    +0.000 A 
ATOM     11  N   UNL     1       6.741   4.642  18.880  0.00  0.00    +0.000 NA
ATOM     12  O   UNL     1       5.564   4.063  19.355  0.00  0.00    +0.000 OA
ATOM     13  C   UNL     1       4.542   4.877  18.956  0.00  0.00    +0.000 A 
ATOM     14  N   UNL     1       4.957   5.947  18.311  0.00  0.00    +0.000 NA
ENDBRANCH   1  13
TORSDOF 1
ENDMDL
MODEL 2
REMARK VINA RESULT:      -6.4      3.155      4.276
REMARK  Name = 
REMARK  3 active torsions:
REMARK  status: ('A' for Active; 'I' for Inactive)
REMARK    1  A    between atoms: C_1  and  C_2
REMARK    2  A    between atoms: C_5  and  C_6
REMARK    3  A    between atoms: C_6  and  C_7
REMARK                            x       y       z     vdW  Elec       q    Type
REMARK                         _______ _______ _______ _____ _____    ______ ____
ROOT
ATOM      1  C   UNL     1       6.364   4.792  17.446  0.00  0.00    +0.000 C 
ATOM      2  C   UNL     1       7.739   4.655  18.130  0.00  0.00    +0.000 C 
ATOM      3  C   UNL     1       5.372   3.734  17.990  0.00  0.00    +0.000 C 
ATOM      4  N   UNL     1       4.294   4.521  18.671  0.00  0.00    +0.000 NA
ATOM      5  C   UNL     1       3.461   5.157  17.611  0.00  0.00    +0.000 C 
ATOM      6  C   UNL     1       4.327   6.308  17.102  0.00  0.00    +0.000 C 
ATOM      7  C   UNL     1       5.635   6.093  17.885  0.00  0.00    +0.000 C 
ATOM      8  C   UNL     1       5.040   5.681  19.223  0.00  0.00    +0.000 C 
ENDROOT
BRANCH   1  13
ATOM      9  C   UNL     1       6.328   3.633  12.636  0.00  0.00    +0.000 C 
ATOM     10  C   UNL     1       6.605   4.301  13.921  0.00  0.00    +0.000 A 
ATOM     11  N   UNL     1       7.470   5.315  14.036  0.00  0.00    +0.000 NA
ATOM     12  O   UNL     1       7.439   5.608  15.400  0.00  0.00    +0.000 OA
ATOM     13  C   UNL     1       6.568   4.722  15.968  0.00  0.00    +0.000 A 
ATOM     14  N   UNL     1       6.002   3.920  15.090  0.00  0.00    +0.000 NA
ENDBRANCH   1  13
TORSDOF 1
ENDMDL
MODEL 3
REMARK VINA RESULT:      -6.2      1.185      2.424
REMARK  Name = 
REMARK  3 active torsions:
REMARK  status: ('A' for Active; 'I' for Inactive)
REMARK    1  A    between atoms: C_1  and  C_2
REMARK    2  A    between atoms: C_5  and  C_6
REMARK    3  A    between atoms: C_6  and  C_7
REMARK                            x       y       z     vdW  Elec       q    Type
REMARK                         _______ _______ _______ _____ _____    ______ ____
ROOT
ATOM      1  C   UNL     1       3.111   3.003  19.082  0.00  0.00    +0.000 C 
ATOM      2  C   UNL     1       3.473   1.609  18.533  0.00  0.00    +0.000 C 
ATOM      3  C   UNL     1       1.757   3.486  18.505  0.00  0.00    +0.000 C 
ATOM      4  N   UNL     1       0.843   3.589  19.688  0.00  0.00    +0.000 NA
ATOM      5  C   UNL     1       1.251   4.791  20.470  0.00  0.00    +0.000 C 
ATOM      6  C   UNL     1       2.530   4.352  21.182  0.00  0.00    +0.000 C 
ATOM      7  C   UNL     1       2.755   2.947  20.594  0.00  0.00    +0.000 C 
ATOM      8  C   UNL     1       1.308   2.477  20.556  0.00  0.00    +0.000 C 
ENDROOT
BRANCH   1  13
ATOM      9  C   UNL     1       6.111   6.566  17.413  0.00  0.00    +0.000 C 
ATOM     10  C   UNL     1       5.580   5.403  18.144  0.00  0.00    +0.000 A 
ATOM     11  N   UNL     1       6.339   4.644  18.944  0.00  0.00    +0.000 NA
ATOM     12  O   UNL     1       5.451   3.664  19.392  0.00  0.00    +0.000 OA
ATOM     13  C   UNL     1       4.250   3.928  18.796  0.00  0.00    +0.000 A 
ATOM     14  N   UNL     1       4.271   5.010  18.048  0.00  0.00    +0.000 NA
ENDBRANCH   1  13
TORSDOF 1
ENDMDL
MODEL 4
REMARK VINA RESULT:      -6.2      1.277      2.062
REMARK  Name = 
REMARK  3 active torsions:
REMARK  status: ('A' for Active; 'I' for Inactive)
REMARK    1  A    between atoms: C_1  and  C_2
REMARK    2  A    between atoms: C_5  and  C_6
REMARK    3  A    between atoms: C_6  and  C_7
REMARK                            x       y       z     vdW  Elec       q    Type
REMARK                         _______ _______ _______ _____ _____    ______ ____
ROOT
ATOM      1  C   UNL     1       3.815   3.120  19.070  0.00  0.00    +0.000 C 
ATOM      2  C   UNL     1       4.353   2.082  20.074  0.00  0.00    +0.000 C 
ATOM      3  C   UNL     1       3.040   2.426  17.923  0.00  0.00    +0.000 C 
ATOM      4  N   UNL     1       1.627   2.908  18.058  0.00  0.00    +0.000 NA
ATOM      5  C   UNL     1       1.587   4.325  17.596  0.00  0.00    +0.000 C 
ATOM      6  C   UNL     1       2.227   5.105  18.743  0.00  0.00    +0.000 C 
ATOM      7  C   UNL     1       2.672   3.974  19.688  0.00  0.00    +0.000 C 
ATOM      8  C   UNL     1       1.473   3.052  19.529  0.00  0.00    +0.000 C 
ENDROOT
BRANCH   1  13
ATOM      9  C   UNL     1       7.710   6.143  18.654  0.00  0.00    +0.000 C 
ATOM     10  C   UNL     1       6.609   5.216  18.339  0.00  0.00    +0.000 A 
ATOM     11  N   UNL     1       6.285   4.878  17.085  0.00  0.00    +0.000 NA
ATOM     12  O   UNL     1       5.193   4.026  17.256  0.00  0.00    +0.000 OA
ATOM     13  C   UNL     1       4.963   3.954  18.601  0.00  0.00    +0.000 A 
ATOM     14  N   UNL     1       5.833   4.642  19.311  0.00  0.00    +0.000 NA
ENDBRANCH   1  13
TORSDOF 1
ENDMDL
MODEL 5
REMARK VINA RESULT:      -6.2      1.384      2.070
REMARK  Name = 
REMARK  3 active torsions:
REMARK  status: ('A' for Active; 'I' for Inactive)
REMARK    1  A    between atoms: C_1  and  C_2
REMARK    2  A    between atoms: C_5  and  C_6
REMARK    3  A    between atoms: C_6  and  C_7
REMARK                            x       y       z     vdW  Elec       q    Type
REMARK                         _______ _______ _______ _____ _____    ______ ____
ROOT
ATOM      1  C   UNL     1       3.639   3.114  19.057  0.00  0.00    +0.000 C 
ATOM      2  C   UNL     1       4.134   2.172  20.171  0.00  0.00    +0.000 C 
ATOM      3  C   UNL     1       2.703   2.363  18.077  0.00  0.00    +0.000 C 
ATOM      4  N   UNL     1       1.368   3.028  18.223  0.00  0.00    +0.000 NA
ATOM      5  C   UNL     1       1.450   4.358  17.555  0.00  0.00    +0.000 C 
ATOM      6  C   UNL     1       2.262   5.211  18.531  0.00  0.00    +0.000 C 
ATOM      7  C   UNL     1       2.650   4.180  19.606  0.00  0.00    +0.000 C 
ATOM      8  C   UNL     1       1.346   3.398  19.662  0.00  0.00    +0.000 C 
ENDROOT
BRANCH   1  13
ATOM      9  C   UNL     1       7.030   4.841  15.894  0.00  0.00    +0.000 C 
ATOM     10  C   UNL     1       6.312   4.484  17.130  0.00  0.00    +0.000 A 
ATOM     11  N   UNL     1       6.838   4.661  18.348  0.00  0.00    +0.000 NA
ATOM     12  O   UNL     1       5.847   4.168  19.199  0.00  0.00    +0.000 OA
ATOM     13  C   UNL     1       4.832   3.727  18.398  0.00  0.00    +0.000 A 
ATOM     14  N   UNL     1       5.058   3.933  17.118  0.00  0.00    +0.000 NA
ENDBRANCH   1  13
TORSDOF 1
ENDMDL
MODEL 6
REMARK VINA RESULT:      -6.2      1.351      2.625
REMARK  Name = 
REMARK  3 active torsions:
REMARK  status: ('A' for Active; 'I' for Inactive)
REMARK    1  A    between atoms: C_1  and  C_2
REMARK    2  A    between atoms: C_5  and  C_6
REMARK    3  A    between atoms: C_6  and  C_7
REMARK                            x       y       z     vdW  Elec       q    Type
REMARK                         _______ _______ _______ _____ _____    ______ ____
ROOT
ATOM      1  C   UNL     1       3.179   3.075  19.112  0.00  0.00    +0.000 C 
ATOM      2  C   UNL     1       3.624   1.710  18.550  0.00  0.00    +0.000 C 
ATOM      3  C   UNL     1       1.817   3.500  18.509  0.00  0.00    +0.000 C 
ATOM      4  N   UNL     1       0.869   3.536  19.669  0.00  0.00    +0.000 NA
ATOM      5  C   UNL     1       1.196   4.743  20.482  0.00  0.00    +0.000 C 
ATOM      6  C   UNL     1       2.477   4.355  21.219  0.00  0.00    +0.000 C 
ATOM      7  C   UNL     1       2.787   2.974  20.613  0.00  0.00    +0.000 C 
ATOM      8  C   UNL     1       1.367   2.432  20.529  0.00  0.00    +0.000 C 
ENDROOT
BRANCH   1  13
ATOM      9  C   UNL     1       7.415   5.630  19.032  0.00  0.00    +0.000 C 
ATOM     10  C   UNL     1       6.029   5.196  18.784  0.00  0.00    +0.000 A 
ATOM     11  N   UNL     1       5.159   5.925  18.074  0.00  0.00    +0.000 NA
ATOM     12  O   UNL     1       3.990   5.164  18.121  0.00  0.00    +0.000 OA
ATOM     13  C   UNL     1       4.276   4.060  18.873  0.00  0.00    +0.000 A 
ATOM     14  N   UNL     1       5.530   4.018  19.273  0.00  0.00    +0.000 NA
ENDBRANCH   1  13
TORSDOF 1
ENDMDL
MODEL 7
REMARK VINA RESULT:      -6.1      0.979      1.177
REMARK  Name = 
REMARK  3 active torsions:
REMARK  status: ('A' for Active; 'I' for Inactive)
REMARK    1  A    between atoms: C_1  and  C_2
REMARK    2  A    between atoms: C_5  and  C_6
REMARK    3  A    between atoms: C_6  and  C_7
REMARK                            x       y       z     vdW  Elec       q    Type
REMARK                         _______ _______ _______ _____ _____    ______ ____
ROOT
ATOM      1  C   UNL     1       2.950   4.411  19.423  0.00  0.00    +0.000 C 
ATOM      2  C   UNL     1       2.255   5.446  20.330  0.00  0.00    +0.000 C 
ATOM      3  C   UNL     1       3.076   3.046  20.143  0.00  0.00    +0.000 C 
ATOM      4  N   UNL     1       2.237   2.100  19.339  0.00  0.00    +0.000 NA
ATOM      5  C   UNL     1       2.969   1.810  18.073  0.00  0.00    +0.000 C 
ATOM      6  C   UNL     1       2.784   3.078  17.241  0.00  0.00    +0.000 C 
ATOM      7  C   UNL     1       2.046   4.001  18.227  0.00  0.00    +0.000 C 
ATOM      8  C   UNL     1       1.128   2.971  18.868  0.00  0.00    +0.000 C 
ENDROOT
BRANCH   1  13
ATOM      9  C   UNL     1       7.720   5.524  18.722  0.00  0.00    +0.000 C 
ATOM     10  C   UNL     1       6.249   5.510  18.625  0.00  0.00    +0.000 A 
ATOM     11  N   UNL     1       5.566   6.388  17.881  0.00  0.00    +0.000 NA
ATOM     12  O   UNL     1       4.236   6.030  18.106  0.00  0.00    +0.000 OA
ATOM     13  C   UNL     1       4.259   4.981  18.981  0.00  0.00    +0.000 A 
ATOM     14  N   UNL     1       5.478   4.603  19.301  0.00  0.00    +0.000 NA
ENDBRANCH   1  13
TORSDOF 1
ENDMDL
MODEL 8
REMARK VINA RESULT:      -6.1      1.396      1.852
REMARK  Name = 
REMARK  3 active torsions:
REMARK  status: ('A' for Active; 'I' for Inactive)
REMARK    1  A    between atoms: C_1  and  C_2
REMARK    2  A    between atoms: C_5  and  C_6
REMARK    3  A    between atoms: C_6  and  C_7
REMARK                            x       y       z     vdW  Elec       q    Type
REMARK                         _______ _______ _______ _____ _____    ______ ____
ROOT
ATOM      1  C   UNL     1       2.830   4.748  19.006  0.00  0.00    +0.000 C 
ATOM      2  C   UNL     1       2.179   5.654  17.943  0.00  0.00    +0.000 C 
ATOM      3  C   UNL     1       2.334   5.120  20.425  0.00  0.00    +0.000 C 
ATOM      4  N   UNL     1       1.591   3.912  20.909  0.00  0.00    +0.000 NA
ATOM      5  C   UNL     1       2.598   2.863  21.239  0.00  0.00    +0.000 C 
ATOM      6  C   UNL     1       3.052   2.346  19.874  0.00  0.00    +0.000 C 
ATOM      7  C   UNL     1       2.304   3.288  18.912  0.00  0.00    +0.000 C 
ATOM      8  C   UNL     1       0.983   3.384  19.661  0.00  0.00    +0.000 C 
ENDROOT
BRANCH   1  13
ATOM      9  C   UNL     1       7.516   4.560  17.428  0.00  0.00    +0.000 C 
ATOM     10  C   UNL     1       6.318   4.789  18.255  0.00  0.00    +0.000 A 
ATOM     11  N   UNL     1       6.385   5.226  19.519  0.00  0.00    +0.000 NA
ATOM     12  O   UNL     1       5.047   5.268  19.913  0.00  0.00    +0.000 OA
ATOM     13  C   UNL     1       4.313   4.832  18.846  0.00  0.00    +0.000 A 
ATOM     14  N   UNL     1       5.051   4.560  17.790  0.00  0.00    +0.000 NA
ENDBRANCH   1  13
TORSDOF 1
ENDMDL
MODEL 9
REMARK VINA RESULT:      -6.1      2.182      2.472
REMARK  Name = 
REMARK  3 active torsions:
REMARK  status: ('A' for Active; 'I' for Inactive)
REMARK    1  A    between atoms: C_1  and  C_2
REMARK    2  A    between atoms: C_5  and  C_6
REMARK    3  A    between atoms: C_6  and  C_7
REMARK                            x       y       z     vdW  Elec       q    Type
REMARK                         _______ _______ _______ _____ _____    ______ ____
ROOT
ATOM      1  C   UNL     1       4.199   5.476  17.835  0.00  0.00    +0.000 C 
ATOM      2  C   UNL     1       3.738   6.933  17.637  0.00  0.00    +0.000 C 
ATOM      3  C   UNL     1       4.540   5.204  19.321  0.00  0.00    +0.000 C 
ATOM      4  N   UNL     1       3.544   4.179  19.771  0.00  0.00    +0.000 NA
ATOM      5  C   UNL     1       3.930   2.875  19.160  0.00  0.00    +0.000 C 
ATOM      6  C   UNL     1       3.505   3.012  17.698  0.00  0.00    +0.000 C 
ATOM      7  C   UNL     1       3.026   4.474  17.642  0.00  0.00    +0.000 C 
ATOM      8  C   UNL     1       2.331   4.544  18.994  0.00  0.00    +0.000 C 
ENDROOT
BRANCH   1  13
ATOM      9  C   UNL     1       7.151   4.818  13.919  0.00  0.00    +0.000 C 
ATOM     10  C   UNL     1       6.648   4.920  15.300  0.00  0.00    +0.000 A 
ATOM     11  N   UNL     1       7.398   4.618  16.367  0.00  0.00    +0.000 NA
ATOM     12  O   UNL     1       6.529   4.824  17.438  0.00  0.00    +0.000 OA
ATOM     13  C   UNL     1       5.334   5.213  16.900  0.00  0.00    +0.000 A 
ATOM     14  N   UNL     1       5.370   5.321  15.588  0.00  0.00    +0.000 NA
ENDBRANCH   1  13
TORSDOF 1
ENDMDL
