MODEL 1
REMARK VINA RESULT:      -8.0      0.000      0.000
REMARK  Name = 
REMARK  9 active torsions:
REMARK  status: ('A' for Active; 'I' for Inactive)
REMARK    1  A    between atoms: C_1  and  C_2
REMARK    2  A    between atoms: C_2  and  C_3
REMARK    3  A    between atoms: C_3  and  C_4
REMARK    4  A    between atoms: C_4  and  N_5
REMARK    5  A    between atoms: C_6  and  C_8
REMARK    6  A    between atoms: C_8  and  C_9
REMARK    7  A    between atoms: C_9  and  C_10
REMARK    8  A    between atoms: N_18  and  C_19
REMARK    9  A    between atoms: C_19  and  C_20
REMARK                            x       y       z     vdW  Elec       q    Type
REMARK                         _______ _______ _______ _____ _____    ______ ____
ROOT
ATOM      1  C   UNL     1       3.653   3.760  16.990  0.00  0.00    +0.000 A 
ATOM      2  N   UNL     1       3.202   2.630  17.504  0.00  0.00    +0.000 NA
ATOM      3  C   UNL     1       2.552   2.984  18.656  0.00  0.00    +0.000 A 
ATOM      4  C   UNL     1       1.870   2.210  19.601  0.00  0.00    +0.000 A 
ATOM      5  C   UNL     1       1.281   2.884  20.672  0.00  0.00    +0.000 A 
ATOM      6  C   UNL     1       1.412   4.266  20.758  0.00  0.00    +0.000 A 
ATOM      7  N   UNL     1       2.087   5.057  19.887  0.00  0.00    +0.000 NA
ATOM      8  C   UNL     1       2.618   4.356  18.864  0.00  0.00    +0.000 A 
ATOM      9  N   UNL     1       3.346   4.834  17.805  0.00  0.00    +0.000 N 
ENDROOT
BRANCH   1  10
ATOM     10  C   UNL     1       4.420   3.888  15.714  0.00  0.00    +0.000 C 
BRANCH  10  11
ATOM     11  C   UNL     1       5.923   3.780  15.946  0.00  0.00    +0.000 C 
BRANCH  11  13
ATOM     12  N   UNL     1       6.320   3.564  13.576  0.00  0.00    +0.000 N 
ATOM     13  C   UNL     1       6.674   4.244  14.723  0.00  0.00    +0.000 C 
ATOM     14  O   UNL     1       7.501   5.145  14.739  0.00  0.00    +0.000 OA
ATOM     15  H   UNL     1       5.705   2.761  13.652  0.00  0.00    +0.000 HD
BRANCH  12  16
ATOM     16  C   UNL     1       6.913   3.876  12.295  0.00  0.00    +0.000 C 
BRANCH  16  17
ATOM     17  C   UNL     1       7.043   2.656  11.386  0.00  0.00    +0.000 C 
BRANCH  17  19
ATOM     18  C   UNL     1       6.162   0.303  11.198  0.00  0.00    +0.000 C 
ATOM     19  C   UNL     1       5.803   1.762  11.423  0.00  0.00    +0.000 C 
ENDBRANCH  17  19
ENDBRANCH  16  17
ENDBRANCH  12  16
ENDBRANCH  11  13
ENDBRANCH  10  11
ENDBRANCH   1  10
BRANCH   9  20
ATOM     20  C   UNL     1       3.843   6.193  17.673  0.00  0.00    +0.000 C 
BRANCH  20  21
ATOM     21  C   UNL     1       5.285   6.370  18.078  0.00  0.00    +0.000 A 
ATOM     22  C   UNL     1       5.843   5.614  19.120  0.00  0.00    +0.000 A 
ATOM     23  C   UNL     1       7.219   5.632  19.353  0.00  0.00    +0.000 A 
ATOM     24  C   UNL     1       8.049   6.447  18.586  0.00  0.00    +0.000 A 
ATOM     25  C   UNL     1       7.502   7.249  17.588  0.00  0.00    +0.000 A 
ATOM     26  C   UNL     1       6.131   7.198  17.323  0.00  0.00    +0.000 A 
ENDBRANCH  20  21
ENDBRANCH   9  20
TORSDOF 8
ENDMDL
MODEL 2
REMARK VINA RESULT:      -8.0      2.137      3.417
REMARK  Name = 
REMARK  9 active torsions:
REMARK  status: ('A' for Active; 'I' for Inactive)
REMARK    1  A    between atoms: C_1  and  C_2
REMARK    2  A    between atoms: C_2  and  C_3
REMARK    3  A    between atoms: C_3  and  C_4
REMARK    4  A    between atoms: C_4  and  N_5
REMARK    5  A    between atoms: C_6  and  C_8
REMARK    6  A    between atoms: C_8  and  C_9
REMARK    7  A    between atoms: C_9  and  C_10
REMARK    8  A    between atoms: N_18  and  C_19
REMARK    9  A    between atoms: C_19  and  C_20
REMARK                            x       y       z     vdW  Elec       q    Type
REMARK                         _______ _______ _______ _____ _____    ______ ____
ROOT
ATOM      1  C   UNL     1       5.419   5.176  18.637  0.00  0.00    +0.000 A 
ATOM      2  N   UNL     1       5.415   4.001  19.239  0.00  0.00    +0.000 NA
ATOM      3  C   UNL     1       4.193   3.449  18.959  0.00  0.00    +0.000 A 
ATOM      4  C   UNL     1       3.638   2.216  19.320  0.00  0.00    +0.000 A 
ATOM      5  C   UNL     1       2.357   1.931  18.846  0.00  0.00    +0.000 A 
ATOM      6  C   UNL     1       1.697   2.876  18.066  0.00  0.00    +0.000 A 
ATOM      7  N   UNL     1       2.178   4.094  17.715  0.00  0.00    +0.000 NA
ATOM      8  C   UNL     1       3.425   4.308  18.184  0.00  0.00    +0.000 A 
ATOM      9  N   UNL     1       4.211   5.416  18.008  0.00  0.00    +0.000 N 
ENDROOT
BRANCH   1  10
ATOM     10  C   UNL     1       6.553   6.150  18.641  0.00  0.00    +0.000 C 
BRANCH  10  11
ATOM     11  C   UNL     1       6.952   6.556  17.227  0.00  0.00    +0.000 C 
BRANCH  11  13
ATOM     12  N   UNL     1       6.555   5.332  15.186  0.00  0.00    +0.000 N 
ATOM     13  C   UNL     1       7.227   5.332  16.391  0.00  0.00    +0.000 C 
ATOM     14  O   UNL     1       7.983   4.433  16.735  0.00  0.00    +0.000 OA
ATOM     15  H   UNL     1       5.866   6.055  15.009  0.00  0.00    +0.000 HD
BRANCH  12  16
ATOM     16  C   UNL     1       6.703   4.255  14.233  0.00  0.00    +0.000 C 
BRANCH  16  17
ATOM     17  C   UNL     1       5.392   3.885  13.543  0.00  0.00    +0.000 C 
BRANCH  17  19
ATOM     18  C   UNL     1       4.307   3.200  11.374  0.00  0.00    +0.000 C 
ATOM     19  C   UNL     1       5.610   3.291  12.151  0.00  0.00    +0.000 C 
ENDBRANCH  17  19
ENDBRANCH  16  17
ENDBRANCH  12  16
ENDBRANCH  11  13
ENDBRANCH  10  11
ENDBRANCH   1  10
BRANCH   9  20
ATOM     20  C   UNL     1       3.775   6.670  17.418  0.00  0.00    +0.000 C 
BRANCH  20  21
ATOM     21  C   UNL     1       2.765   7.428  18.244  0.00  0.00    +0.000 A 
ATOM     22  C   UNL     1       2.481   7.053  19.565  0.00  0.00    +0.000 A 
ATOM     23  C   UNL     1       1.707   7.873  20.387  0.00  0.00    +0.000 A 
ATOM     24  C   UNL     1       1.160   9.052  19.884  0.00  0.00    +0.000 A 
ATOM     25  C   UNL     1       1.383   9.408  18.556  0.00  0.00    +0.000 A 
ATOM     26  C   UNL     1       2.195   8.611  17.746  0.00  0.00    +0.000 A 
ENDBRANCH  20  21
ENDBRANCH   9  20
TORSDOF 8
ENDMDL
MODEL 3
REMARK VINA RESULT:      -7.7      1.558      3.941
REMARK  Name = 
REMARK  9 active torsions:
REMARK  status: ('A' for Active; 'I' for Inactive)
REMARK    1  A    between atoms: C_1  and  C_2
REMARK    2  A    between atoms: C_2  and  C_3
REMARK    3  A    between atoms: C_3  and  C_4
REMARK    4  A    between atoms: C_4  and  N_5
REMARK    5  A    between atoms: C_6  and  C_8
REMARK    6  A    between atoms: C_8  and  C_9
REMARK    7  A    between atoms: C_9  and  C_10
REMARK    8  A    between atoms: N_18  and  C_19
REMARK    9  A    between atoms: C_19  and  C_20
REMARK                            x       y       z     vdW  Elec       q    Type
REMARK                         _______ _______ _______ _____ _____    ______ ____
ROOT
ATOM      1  C   UNL     1       5.429   5.978  17.299  0.00  0.00    +0.000 A 
ATOM      2  N   UNL     1       4.846   7.028  16.749  0.00  0.00    +0.000 NA
ATOM      3  C   UNL     1       3.815   7.357  17.588  0.00  0.00    +0.000 A 
ATOM      4  C   UNL     1       2.869   8.386  17.521  0.00  0.00    +0.000 A 
ATOM      5  C   UNL     1       1.947   8.473  18.565  0.00  0.00    +0.000 A 
ATOM      6  C   UNL     1       1.999   7.539  19.596  0.00  0.00    +0.000 A 
ATOM      7  N   UNL     1       2.875   6.508  19.691  0.00  0.00    +0.000 NA
ATOM      8  C   UNL     1       3.753   6.484  18.666  0.00  0.00    +0.000 A 
ATOM      9  N   UNL     1       4.774   5.594  18.454  0.00  0.00    +0.000 N 
ENDROOT
BRANCH   1  10
ATOM     10  C   UNL     1       6.623   5.263  16.753  0.00  0.00    +0.000 C 
BRANCH  10  11
ATOM     11  C   UNL     1       6.221   4.061  15.905  0.00  0.00    +0.000 C 
BRANCH  11  13
ATOM     12  N   UNL     1       6.147   3.291  13.620  0.00  0.00    +0.000 N 
ATOM     13  C   UNL     1       6.551   4.312  14.456  0.00  0.00    +0.000 C 
ATOM     14  O   UNL     1       7.106   5.326  14.053  0.00  0.00    +0.000 OA
ATOM     15  H   UNL     1       5.787   2.436  14.029  0.00  0.00    +0.000 HD
BRANCH  12  16
ATOM     16  C   UNL     1       6.354   3.353  12.190  0.00  0.00    +0.000 C 
BRANCH  16  17
ATOM     17  C   UNL     1       5.661   2.219  11.439  0.00  0.00    +0.000 C 
BRANCH  17  19
ATOM     18  C   UNL     1       6.130  -0.254  11.317  0.00  0.00    +0.000 C 
ATOM     19  C   UNL     1       6.640   1.137  10.979  0.00  0.00    +0.000 C 
ENDBRANCH  17  19
ENDBRANCH  16  17
ENDBRANCH  12  16
ENDBRANCH  11  13
ENDBRANCH  10  11
ENDBRANCH   1  10
BRANCH   9  20
ATOM     20  C   UNL     1       5.000   4.378  19.216  0.00  0.00    +0.000 C 
BRANCH  20  21
ATOM     21  C   UNL     1       3.846   3.407  19.194  0.00  0.00    +0.000 A 
ATOM     22  C   UNL     1       3.109   3.131  20.355  0.00  0.00    +0.000 A 
ATOM     23  C   UNL     1       1.923   2.396  20.287  0.00  0.00    +0.000 A 
ATOM     24  C   UNL     1       1.488   1.881  19.069  0.00  0.00    +0.000 A 
ATOM     25  C   UNL     1       2.240   2.096  17.917  0.00  0.00    +0.000 A 
ATOM     26  C   UNL     1       3.402   2.869  17.975  0.00  0.00    +0.000 A 
ENDBRANCH  20  21
ENDBRANCH   9  20
TORSDOF 8
ENDMDL
MODEL 4
REMARK VINA RESULT:      -7.7      2.149      3.501
REMARK  Name = 
REMARK  9 active torsions:
REMARK  status: ('A' for Active; 'I' for Inactive)
REMARK    1  A    between atoms: C_1  and  C_2
REMARK    2  A    between atoms: C_2  and  C_3
REMARK    3  A    between atoms: C_3  and  C_4
REMARK    4  A    between atoms: C_4  and  N_5
REMARK    5  A    between atoms: C_6  and  C_8
REMARK    6  A    between atoms: C_8  and  C_9
REMARK    7  A    between atoms: C_9  and  C_10
REMARK    8  A    between atoms: N_18  and  C_19
REMARK    9  A    between atoms: C_19  and  C_20
REMARK                            x       y       z     vdW  Elec       q    Type
REMARK                         _______ _______ _______ _____ _____    ______ ____
ROOT
ATOM      1  C   UNL     1       5.048   5.207  18.539  0.00  0.00    +0.000 A 
ATOM      2  N   UNL     1       5.086   4.046  19.168  0.00  0.00    +0.000 NA
ATOM      3  C   UNL     1       3.834   3.510  19.025  0.00  0.00    +0.000 A 
ATOM      4  C   UNL     1       3.299   2.297  19.470  0.00  0.00    +0.000 A 
ATOM      5  C   UNL     1       1.972   2.023  19.133  0.00  0.00    +0.000 A 
ATOM      6  C   UNL     1       1.252   2.961  18.398  0.00  0.00    +0.000 A 
ATOM      7  N   UNL     1       1.715   4.162  17.970  0.00  0.00    +0.000 NA
ATOM      8  C   UNL     1       3.006   4.364  18.308  0.00  0.00    +0.000 A 
ATOM      9  N   UNL     1       3.788   5.454  18.026  0.00  0.00    +0.000 N 
ENDROOT
BRANCH   1  10
ATOM     10  C   UNL     1       6.192   6.159  18.406  0.00  0.00    +0.000 C 
BRANCH  10  11
ATOM     11  C   UNL     1       6.532   6.431  16.944  0.00  0.00    +0.000 C 
BRANCH  11  13
ATOM     12  N   UNL     1       6.009   4.835  15.213  0.00  0.00    +0.000 N 
ATOM     13  C   UNL     1       6.876   5.142  16.241  0.00  0.00    +0.000 C 
ATOM     14  O   UNL     1       7.835   4.444  16.538  0.00  0.00    +0.000 OA
ATOM     15  H   UNL     1       5.176   5.401  15.087  0.00  0.00    +0.000 HD
BRANCH  12  16
ATOM     16  C   UNL     1       6.180   3.650  14.402  0.00  0.00    +0.000 C 
BRANCH  16  17
ATOM     17  C   UNL     1       6.496   3.967  12.942  0.00  0.00    +0.000 C 
BRANCH  17  19
ATOM     18  C   UNL     1       4.448   3.375  11.599  0.00  0.00    +0.000 C 
ATOM     19  C   UNL     1       5.863   2.966  11.975  0.00  0.00    +0.000 C 
ENDBRANCH  17  19
ENDBRANCH  16  17
ENDBRANCH  12  16
ENDBRANCH  11  13
ENDBRANCH  10  11
ENDBRANCH   1  10
BRANCH   9  20
ATOM     20  C   UNL     1       3.315   6.701  17.451  0.00  0.00    +0.000 C 
BRANCH  20  21
ATOM     21  C   UNL     1       2.595   7.602  18.424  0.00  0.00    +0.000 A 
ATOM     22  C   UNL     1       1.996   8.795  17.998  0.00  0.00    +0.000 A 
ATOM     23  C   UNL     1       1.161   9.517  18.854  0.00  0.00    +0.000 A 
ATOM     24  C   UNL     1       0.958   9.085  20.162  0.00  0.00    +0.000 A 
ATOM     25  C   UNL     1       1.595   7.933  20.619  0.00  0.00    +0.000 A 
ATOM     26  C   UNL     1       2.394   7.186  19.751  0.00  0.00    +0.000 A 
ENDBRANCH  20  21
ENDBRANCH   9  20
TORSDOF 8
ENDMDL
MODEL 5
REMARK VINA RESULT:      -7.7      2.074      3.049
REMARK  Name = 
REMARK  9 active torsions:
REMARK  status: ('A' for Active; 'I' for Inactive)
REMARK    1  A    between atoms: C_1  and  C_2
REMARK    2  A    between atoms: C_2  and  C_3
REMARK    3  A    between atoms: C_3  and  C_4
REMARK    4  A    between atoms: C_4  and  N_5
REMARK    5  A    between atoms: C_6  and  C_8
REMARK    6  A    between atoms: C_8  and  C_9
REMARK    7  A    between atoms: C_9  and  C_10
REMARK    8  A    between atoms: N_18  and  C_19
REMARK    9  A    between atoms: C_19  and  C_20
REMARK                            x       y       z     vdW  Elec       q    Type
REMARK                         _______ _______ _______ _____ _____    ______ ____
ROOT
ATOM      1  C   UNL     1       3.968   4.814  17.230  0.00  0.00    +0.000 A 
ATOM      2  N   UNL     1       3.590   3.583  16.937  0.00  0.00    +0.000 NA
ATOM      3  C   UNL     1       2.643   3.257  17.870  0.00  0.00    +0.000 A 
ATOM      4  C   UNL     1       1.888   2.092  18.045  0.00  0.00    +0.000 A 
ATOM      5  C   UNL     1       0.968   2.079  19.094  0.00  0.00    +0.000 A 
ATOM      6  C   UNL     1       0.858   3.199  19.913  0.00  0.00    +0.000 A 
ATOM      7  N   UNL     1       1.587   4.338  19.805  0.00  0.00    +0.000 NA
ATOM      8  C   UNL     1       2.445   4.302  18.764  0.00  0.00    +0.000 A 
ATOM      9  N   UNL     1       3.316   5.278  18.357  0.00  0.00    +0.000 N 
ENDROOT
BRANCH   1  10
ATOM     10  C   UNL     1       4.982   5.613  16.477  0.00  0.00    +0.000 C 
BRANCH  10  11
ATOM     11  C   UNL     1       6.332   4.906  16.426  0.00  0.00    +0.000 C 
BRANCH  11  13
ATOM     12  N   UNL     1       6.087   4.146  14.150  0.00  0.00    +0.000 N 
ATOM     13  C   UNL     1       6.860   4.893  15.014  0.00  0.00    +0.000 C 
ATOM     14  O   UNL     1       7.864   5.498  14.661  0.00  0.00    +0.000 OA
ATOM     15  H   UNL     1       5.329   3.588  14.528  0.00  0.00    +0.000 HD
BRANCH  12  16
ATOM     16  C   UNL     1       6.415   4.027  12.746  0.00  0.00    +0.000 C 
BRANCH  16  17
ATOM     17  C   UNL     1       5.771   2.810  12.086  0.00  0.00    +0.000 C 
BRANCH  17  19
ATOM     18  C   UNL     1       6.209   0.545  11.070  0.00  0.00    +0.000 C 
ATOM     19  C   UNL     1       6.795   1.911  11.391  0.00  0.00    +0.000 C 
ENDBRANCH  17  19
ENDBRANCH  16  17
ENDBRANCH  12  16
ENDBRANCH  11  13
ENDBRANCH  10  11
ENDBRANCH   1  10
BRANCH   9  20
ATOM     20  C   UNL     1       3.612   6.497  19.090  0.00  0.00    +0.000 C 
BRANCH  20  21
ATOM     21  C   UNL     1       2.510   7.527  19.057  0.00  0.00    +0.000 A 
ATOM     22  C   UNL     1       1.841   7.909  20.228  0.00  0.00    +0.000 A 
ATOM     23  C   UNL     1       0.972   9.002  20.226  0.00  0.00    +0.000 A 
ATOM     24  C   UNL     1       0.718   9.693  19.043  0.00  0.00    +0.000 A 
ATOM     25  C   UNL     1       1.330   9.288  17.859  0.00  0.00    +0.000 A 
ATOM     26  C   UNL     1       2.234   8.223  17.868  0.00  0.00    +0.000 A 
ENDBRANCH  20  21
ENDBRANCH   9  20
TORSDOF 8
ENDMDL
MODEL 6
REMARK VINA RESULT:      -7.7      4.070      7.748
REMARK  Name = 
REMARK  9 active torsions:
REMARK  status: ('A' for Active; 'I' for Inactive)
REMARK    1  A    between atoms: C_1  and  C_2
REMARK    2  A    between atoms: C_2  and  C_3
REMARK    3  A    between atoms: C_3  and  C_4
REMARK    4  A    between atoms: C_4  and  N_5
REMARK    5  A    between atoms: C_6  and  C_8
REMARK    6  A    between atoms: C_8  and  C_9
REMARK    7  A    between atoms: C_9  and  C_10
REMARK    8  A    between atoms: N_18  and  C_19
REMARK    9  A    between atoms: C_19  and  C_20
REMARK                            x       y       z     vdW  Elec       q    Type
REMARK                         _______ _______ _______ _____ _____    ______ ____
ROOT
ATOM      1  C   UNL     1       3.488   6.718  17.808  0.00  0.00    +0.000 A 
ATOM      2  N   UNL     1       4.690   7.194  17.538  0.00  0.00    +0.000 NA
ATOM      3  C   UNL     1       5.358   6.173  16.915  0.00  0.00    +0.000 A 
ATOM      4  C   UNL     1       6.655   6.106  16.395  0.00  0.00    +0.000 A 
ATOM      5  C   UNL     1       7.037   4.910  15.785  0.00  0.00    +0.000 A 
ATOM      6  C   UNL     1       6.132   3.854  15.739  0.00  0.00    +0.000 A 
ATOM      7  N   UNL     1       4.877   3.857  16.254  0.00  0.00    +0.000 NA
ATOM      8  C   UNL     1       4.556   5.043  16.813  0.00  0.00    +0.000 A 
ATOM      9  N   UNL     1       3.375   5.399  17.410  0.00  0.00    +0.000 N 
ENDROOT
BRANCH   1  10
ATOM     10  C   UNL     1       2.386   7.474  18.477  0.00  0.00    +0.000 C 
BRANCH  10  11
ATOM     11  C   UNL     1       2.153   8.830  17.820  0.00  0.00    +0.000 C 
BRANCH  11  13
ATOM     12  N   UNL     1       0.099  10.096  17.807  0.00  0.00    +0.000 N 
ATOM     13  C   UNL     1       1.125   9.615  18.595  0.00  0.00    +0.000 C 
ATOM     14  O   UNL     1       1.181   9.796  19.803  0.00  0.00    +0.000 OA
ATOM     15  H   UNL     1       0.168   9.999  16.800  0.00  0.00    +0.000 HD
BRANCH  12  16
ATOM     16  C   UNL     1      -0.996  10.856  18.367  0.00  0.00    +0.000 C 
BRANCH  16  17
ATOM     17  C   UNL     1      -2.358  10.421  17.831  0.00  0.00    +0.000 C 
BRANCH  17  19
ATOM     18  C   UNL     1      -2.982  10.721  15.408  0.00  0.00    +0.000 C 
ATOM     19  C   UNL     1      -2.273   9.837  16.420  0.00  0.00    +0.000 C 
ENDBRANCH  17  19
ENDBRANCH  16  17
ENDBRANCH  12  16
ENDBRANCH  11  13
ENDBRANCH  10  11
ENDBRANCH   1  10
BRANCH   9  20
ATOM     20  C   UNL     1       2.283   4.492  17.717  0.00  0.00    +0.000 C 
BRANCH  20  21
ATOM     21  C   UNL     1       2.314   3.931  19.118  0.00  0.00    +0.000 A 
ATOM     22  C   UNL     1       1.186   3.992  19.948  0.00  0.00    +0.000 A 
ATOM     23  C   UNL     1       1.154   3.294  21.157  0.00  0.00    +0.000 A 
ATOM     24  C   UNL     1       2.268   2.572  21.578  0.00  0.00    +0.000 A 
ATOM     25  C   UNL     1       3.418   2.551  20.793  0.00  0.00    +0.000 A 
ATOM     26  C   UNL     1       3.436   3.211  19.562  0.00  0.00    +0.000 A 
ENDBRANCH  20  21
ENDBRANCH   9  20
TORSDOF 8
ENDMDL
MODEL 7
REMARK VINA RESULT:      -7.6      2.555      4.757
REMARK  Name = 
REMARK  9 active torsions:
REMARK  status: ('A' for Active; 'I' for Inactive)
REMARK    1  A    between atoms: C_1  and  C_2
REMARK    2  A    between atoms: C_2  and  C_3
REMARK    3  A    between atoms: C_3  and  C_4
REMARK    4  A    between atoms: C_4  and  N_5
REMARK    5  A    between atoms: C_6  and  C_8
REMARK    6  A    between atoms: C_8  and  C_9
REMARK    7  A    between atoms: C_9  and  C_10
REMARK    8  A    between atoms: N_18  and  C_19
REMARK    9  A    between atoms: C_19  and  C_20
REMARK                            x       y       z     vdW  Elec       q    Type
REMARK                         _______ _______ _______ _____ _____    ______ ____
ROOT
ATOM      1  C   UNL     1       3.215   7.552  17.625  0.00  0.00    +0.000 A 
ATOM      2  N   UNL     1       2.486   8.610  17.320  0.00  0.00    +0.000 NA
ATOM      3  C   UNL     1       1.778   8.907  18.454  0.00  0.00    +0.000 A 
ATOM      4  C   UNL     1       0.859   9.928  18.723  0.00  0.00    +0.000 A 
ATOM      5  C   UNL     1       0.320   9.979  20.009  0.00  0.00    +0.000 A 
ATOM      6  C   UNL     1       0.702   9.020  20.943  0.00  0.00    +0.000 A 
ATOM      7  N   UNL     1       1.563   7.995  20.724  0.00  0.00    +0.000 NA
ATOM      8  C   UNL     1       2.066   8.006  19.471  0.00  0.00    +0.000 A 
ATOM      9  N   UNL     1       2.966   7.132  18.919  0.00  0.00    +0.000 N 
ENDROOT
BRANCH   1  10
ATOM     10  C   UNL     1       4.172   6.864  16.706  0.00  0.00    +0.000 C 
BRANCH  10  11
ATOM     11  C   UNL     1       5.576   6.800  17.299  0.00  0.00    +0.000 C 
BRANCH  11  13
ATOM     12  N   UNL     1       6.179   5.796  15.190  0.00  0.00    +0.000 N 
ATOM     13  C   UNL     1       6.412   5.793  16.550  0.00  0.00    +0.000 C 
ATOM     14  O   UNL     1       7.228   5.058  17.088  0.00  0.00    +0.000 OA
ATOM     15  H   UNL     1       5.417   6.356  14.824  0.00  0.00    +0.000 HD
BRANCH  12  16
ATOM     16  C   UNL     1       6.898   4.917  14.295  0.00  0.00    +0.000 C 
BRANCH  16  17
ATOM     17  C   UNL     1       6.009   3.842  13.674  0.00  0.00    +0.000 C 
BRANCH  17  19
ATOM     18  C   UNL     1       5.682   2.291  11.715  0.00  0.00    +0.000 C 
ATOM     19  C   UNL     1       6.381   3.542  12.221  0.00  0.00    +0.000 C 
ENDBRANCH  17  19
ENDBRANCH  16  17
ENDBRANCH  12  16
ENDBRANCH  11  13
ENDBRANCH  10  11
ENDBRANCH   1  10
BRANCH   9  20
ATOM     20  C   UNL     1       3.426   5.900  19.534  0.00  0.00    +0.000 C 
BRANCH  20  21
ATOM     21  C   UNL     1       2.421   4.775  19.500  0.00  0.00    +0.000 A 
ATOM     22  C   UNL     1       2.098   4.128  18.299  0.00  0.00    +0.000 A 
ATOM     23  C   UNL     1       1.330   2.961  18.303  0.00  0.00    +0.000 A 
ATOM     24  C   UNL     1       0.830   2.458  19.501  0.00  0.00    +0.000 A 
ATOM     25  C   UNL     1       1.091   3.122  20.696  0.00  0.00    +0.000 A 
ATOM     26  C   UNL     1       1.897   4.264  20.699  0.00  0.00    +0.000 A 
ENDBRANCH  20  21
ENDBRANCH   9  20
TORSDOF 8
ENDMDL
MODEL 8
REMARK VINA RESULT:      -7.6      2.487      3.800
REMARK  Name = 
REMARK  9 active torsions:
REMARK  status: ('A' for Active; 'I' for Inactive)
REMARK    1  A    between atoms: C_1  and  C_2
REMARK    2  A    between atoms: C_2  and  C_3
REMARK    3  A    between atoms: C_3  and  C_4
REMARK    4  A    between atoms: C_4  and  N_5
REMARK    5  A    between atoms: C_6  and  C_8
REMARK    6  A    between atoms: C_8  and  C_9
REMARK    7  A    between atoms: C_9  and  C_10
REMARK    8  A    between atoms: N_18  and  C_19
REMARK    9  A    between atoms: C_19  and  C_20
REMARK                            x       y       z     vdW  Elec       q    Type
REMARK                         _______ _______ _______ _____ _____    ______ ____
ROOT
ATOM      1  C   UNL     1       3.713   5.656  17.634  0.00  0.00    +0.000 A 
ATOM      2  N   UNL     1       3.573   4.432  17.158  0.00  0.00    +0.000 NA
ATOM      3  C   UNL     1       2.673   3.817  17.988  0.00  0.00    +0.000 A 
ATOM      4  C   UNL     1       2.136   2.525  17.964  0.00  0.00    +0.000 A 
ATOM      5  C   UNL     1       1.203   2.204  18.951  0.00  0.00    +0.000 A 
ATOM      6  C   UNL     1       0.869   3.161  19.905  0.00  0.00    +0.000 A 
ATOM      7  N   UNL     1       1.383   4.413  19.990  0.00  0.00    +0.000 NA
ATOM      8  C   UNL     1       2.264   4.674  19.001  0.00  0.00    +0.000 A 
ATOM      9  N   UNL     1       2.956   5.836  18.776  0.00  0.00    +0.000 N 
ENDROOT
BRANCH   1  10
ATOM     10  C   UNL     1       4.588   6.718  17.050  0.00  0.00    +0.000 C 
BRANCH  10  11
ATOM     11  C   UNL     1       6.032   6.580  17.521  0.00  0.00    +0.000 C 
BRANCH  11  13
ATOM     12  N   UNL     1       6.472   5.704  15.317  0.00  0.00    +0.000 N 
ATOM     13  C   UNL     1       6.768   5.585  16.659  0.00  0.00    +0.000 C 
ATOM     14  O   UNL     1       7.562   4.765  17.099  0.00  0.00    +0.000 OA
ATOM     15  H   UNL     1       5.729   6.333  15.032  0.00  0.00    +0.000 HD
BRANCH  12  16
ATOM     16  C   UNL     1       7.092   4.854  14.324  0.00  0.00    +0.000 C 
BRANCH  16  17
ATOM     17  C   UNL     1       6.179   3.725  13.852  0.00  0.00    +0.000 C 
BRANCH  17  19
ATOM     18  C   UNL     1       7.217   4.477  11.683  0.00  0.00    +0.000 C 
ATOM     19  C   UNL     1       6.276   3.484  12.345  0.00  0.00    +0.000 C 
ENDBRANCH  17  19
ENDBRANCH  16  17
ENDBRANCH  12  16
ENDBRANCH  11  13
ENDBRANCH  10  11
ENDBRANCH   1  10
BRANCH   9  20
ATOM     20  C   UNL     1       3.006   6.971  19.680  0.00  0.00    +0.000 C 
BRANCH  20  21
ATOM     21  C   UNL     1       1.921   7.996  19.453  0.00  0.00    +0.000 A 
ATOM     22  C   UNL     1       1.123   8.452  20.512  0.00  0.00    +0.000 A 
ATOM     23  C   UNL     1       0.267   9.542  20.339  0.00  0.00    +0.000 A 
ATOM     24  C   UNL     1       0.156  10.154  19.093  0.00  0.00    +0.000 A 
ATOM     25  C   UNL     1       0.897   9.674  18.016  0.00  0.00    +0.000 A 
ATOM     26  C   UNL     1       1.788   8.613  18.199  0.00  0.00    +0.000 A 
ENDBRANCH  20  21
ENDBRANCH   9  20
TORSDOF 8
ENDMDL
MODEL 9
REMARK VINA RESULT:      -7.5      3.825      6.726
REMARK  Name = 
REMARK  9 active torsions:
REMARK  status: ('A' for Active; 'I' for Inactive)
REMARK    1  A    between atoms: C_1  and  C_2
REMARK    2  A    between atoms: C_2  and  C_3
REMARK    3  A    between atoms: C_3  and  C_4
REMARK    4  A    between atoms: C_4  and  N_5
REMARK    5  A    between atoms: C_6  and  C_8
REMARK    6  A    between atoms: C_8  and  C_9
REMARK    7  A    between atoms: C_9  and  C_10
REMARK    8  A    between atoms: N_18  and  C_19
REMARK    9  A    between atoms: C_19  and  C_20
REMARK                            x       y       z     vdW  Elec       q    Type
REMARK                         _______ _______ _______ _____ _____    ______ ____
ROOT
ATOM      1  C   UNL     1       2.903   6.190  18.404  0.00  0.00    +0.000 A 
ATOM      2  N   UNL     1       1.903   5.665  19.088  0.00  0.00    +0.000 NA
ATOM      3  C   UNL     1       2.047   4.309  18.966  0.00  0.00    +0.000 A 
ATOM      4  C   UNL     1       1.290   3.255  19.489  0.00  0.00    +0.000 A 
ATOM      5  C   UNL     1       1.718   1.958  19.201  0.00  0.00    +0.000 A 
ATOM      6  C   UNL     1       2.847   1.778  18.406  0.00  0.00    +0.000 A 
ATOM      7  N   UNL     1       3.595   2.763  17.851  0.00  0.00    +0.000 NA
ATOM      8  C   UNL     1       3.146   3.994  18.179  0.00  0.00    +0.000 A 
ATOM      9  N   UNL     1       3.668   5.205  17.806  0.00  0.00    +0.000 N 
ENDROOT
BRANCH   1  10
ATOM     10  C   UNL     1       3.180   7.651  18.255  0.00  0.00    +0.000 C 
BRANCH  10  11
ATOM     11  C   UNL     1       2.010   8.383  17.605  0.00  0.00    +0.000 C 
BRANCH  11  13
ATOM     12  N   UNL     1       0.679  10.344  18.054  0.00  0.00    +0.000 N 
ATOM     13  C   UNL     1       1.315   9.257  18.618  0.00  0.00    +0.000 C 
ATOM     14  O   UNL     1       1.299   9.021  19.818  0.00  0.00    +0.000 OA
ATOM     15  H   UNL     1       0.819  10.537  17.068  0.00  0.00    +0.000 HD
BRANCH  12  16
ATOM     16  C   UNL     1      -0.062  11.291  18.857  0.00  0.00    +0.000 C 
BRANCH  16  17
ATOM     17  C   UNL     1      -1.572  11.068  18.799  0.00  0.00    +0.000 C 
BRANCH  17  19
ATOM     18  C   UNL     1      -3.290   9.696  17.567  0.00  0.00    +0.000 C 
ATOM     19  C   UNL     1      -2.034  10.544  17.439  0.00  0.00    +0.000 C 
ENDBRANCH  17  19
ENDBRANCH  16  17
ENDBRANCH  12  16
ENDBRANCH  11  13
ENDBRANCH  10  11
ENDBRANCH   1  10
BRANCH   9  20
ATOM     20  C   UNL     1       4.720   5.401  16.824  0.00  0.00    +0.000 C 
BRANCH  20  21
ATOM     21  C   UNL     1       6.022   5.903  17.399  0.00  0.00    +0.000 A 
ATOM     22  C   UNL     1       6.593   7.105  16.955  0.00  0.00    +0.000 A 
ATOM     23  C   UNL     1       7.680   7.667  17.628  0.00  0.00    +0.000 A 
ATOM     24  C   UNL     1       8.244   7.008  18.718  0.00  0.00    +0.000 A 
ATOM     25  C   UNL     1       7.726   5.784  19.134  0.00  0.00    +0.000 A 
ATOM     26  C   UNL     1       6.610   5.243  18.490  0.00  0.00    +0.000 A 
ENDBRANCH  20  21
ENDBRANCH   9  20
TORSDOF 8
ENDMDL
