MODEL 1
REMARK VINA RESULT:      -7.7      0.000      0.000
REMARK  Name = 
REMARK  8 active torsions:
REMARK  status: ('A' for Active; 'I' for Inactive)
REMARK    1  A    between atoms: C_1  and  S_2
REMARK    2  A    between atoms: S_2  and  C_3
REMARK    3  A    between atoms: C_6  and  C_7
REMARK    4  A    between atoms: C_7  and  C_9
REMARK    5  A    between atoms: C_10  and  C_11
REMARK    6  A    between atoms: N_12  and  C_13
REMARK    7  A    between atoms: C_13  and  C_14
REMARK    8  A    between atoms: C_14  and  N_15
REMARK                            x       y       z     vdW  Elec       q    Type
REMARK                         _______ _______ _______ _____ _____    ______ ____
ROOT
ATOM      1  C   UNL     1       1.245   9.771  19.266  0.00  0.00    +0.000 A 
ATOM      2  C   UNL     1       0.369  10.748  18.743  0.00  0.00    +0.000 A 
ATOM      3  C   UNL     1      -1.033  10.348  18.242  0.00  0.00    +0.000 C 
ATOM      4  N   UNL     1       0.506  11.738  19.710  0.00  0.00    +0.000 N 
ATOM      5  C   UNL     1       0.093  11.034  20.838  0.00  0.00    +0.000 A 
ATOM      6  C   UNL     1      -0.603  11.479  21.970  0.00  0.00    +0.000 A 
ATOM      7  C   UNL     1      -0.798  10.540  22.971  0.00  0.00    +0.000 A 
ATOM      8  C   UNL     1      -0.283   9.235  22.839  0.00  0.00    +0.000 A 
ATOM      9  C   UNL     1       0.456   8.844  21.692  0.00  0.00    +0.000 A 
ATOM     10  C   UNL     1       0.668   9.758  20.636  0.00  0.00    +0.000 A 
ENDROOT
BRANCH   1  11
ATOM     11  C   UNL     1       1.812   8.750  18.363  0.00  0.00    +0.000 C 
ATOM     12  O   UNL     1       1.994   9.018  17.173  0.00  0.00    +0.000 OA
BRANCH  11  16
ATOM     13  C   UNL     1       3.493   4.836  19.419  0.00  0.00    +0.000 A 
ATOM     14  C   UNL     1       3.990   5.608  18.367  0.00  0.00    +0.000 A 
ATOM     15  C   UNL     1       3.472   6.887  18.094  0.00  0.00    +0.000 A 
ATOM     16  C   UNL     1       2.438   7.455  18.866  0.00  0.00    +0.000 A 
ATOM     17  C   UNL     1       1.988   6.715  19.968  0.00  0.00    +0.000 A 
ATOM     18  C   UNL     1       2.506   5.414  20.234  0.00  0.00    +0.000 A 
BRANCH  13  20
ATOM     19  C   UNL     1       3.360   2.335  17.992  0.00  0.00    +0.000 C 
ATOM     20  S   UNL     1       4.052   3.131  19.465  0.00  0.00    +0.000 S 
ENDBRANCH  13  20
ENDBRANCH  11  16
ENDBRANCH   1  11
BRANCH   4  21
ATOM     21  C   UNL     1       1.657  12.603  19.975  0.00  0.00    +0.000 C 
BRANCH  21  22
ATOM     22  C   UNL     1       1.710  14.015  19.411  0.00  0.00    +0.000 C 
BRANCH  22  23
ATOM     23  N   UNL     1       3.077  14.554  19.625  0.00  0.00    +0.000 NA
ATOM     24  C   UNL     1       3.120  15.919  20.206  0.00  0.00    +0.000 C 
ATOM     25  C   UNL     1       2.714  17.016  19.214  0.00  0.00    +0.000 C 
ATOM     26  O   UNL     1       3.564  16.990  18.063  0.00  0.00    +0.000 OA
ATOM     27  C   UNL     1       3.521  15.708  17.422  0.00  0.00    +0.000 C 
ATOM     28  C   UNL     1       3.880  14.565  18.387  0.00  0.00    +0.000 C 
ENDBRANCH  22  23
ENDBRANCH  21  22
ENDBRANCH   4  21
TORSDOF 6
ENDMDL
MODEL 2
REMARK VINA RESULT:      -7.7      0.700      1.099
REMARK  Name = 
REMARK  8 active torsions:
REMARK  status: ('A' for Active; 'I' for Inactive)
REMARK    1  A    between atoms: C_1  and  S_2
REMARK    2  A    between atoms: S_2  and  C_3
REMARK    3  A    between atoms: C_6  and  C_7
REMARK    4  A    between atoms: C_7  and  C_9
REMARK    5  A    between atoms: C_10  and  C_11
REMARK    6  A    between atoms: N_12  and  C_13
REMARK    7  A    between atoms: C_13  and  C_14
REMARK    8  A    between atoms: C_14  and  N_15
REMARK                            x       y       z     vdW  Elec       q    Type
REMARK                         _______ _______ _______ _____ _____    ______ ____
ROOT
ATOM      1  C   UNL     1       1.231   9.826  19.290  0.00  0.00    +0.000 A 
ATOM      2  C   UNL     1       0.349  10.807  18.784  0.00  0.00    +0.000 A 
ATOM      3  C   UNL     1      -1.054  10.410  18.286  0.00  0.00    +0.000 C 
ATOM      4  N   UNL     1       0.489  11.786  19.762  0.00  0.00    +0.000 N 
ATOM      5  C   UNL     1       0.085  11.067  20.884  0.00  0.00    +0.000 A 
ATOM      6  C   UNL     1      -0.606  11.496  22.025  0.00  0.00    +0.000 A 
ATOM      7  C   UNL     1      -0.792  10.544  23.015  0.00  0.00    +0.000 A 
ATOM      8  C   UNL     1      -0.274   9.242  22.864  0.00  0.00    +0.000 A 
ATOM      9  C   UNL     1       0.459   8.867  21.709  0.00  0.00    +0.000 A 
ATOM     10  C   UNL     1       0.663   9.795  20.662  0.00  0.00    +0.000 A 
ENDROOT
BRANCH   1  11
ATOM     11  C   UNL     1       1.795   8.818  18.370  0.00  0.00    +0.000 C 
ATOM     12  O   UNL     1       1.967   9.101  17.183  0.00  0.00    +0.000 OA
BRANCH  11  16
ATOM     13  C   UNL     1       3.502   4.900  19.369  0.00  0.00    +0.000 A 
ATOM     14  C   UNL     1       3.989   5.688  18.323  0.00  0.00    +0.000 A 
ATOM     15  C   UNL     1       3.463   6.967  18.068  0.00  0.00    +0.000 A 
ATOM     16  C   UNL     1       2.431   7.520  18.854  0.00  0.00    +0.000 A 
ATOM     17  C   UNL     1       1.992   6.765  19.950  0.00  0.00    +0.000 A 
ATOM     18  C   UNL     1       2.517   5.464  20.196  0.00  0.00    +0.000 A 
BRANCH  13  20
ATOM     19  C   UNL     1       2.607   2.175  19.085  0.00  0.00    +0.000 C 
ATOM     20  S   UNL     1       4.071   3.197  19.390  0.00  0.00    +0.000 S 
ENDBRANCH  13  20
ENDBRANCH  11  16
ENDBRANCH   1  11
BRANCH   4  21
ATOM     21  C   UNL     1       1.640  12.650  20.031  0.00  0.00    +0.000 C 
BRANCH  21  22
ATOM     22  C   UNL     1       1.463  14.156  20.162  0.00  0.00    +0.000 C 
BRANCH  22  23
ATOM     23  N   UNL     1       1.509  14.754  18.804  0.00  0.00    +0.000 NA
ATOM     24  C   UNL     1       2.857  14.774  18.183  0.00  0.00    +0.000 C 
ATOM     25  C   UNL     1       3.797  15.816  18.802  0.00  0.00    +0.000 C 
ATOM     26  O   UNL     1       3.232  17.126  18.695  0.00  0.00    +0.000 OA
ATOM     27  C   UNL     1       1.948  17.185  19.330  0.00  0.00    +0.000 C 
ATOM     28  C   UNL     1       0.977  16.129  18.774  0.00  0.00    +0.000 C 
ENDBRANCH  22  23
ENDBRANCH  21  22
ENDBRANCH   4  21
TORSDOF 6
ENDMDL
MODEL 3
REMARK VINA RESULT:      -7.6      4.766      9.004
REMARK  Name = 
REMARK  8 active torsions:
REMARK  status: ('A' for Active; 'I' for Inactive)
REMARK    1  A    between atoms: C_1  and  S_2
REMARK    2  A    between atoms: S_2  and  C_3
REMARK    3  A    between atoms: C_6  and  C_7
REMARK    4  A    between atoms: C_7  and  C_9
REMARK    5  A    between atoms: C_10  and  C_11
REMARK    6  A    between atoms: N_12  and  C_13
REMARK    7  A    between atoms: C_13  and  C_14
REMARK    8  A    between atoms: C_14  and  N_15
REMARK                            x       y       z     vdW  Elec       q    Type
REMARK                         _______ _______ _______ _____ _____    ______ ____
ROOT
ATOM      1  C   UNL     1       3.747   5.404  17.589  0.00  0.00    +0.000 A 
ATOM      2  C   UNL     1       4.903   4.827  18.159  0.00  0.00    +0.000 A 
ATOM      3  C   UNL     1       5.173   4.958  19.671  0.00  0.00    +0.000 C 
ATOM      4  N   UNL     1       4.864   3.569  17.566  0.00  0.00    +0.000 N 
ATOM      5  C   UNL     1       3.626   3.125  18.021  0.00  0.00    +0.000 A 
ATOM      6  C   UNL     1       3.204   1.833  18.362  0.00  0.00    +0.000 A 
ATOM      7  C   UNL     1       1.868   1.702  18.709  0.00  0.00    +0.000 A 
ATOM      8  C   UNL     1       1.007   2.816  18.677  0.00  0.00    +0.000 A 
ATOM      9  C   UNL     1       1.470   4.098  18.282  0.00  0.00    +0.000 A 
ATOM     10  C   UNL     1       2.826   4.289  17.934  0.00  0.00    +0.000 A 
ENDROOT
BRANCH   1  11
ATOM     11  C   UNL     1       3.628   6.874  17.526  0.00  0.00    +0.000 C 
ATOM     12  O   UNL     1       4.224   7.499  16.647  0.00  0.00    +0.000 OA
BRANCH  11  16
ATOM     13  C   UNL     1       0.919   9.485  19.785  0.00  0.00    +0.000 A 
ATOM     14  C   UNL     1       1.189   9.676  18.428  0.00  0.00    +0.000 A 
ATOM     15  C   UNL     1       2.012   8.785  17.716  0.00  0.00    +0.000 A 
ATOM     16  C   UNL     1       2.595   7.656  18.328  0.00  0.00    +0.000 A 
ATOM     17  C   UNL     1       2.265   7.419  19.670  0.00  0.00    +0.000 A 
ATOM     18  C   UNL     1       1.443   8.332  20.391  0.00  0.00    +0.000 A 
BRANCH  13  20
ATOM     19  C   UNL     1      -1.272  11.342  19.533  0.00  0.00    +0.000 C 
ATOM     20  S   UNL     1       0.095  10.848  20.614  0.00  0.00    +0.000 S 
ENDBRANCH  13  20
ENDBRANCH  11  16
ENDBRANCH   1  11
BRANCH   4  21
ATOM     21  C   UNL     1       5.113   3.211  16.169  0.00  0.00    +0.000 C 
BRANCH  21  22
ATOM     22  C   UNL     1       6.339   3.743  15.441  0.00  0.00    +0.000 C 
BRANCH  22  23
ATOM     23  N   UNL     1       5.886   4.684  14.386  0.00  0.00    +0.000 NA
ATOM     24  C   UNL     1       5.270   4.036  13.201  0.00  0.00    +0.000 C 
ATOM     25  C   UNL     1       6.287   3.327  12.298  0.00  0.00    +0.000 C 
ATOM     26  O   UNL     1       7.279   4.250  11.841  0.00  0.00    +0.000 OA
ATOM     27  C   UNL     1       7.952   4.870  12.945  0.00  0.00    +0.000 C 
ATOM     28  C   UNL     1       6.971   5.561  13.907  0.00  0.00    +0.000 C 
ENDBRANCH  22  23
ENDBRANCH  21  22
ENDBRANCH   4  21
TORSDOF 6
ENDMDL
MODEL 4
REMARK VINA RESULT:      -7.6      0.837      1.247
REMARK  Name = 
REMARK  8 active torsions:
REMARK  status: ('A' for Active; 'I' for Inactive)
REMARK    1  A    between atoms: C_1  and  S_2
REMARK    2  A    between atoms: S_2  and  C_3
REMARK    3  A    between atoms: C_6  and  C_7
REMARK    4  A    between atoms: C_7  and  C_9
REMARK    5  A    between atoms: C_10  and  C_11
REMARK    6  A    between atoms: N_12  and  C_13
REMARK    7  A    between atoms: C_13  and  C_14
REMARK    8  A    between atoms: C_14  and  N_15
REMARK                            x       y       z     vdW  Elec       q    Type
REMARK                         _______ _______ _______ _____ _____    ______ ____
ROOT
ATOM      1  C   UNL     1       1.243   9.758  19.259  0.00  0.00    +0.000 A 
ATOM      2  C   UNL     1       0.356  10.702  18.694  0.00  0.00    +0.000 A 
ATOM      3  C   UNL     1      -1.034  10.262  18.194  0.00  0.00    +0.000 C 
ATOM      4  N   UNL     1       0.467  11.727  19.627  0.00  0.00    +0.000 N 
ATOM      5  C   UNL     1       0.055  11.056  20.775  0.00  0.00    +0.000 A 
ATOM      6  C   UNL     1      -0.660  11.528  21.884  0.00  0.00    +0.000 A 
ATOM      7  C   UNL     1      -0.849  10.620  22.915  0.00  0.00    +0.000 A 
ATOM      8  C   UNL     1      -0.312   9.321  22.833  0.00  0.00    +0.000 A 
ATOM      9  C   UNL     1       0.444   8.902  21.708  0.00  0.00    +0.000 A 
ATOM     10  C   UNL     1       0.653   9.783  20.622  0.00  0.00    +0.000 A 
ENDROOT
BRANCH   1  11
ATOM     11  C   UNL     1       1.835   8.716  18.396  0.00  0.00    +0.000 C 
ATOM     12  O   UNL     1       2.202   9.003  17.255  0.00  0.00    +0.000 OA
BRANCH  11  16
ATOM     13  C   UNL     1       2.843   4.611  19.576  0.00  0.00    +0.000 A 
ATOM     14  C   UNL     1       3.255   5.167  18.363  0.00  0.00    +0.000 A 
ATOM     15  C   UNL     1       2.972   6.507  18.041  0.00  0.00    +0.000 A 
ATOM     16  C   UNL     1       2.268   7.353  18.923  0.00  0.00    +0.000 A 
ATOM     17  C   UNL     1       1.918   6.821  20.172  0.00  0.00    +0.000 A 
ATOM     18  C   UNL     1       2.196   5.460  20.488  0.00  0.00    +0.000 A 
BRANCH  13  20
ATOM     19  C   UNL     1       3.549   2.247  18.085  0.00  0.00    +0.000 C 
ATOM     20  S   UNL     1       3.029   2.831  19.718  0.00  0.00    +0.000 S 
ENDBRANCH  13  20
ENDBRANCH  11  16
ENDBRANCH   1  11
BRANCH   4  21
ATOM     21  C   UNL     1       1.602  12.619  19.872  0.00  0.00    +0.000 C 
BRANCH  21  22
ATOM     22  C   UNL     1       2.467  13.106  18.719  0.00  0.00    +0.000 C 
BRANCH  22  23
ATOM     23  N   UNL     1       2.558  14.586  18.793  0.00  0.00    +0.000 NA
ATOM     24  C   UNL     1       3.383  15.209  17.729  0.00  0.00    +0.000 C 
ATOM     25  C   UNL     1       4.889  14.989  17.917  0.00  0.00    +0.000 C 
ATOM     26  O   UNL     1       5.316  15.508  19.180  0.00  0.00    +0.000 OA
ATOM     27  C   UNL     1       4.592  14.900  20.258  0.00  0.00    +0.000 C 
ATOM     28  C   UNL     1       3.070  15.056  20.094  0.00  0.00    +0.000 C 
ENDBRANCH  22  23
ENDBRANCH  21  22
ENDBRANCH   4  21
TORSDOF 6
ENDMDL
MODEL 5
REMARK VINA RESULT:      -7.5      1.046      1.156
REMARK  Name = 
REMARK  8 active torsions:
REMARK  status: ('A' for Active; 'I' for Inactive)
REMARK    1  A    between atoms: C_1  and  S_2
REMARK    2  A    between atoms: S_2  and  C_3
REMARK    3  A    between atoms: C_6  and  C_7
REMARK    4  A    between atoms: C_7  and  C_9
REMARK    5  A    between atoms: C_10  and  C_11
REMARK    6  A    between atoms: N_12  and  C_13
REMARK    7  A    between atoms: C_13  and  C_14
REMARK    8  A    between atoms: C_14  and  N_15
REMARK                            x       y       z     vdW  Elec       q    Type
REMARK                         _______ _______ _______ _____ _____    ______ ____
ROOT
ATOM      1  C   UNL     1       1.354   9.607  19.092  0.00  0.00    +0.000 A 
ATOM      2  C   UNL     1       0.453  10.545  18.539  0.00  0.00    +0.000 A 
ATOM      3  C   UNL     1      -0.933  10.093  18.040  0.00  0.00    +0.000 C 
ATOM      4  N   UNL     1       0.555  11.563  19.481  0.00  0.00    +0.000 N 
ATOM      5  C   UNL     1       0.156  10.876  20.624  0.00  0.00    +0.000 A 
ATOM      6  C   UNL     1      -0.561  11.329  21.740  0.00  0.00    +0.000 A 
ATOM      7  C   UNL     1      -0.735  10.410  22.763  0.00  0.00    +0.000 A 
ATOM      8  C   UNL     1      -0.182   9.118  22.667  0.00  0.00    +0.000 A 
ATOM      9  C   UNL     1       0.575   8.719  21.536  0.00  0.00    +0.000 A 
ATOM     10  C   UNL     1       0.769   9.612  20.457  0.00  0.00    +0.000 A 
ENDROOT
BRANCH   1  11
ATOM     11  C   UNL     1       1.956   8.581  18.217  0.00  0.00    +0.000 C 
ATOM     12  O   UNL     1       2.488   8.916  17.157  0.00  0.00    +0.000 OA
BRANCH  11  16
ATOM     13  C   UNL     1       2.211   4.374  19.442  0.00  0.00    +0.000 A 
ATOM     14  C   UNL     1       1.904   4.759  18.135  0.00  0.00    +0.000 A 
ATOM     15  C   UNL     1       1.893   6.114  17.758  0.00  0.00    +0.000 A 
ATOM     16  C   UNL     1       2.196   7.146  18.670  0.00  0.00    +0.000 A 
ATOM     17  C   UNL     1       2.578   6.759  19.962  0.00  0.00    +0.000 A 
ATOM     18  C   UNL     1       2.575   5.387  20.344  0.00  0.00    +0.000 A 
BRANCH  13  20
ATOM     19  C   UNL     1       1.484   2.602  21.596  0.00  0.00    +0.000 C 
ATOM     20  S   UNL     1       1.909   2.649  19.836  0.00  0.00    +0.000 S 
ENDBRANCH  13  20
ENDBRANCH  11  16
ENDBRANCH   1  11
BRANCH   4  21
ATOM     21  C   UNL     1       1.679  12.467  19.730  0.00  0.00    +0.000 C 
BRANCH  21  22
ATOM     22  C   UNL     1       2.205  13.372  18.625  0.00  0.00    +0.000 C 
BRANCH  22  23
ATOM     23  N   UNL     1       3.122  14.369  19.232  0.00  0.00    +0.000 NA
ATOM     24  C   UNL     1       2.446  15.548  19.829  0.00  0.00    +0.000 C 
ATOM     25  C   UNL     1       1.886  16.522  18.786  0.00  0.00    +0.000 C 
ATOM     26  O   UNL     1       2.930  16.989  17.926  0.00  0.00    +0.000 OA
ATOM     27  C   UNL     1       3.587  15.894  17.274  0.00  0.00    +0.000 C 
ATOM     28  C   UNL     1       4.131  14.863  18.277  0.00  0.00    +0.000 C 
ENDBRANCH  22  23
ENDBRANCH  21  22
ENDBRANCH   4  21
TORSDOF 6
ENDMDL
MODEL 6
REMARK VINA RESULT:      -7.5      3.608      5.760
REMARK  Name = 
REMARK  8 active torsions:
REMARK  status: ('A' for Active; 'I' for Inactive)
REMARK    1  A    between atoms: C_1  and  S_2
REMARK    2  A    between atoms: S_2  and  C_3
REMARK    3  A    between atoms: C_6  and  C_7
REMARK    4  A    between atoms: C_7  and  C_9
REMARK    5  A    between atoms: C_10  and  C_11
REMARK    6  A    between atoms: N_12  and  C_13
REMARK    7  A    between atoms: C_13  and  C_14
REMARK    8  A    between atoms: C_14  and  N_15
REMARK                            x       y       z     vdW  Elec       q    Type
REMARK                         _______ _______ _______ _____ _____    ______ ____
ROOT
ATOM      1  C   UNL     1      -0.906  11.143  19.595  0.00  0.00    +0.000 A 
ATOM      2  C   UNL     1      -1.144  12.531  19.492  0.00  0.00    +0.000 A 
ATOM      3  C   UNL     1      -0.411  13.371  18.428  0.00  0.00    +0.000 C 
ATOM      4  N   UNL     1      -2.534  12.543  19.551  0.00  0.00    +0.000 N 
ATOM      5  C   UNL     1      -2.829  11.750  18.445  0.00  0.00    +0.000 A 
ATOM      6  C   UNL     1      -3.902  11.825  17.546  0.00  0.00    +0.000 A 
ATOM      7  C   UNL     1      -3.959  10.829  16.584  0.00  0.00    +0.000 A 
ATOM      8  C   UNL     1      -2.997   9.800  16.561  0.00  0.00    +0.000 A 
ATOM      9  C   UNL     1      -1.954   9.741  17.520  0.00  0.00    +0.000 A 
ATOM     10  C   UNL     1      -1.841  10.740  18.513  0.00  0.00    +0.000 A 
ENDROOT
BRANCH   1  11
ATOM     11  C   UNL     1       0.411  10.668  20.066  0.00  0.00    +0.000 C 
ATOM     12  O   UNL     1       0.892  11.129  21.104  0.00  0.00    +0.000 OA
BRANCH  11  16
ATOM     13  C   UNL     1       2.726   7.195  18.712  0.00  0.00    +0.000 A 
ATOM     14  C   UNL     1       2.126   7.253  19.972  0.00  0.00    +0.000 A 
ATOM     15  C   UNL     1       1.336   8.353  20.353  0.00  0.00    +0.000 A 
ATOM     16  C   UNL     1       1.105   9.442  19.487  0.00  0.00    +0.000 A 
ATOM     17  C   UNL     1       1.643   9.352  18.196  0.00  0.00    +0.000 A 
ATOM     18  C   UNL     1       2.454   8.243  17.818  0.00  0.00    +0.000 A 
BRANCH  13  20
ATOM     19  C   UNL     1       3.303   4.462  19.428  0.00  0.00    +0.000 C 
ATOM     20  S   UNL     1       3.923   5.876  18.482  0.00  0.00    +0.000 S 
ENDBRANCH  13  20
ENDBRANCH  11  16
ENDBRANCH   1  11
BRANCH   4  21
ATOM     21  C   UNL     1      -3.402  12.260  20.695  0.00  0.00    +0.000 C 
BRANCH  21  22
ATOM     22  C   UNL     1      -2.967  12.629  22.106  0.00  0.00    +0.000 C 
BRANCH  22  23
ATOM     23  N   UNL     1      -4.126  12.448  23.016  0.00  0.00    +0.000 NA
ATOM     24  C   UNL     1      -5.392  13.052  22.532  0.00  0.00    +0.000 C 
ATOM     25  C   UNL     1      -5.409  14.583  22.621  0.00  0.00    +0.000 C 
ATOM     26  O   UNL     1      -5.194  15.009  23.970  0.00  0.00    +0.000 OA
ATOM     27  C   UNL     1      -3.952  14.501  24.477  0.00  0.00    +0.000 C 
ATOM     28  C   UNL     1      -3.866  12.969  24.372  0.00  0.00    +0.000 C 
ENDBRANCH  22  23
ENDBRANCH  21  22
ENDBRANCH   4  21
TORSDOF 6
ENDMDL
MODEL 7
REMARK VINA RESULT:      -7.5      4.073      6.239
REMARK  Name = 
REMARK  8 active torsions:
REMARK  status: ('A' for Active; 'I' for Inactive)
REMARK    1  A    between atoms: C_1  and  S_2
REMARK    2  A    between atoms: S_2  and  C_3
REMARK    3  A    between atoms: C_6  and  C_7
REMARK    4  A    between atoms: C_7  and  C_9
REMARK    5  A    between atoms: C_10  and  C_11
REMARK    6  A    between atoms: N_12  and  C_13
REMARK    7  A    between atoms: C_13  and  C_14
REMARK    8  A    between atoms: C_14  and  N_15
REMARK                            x       y       z     vdW  Elec       q    Type
REMARK                         _______ _______ _______ _____ _____    ______ ____
ROOT
ATOM      1  C   UNL     1      -0.848  11.120  19.361  0.00  0.00    +0.000 A 
ATOM      2  C   UNL     1      -1.160  12.497  19.318  0.00  0.00    +0.000 A 
ATOM      3  C   UNL     1      -0.476  13.418  18.289  0.00  0.00    +0.000 C 
ATOM      4  N   UNL     1      -2.548  12.434  19.379  0.00  0.00    +0.000 N 
ATOM      5  C   UNL     1      -2.806  11.674  18.241  0.00  0.00    +0.000 A 
ATOM      6  C   UNL     1      -3.885  11.730  17.349  0.00  0.00    +0.000 A 
ATOM      7  C   UNL     1      -3.893  10.774  16.345  0.00  0.00    +0.000 A 
ATOM      8  C   UNL     1      -2.879   9.798  16.277  0.00  0.00    +0.000 A 
ATOM      9  C   UNL     1      -1.830   9.754  17.231  0.00  0.00    +0.000 A 
ATOM     10  C   UNL     1      -1.766  10.715  18.265  0.00  0.00    +0.000 A 
ENDROOT
BRANCH   1  11
ATOM     11  C   UNL     1       0.493  10.696  19.810  0.00  0.00    +0.000 C 
ATOM     12  O   UNL     1       1.024  11.259  20.769  0.00  0.00    +0.000 OA
BRANCH  11  16
ATOM     13  C   UNL     1       2.741   7.089  18.715  0.00  0.00    +0.000 A 
ATOM     14  C   UNL     1       2.146   7.253  19.969  0.00  0.00    +0.000 A 
ATOM     15  C   UNL     1       1.378   8.392  20.268  0.00  0.00    +0.000 A 
ATOM     16  C   UNL     1       1.163   9.417  19.322  0.00  0.00    +0.000 A 
ATOM     17  C   UNL     1       1.694   9.221  18.040  0.00  0.00    +0.000 A 
ATOM     18  C   UNL     1       2.483   8.072  17.746  0.00  0.00    +0.000 A 
BRANCH  13  20
ATOM     19  C   UNL     1       3.041   4.256  19.158  0.00  0.00    +0.000 C 
ATOM     20  S   UNL     1       3.913   5.736  18.582  0.00  0.00    +0.000 S 
ENDBRANCH  13  20
ENDBRANCH  11  16
ENDBRANCH   1  11
BRANCH   4  21
ATOM     21  C   UNL     1      -3.395  12.058  20.512  0.00  0.00    +0.000 C 
BRANCH  21  22
ATOM     22  C   UNL     1      -4.237  13.103  21.229  0.00  0.00    +0.000 C 
BRANCH  22  23
ATOM     23  N   UNL     1      -5.453  12.440  21.763  0.00  0.00    +0.000 NA
ATOM     24  C   UNL     1      -6.365  11.894  20.728  0.00  0.00    +0.000 C 
ATOM     25  C   UNL     1      -7.144  12.977  19.970  0.00  0.00    +0.000 C 
ATOM     26  O   UNL     1      -7.917  13.766  20.879  0.00  0.00    +0.000 OA
ATOM     27  C   UNL     1      -7.080  14.369  21.875  0.00  0.00    +0.000 C 
ATOM     28  C   UNL     1      -6.243  13.328  22.638  0.00  0.00    +0.000 C 
ENDBRANCH  22  23
ENDBRANCH  21  22
ENDBRANCH   4  21
TORSDOF 6
ENDMDL
MODEL 8
REMARK VINA RESULT:      -7.5      4.577      8.467
REMARK  Name = 
REMARK  8 active torsions:
REMARK  status: ('A' for Active; 'I' for Inactive)
REMARK    1  A    between atoms: C_1  and  S_2
REMARK    2  A    between atoms: S_2  and  C_3
REMARK    3  A    between atoms: C_6  and  C_7
REMARK    4  A    between atoms: C_7  and  C_9
REMARK    5  A    between atoms: C_10  and  C_11
REMARK    6  A    between atoms: N_12  and  C_13
REMARK    7  A    between atoms: C_13  and  C_14
REMARK    8  A    between atoms: C_14  and  N_15
REMARK                            x       y       z     vdW  Elec       q    Type
REMARK                         _______ _______ _______ _____ _____    ______ ____
ROOT
ATOM      1  C   UNL     1       3.072   5.849  18.332  0.00  0.00    +0.000 A 
ATOM      2  C   UNL     1       4.357   5.270  18.426  0.00  0.00    +0.000 A 
ATOM      3  C   UNL     1       5.192   5.432  19.711  0.00  0.00    +0.000 C 
ATOM      4  N   UNL     1       4.087   4.000  17.928  0.00  0.00    +0.000 N 
ATOM      5  C   UNL     1       3.119   3.583  18.838  0.00  0.00    +0.000 A 
ATOM      6  C   UNL     1       2.857   2.305  19.350  0.00  0.00    +0.000 A 
ATOM      7  C   UNL     1       1.760   2.201  20.191  0.00  0.00    +0.000 A 
ATOM      8  C   UNL     1       0.958   3.326  20.465  0.00  0.00    +0.000 A 
ATOM      9  C   UNL     1       1.236   4.592  19.887  0.00  0.00    +0.000 A 
ATOM     10  C   UNL     1       2.353   4.756  19.037  0.00  0.00    +0.000 A 
ENDROOT
BRANCH   1  11
ATOM     11  C   UNL     1       2.944   7.320  18.281  0.00  0.00    +0.000 C 
ATOM     12  O   UNL     1       3.493   7.951  17.377  0.00  0.00    +0.000 OA
BRANCH  11  16
ATOM     13  C   UNL     1       0.321   9.915  20.657  0.00  0.00    +0.000 A 
ATOM     14  C   UNL     1       0.476  10.065  19.277  0.00  0.00    +0.000 A 
ATOM     15  C   UNL     1       1.274   9.177  18.533  0.00  0.00    +0.000 A 
ATOM     16  C   UNL     1       1.947   8.094  19.136  0.00  0.00    +0.000 A 
ATOM     17  C   UNL     1       1.733   7.896  20.507  0.00  0.00    +0.000 A 
ATOM     18  C   UNL     1       0.935   8.805  21.259  0.00  0.00    +0.000 A 
BRANCH  13  20
ATOM     19  C   UNL     1      -1.017  10.633  23.108  0.00  0.00    +0.000 C 
ATOM     20  S   UNL     1      -0.488  11.278  21.501  0.00  0.00    +0.000 S 
ENDBRANCH  13  20
ENDBRANCH  11  16
ENDBRANCH   1  11
BRANCH   4  21
ATOM     21  C   UNL     1       3.774   3.606  16.553  0.00  0.00    +0.000 C 
BRANCH  21  22
ATOM     22  C   UNL     1       4.514   4.234  15.381  0.00  0.00    +0.000 C 
BRANCH  22  23
ATOM     23  N   UNL     1       5.859   3.612  15.290  0.00  0.00    +0.000 NA
ATOM     24  C   UNL     1       6.856   4.151  16.249  0.00  0.00    +0.000 C 
ATOM     25  C   UNL     1       7.351   5.556  15.887  0.00  0.00    +0.000 C 
ATOM     26  O   UNL     1       7.934   5.561  14.581  0.00  0.00    +0.000 OA
ATOM     27  C   UNL     1       6.997   5.102  13.598  0.00  0.00    +0.000 C 
ATOM     28  C   UNL     1       6.436   3.710  13.936  0.00  0.00    +0.000 C 
ENDBRANCH  22  23
ENDBRANCH  21  22
ENDBRANCH   4  21
TORSDOF 6
ENDMDL
MODEL 9
REMARK VINA RESULT:      -7.5      3.176      5.172
REMARK  Name = 
REMARK  8 active torsions:
REMARK  status: ('A' for Active; 'I' for Inactive)
REMARK    1  A    between atoms: C_1  and  S_2
REMARK    2  A    between atoms: S_2  and  C_3
REMARK    3  A    between atoms: C_6  and  C_7
REMARK    4  A    between atoms: C_7  and  C_9
REMARK    5  A    between atoms: C_10  and  C_11
REMARK    6  A    between atoms: N_12  and  C_13
REMARK    7  A    between atoms: C_13  and  C_14
REMARK    8  A    between atoms: C_14  and  N_15
REMARK                            x       y       z     vdW  Elec       q    Type
REMARK                         _______ _______ _______ _____ _____    ______ ____
ROOT
ATOM      1  C   UNL     1      -0.827  11.186  19.663  0.00  0.00    +0.000 A 
ATOM      2  C   UNL     1      -1.051  12.574  19.526  0.00  0.00    +0.000 A 
ATOM      3  C   UNL     1      -0.350  13.369  18.406  0.00  0.00    +0.000 C 
ATOM      4  N   UNL     1      -2.436  12.609  19.640  0.00  0.00    +0.000 N 
ATOM      5  C   UNL     1      -2.788  11.786  18.573  0.00  0.00    +0.000 A 
ATOM      6  C   UNL     1      -3.896  11.849  17.717  0.00  0.00    +0.000 A 
ATOM      7  C   UNL     1      -4.005  10.824  16.790  0.00  0.00    +0.000 A 
ATOM      8  C   UNL     1      -3.060   9.780  16.762  0.00  0.00    +0.000 A 
ATOM      9  C   UNL     1      -1.979   9.735  17.679  0.00  0.00    +0.000 A 
ATOM     10  C   UNL     1      -1.812  10.764  18.633  0.00  0.00    +0.000 A 
ENDROOT
BRANCH   1  11
ATOM     11  C   UNL     1       0.501  10.707  20.096  0.00  0.00    +0.000 C 
ATOM     12  O   UNL     1       1.034  11.200  21.092  0.00  0.00    +0.000 OA
BRANCH  11  16
ATOM     13  C   UNL     1       2.686   7.129  18.799  0.00  0.00    +0.000 A 
ATOM     14  C   UNL     1       2.095   7.233  20.060  0.00  0.00    +0.000 A 
ATOM     15  C   UNL     1       1.346   8.367  20.423  0.00  0.00    +0.000 A 
ATOM     16  C   UNL     1       1.148   9.446  19.537  0.00  0.00    +0.000 A 
ATOM     17  C   UNL     1       1.676   9.313  18.245  0.00  0.00    +0.000 A 
ATOM     18  C   UNL     1       2.445   8.168  17.886  0.00  0.00    +0.000 A 
BRANCH  13  20
ATOM     19  C   UNL     1       3.298   4.473  19.738  0.00  0.00    +0.000 C 
ATOM     20  S   UNL     1       3.834   5.765  18.588  0.00  0.00    +0.000 S 
ENDBRANCH  13  20
ENDBRANCH  11  16
ENDBRANCH   1  11
BRANCH   4  21
ATOM     21  C   UNL     1      -3.260  12.376  20.827  0.00  0.00    +0.000 C 
BRANCH  21  22
ATOM     22  C   UNL     1      -3.404  13.452  21.893  0.00  0.00    +0.000 C 
BRANCH  22  23
ATOM     23  N   UNL     1      -2.871  12.920  23.172  0.00  0.00    +0.000 NA
ATOM     24  C   UNL     1      -3.577  13.402  24.385  0.00  0.00    +0.000 C 
ATOM     25  C   UNL     1      -3.268  14.865  24.729  0.00  0.00    +0.000 C 
ATOM     26  O   UNL     1      -1.863  15.047  24.923  0.00  0.00    +0.000 OA
ATOM     27  C   UNL     1      -1.127  14.650  23.759  0.00  0.00    +0.000 C 
ATOM     28  C   UNL     1      -1.433  13.200  23.345  0.00  0.00    +0.000 C 
ENDBRANCH  22  23
ENDBRANCH  21  22
ENDBRANCH   4  21
TORSDOF 6
ENDMDL
