MODEL 1
REMARK VINA RESULT:      -6.3      0.000      0.000
REMARK  Name = 
REMARK  9 active torsions:
REMARK  status: ('A' for Active; 'I' for Inactive)
REMARK    1  A    between atoms: C_1  and  C_2
REMARK    2  A    between atoms: C_2  and  C_3
REMARK    3  A    between atoms: C_2  and  N_4
REMARK    4  A    between atoms: N_4  and  C_5
REMARK    5  A    between atoms: C_5  and  C_6
REMARK    6  A    between atoms: C_6  and  O_7
REMARK    7  A    between atoms: C_6  and  C_8
REMARK    8  A    between atoms: C_11  and  O_12
REMARK    9  A    between atoms: C_13  and  O_14
REMARK                            x       y       z     vdW  Elec       q    Type
REMARK                         _______ _______ _______ _____ _____    ______ ____
ROOT
ATOM      1  C   UNL     1       5.233   4.328  18.393  0.00  0.00    +0.000 A 
ATOM      2  C   UNL     1       6.217   4.986  19.150  0.00  0.00    +0.000 A 
ATOM      3  C   UNL     1       7.060   5.935  18.565  0.00  0.00    +0.000 A 
ATOM      4  C   UNL     1       6.916   6.232  17.216  0.00  0.00    +0.000 A 
ATOM      5  C   UNL     1       5.907   5.634  16.471  0.00  0.00    +0.000 A 
ATOM      6  C   UNL     1       5.055   4.702  17.047  0.00  0.00    +0.000 A 
ENDROOT
BRANCH   4   7
ATOM      7  O   UNL     1       7.753   7.101  16.575  0.00  0.00    +0.000 OA
ATOM      8  H   UNL     1       7.321   7.972  16.551  0.00  0.00    +0.000 HD
ENDBRANCH   4   7
BRANCH   5   9
ATOM      9  O   UNL     1       5.758   5.938  15.149  0.00  0.00    +0.000 OA
ATOM     10  H   UNL     1       6.656   6.187  14.851  0.00  0.00    +0.000 HD
ENDBRANCH   5   9
BRANCH   1  11
ATOM     11  C   UNL     1       4.382   3.256  19.049  0.00  0.00    +0.000 C 
BRANCH  11  12
ATOM     12  O   UNL     1       5.195   2.292  19.724  0.00  0.00    +0.000 OA
ATOM     13  H   UNL     1       5.991   2.143  19.188  0.00  0.00    +0.000 HD
ENDBRANCH  11  12
BRANCH  11  14
ATOM     14  C   UNL     1       3.525   2.550  17.995  0.00  0.00    +0.000 C 
BRANCH  14  15
ATOM     15  N   UNL     1       2.289   1.934  18.471  0.00  0.00    +0.000 NA
ATOM     16  H   UNL     1       2.506   1.448  19.348  0.00  0.00    +0.000 HD
BRANCH  15  18
ATOM     17  C   UNL     1       0.919   3.276  20.135  0.00  0.00    +0.000 C 
ATOM     18  C   UNL     1       1.146   2.817  18.692  0.00  0.00    +0.000 C 
ATOM     19  C   UNL     1       1.403   3.995  17.743  0.00  0.00    +0.000 C 
ENDBRANCH  15  18
ENDBRANCH  14  15
ENDBRANCH  11  14
ENDBRANCH   1  11
TORSDOF 7
ENDMDL
MODEL 2
REMARK VINA RESULT:      -6.3      1.949      2.764
REMARK  Name = 
REMARK  9 active torsions:
REMARK  status: ('A' for Active; 'I' for Inactive)
REMARK    1  A    between atoms: C_1  and  C_2
REMARK    2  A    between atoms: C_2  and  C_3
REMARK    3  A    between atoms: C_2  and  N_4
REMARK    4  A    between atoms: N_4  and  C_5
REMARK    5  A    between atoms: C_5  and  C_6
REMARK    6  A    between atoms: C_6  and  O_7
REMARK    7  A    between atoms: C_6  and  C_8
REMARK    8  A    between atoms: C_11  and  O_12
REMARK    9  A    between atoms: C_13  and  O_14
REMARK                            x       y       z     vdW  Elec       q    Type
REMARK                         _______ _______ _______ _____ _____    ______ ____
ROOT
ATOM      1  C   UNL     1       3.935   3.611  17.467  0.00  0.00    +0.000 A 
ATOM      2  C   UNL     1       4.633   3.752  16.256  0.00  0.00    +0.000 A 
ATOM      3  C   UNL     1       5.896   4.351  16.220  0.00  0.00    +0.000 A 
ATOM      4  C   UNL     1       6.467   4.805  17.401  0.00  0.00    +0.000 A 
ATOM      5  C   UNL     1       5.814   4.616  18.613  0.00  0.00    +0.000 A 
ATOM      6  C   UNL     1       4.567   4.009  18.661  0.00  0.00    +0.000 A 
ENDROOT
BRANCH   4   7
ATOM      7  O   UNL     1       7.668   5.457  17.418  0.00  0.00    +0.000 OA
ATOM      8  H   UNL     1       7.915   5.606  18.347  0.00  0.00    +0.000 HD
ENDBRANCH   4   7
BRANCH   5   9
ATOM      9  O   UNL     1       6.383   5.050  19.774  0.00  0.00    +0.000 OA
ATOM     10  H   UNL     1       5.733   4.821  20.469  0.00  0.00    +0.000 HD
ENDBRANCH   5   9
BRANCH   1  11
ATOM     11  C   UNL     1       2.538   3.017  17.456  0.00  0.00    +0.000 C 
BRANCH  11  12
ATOM     12  O   UNL     1       1.549   4.027  17.239  0.00  0.00    +0.000 OA
ATOM     13  H   UNL     1       1.869   4.614  16.536  0.00  0.00    +0.000 HD
ENDBRANCH  11  12
BRANCH  11  14
ATOM     14  C   UNL     1       2.260   2.310  18.786  0.00  0.00    +0.000 C 
BRANCH  14  15
ATOM     15  N   UNL     1       1.056   2.729  19.502  0.00  0.00    +0.000 NA
ATOM     16  H   UNL     1       0.434   1.916  19.557  0.00  0.00    +0.000 HD
BRANCH  15  18
ATOM     17  C   UNL     1       2.416   2.719  21.646  0.00  0.00    +0.000 C 
ATOM     18  C   UNL     1       1.237   3.277  20.844  0.00  0.00    +0.000 C 
ATOM     19  C   UNL     1       1.360   4.789  20.610  0.00  0.00    +0.000 C 
ENDBRANCH  15  18
ENDBRANCH  14  15
ENDBRANCH  11  14
ENDBRANCH   1  11
TORSDOF 7
ENDMDL
MODEL 3
REMARK VINA RESULT:      -6.2      1.322      1.526
REMARK  Name = 
REMARK  9 active torsions:
REMARK  status: ('A' for Active; 'I' for Inactive)
REMARK    1  A    between atoms: C_1  and  C_2
REMARK    2  A    between atoms: C_2  and  C_3
REMARK    3  A    between atoms: C_2  and  N_4
REMARK    4  A    between atoms: N_4  and  C_5
REMARK    5  A    between atoms: C_5  and  C_6
REMARK    6  A    between atoms: C_6  and  O_7
REMARK    7  A    between atoms: C_6  and  C_8
REMARK    8  A    between atoms: C_11  and  O_12
REMARK    9  A    between atoms: C_13  and  O_14
REMARK                            x       y       z     vdW  Elec       q    Type
REMARK                         _______ _______ _______ _____ _____    ______ ____
ROOT
ATOM      1  C   UNL     1       5.269   4.110  17.950  0.00  0.00    +0.000 A 
ATOM      2  C   UNL     1       6.477   4.775  18.222  0.00  0.00    +0.000 A 
ATOM      3  C   UNL     1       7.298   5.227  17.185  0.00  0.00    +0.000 A 
ATOM      4  C   UNL     1       6.907   5.018  15.869  0.00  0.00    +0.000 A 
ATOM      5  C   UNL     1       5.686   4.417  15.587  0.00  0.00    +0.000 A 
ATOM      6  C   UNL     1       4.857   3.979  16.610  0.00  0.00    +0.000 A 
ENDROOT
BRANCH   4   7
ATOM      7  O   UNL     1       7.700   5.377  14.815  0.00  0.00    +0.000 OA
ATOM      8  H   UNL     1       7.876   4.580  14.286  0.00  0.00    +0.000 HD
ENDBRANCH   4   7
BRANCH   5   9
ATOM      9  O   UNL     1       5.298   4.225  14.293  0.00  0.00    +0.000 OA
ATOM     10  H   UNL     1       5.022   3.287  14.255  0.00  0.00    +0.000 HD
ENDBRANCH   5   9
BRANCH   1  11
ATOM     11  C   UNL     1       4.438   3.576  19.103  0.00  0.00    +0.000 C 
BRANCH  11  12
ATOM     12  O   UNL     1       5.049   2.424  19.690  0.00  0.00    +0.000 OA
ATOM     13  H   UNL     1       5.022   2.528  20.655  0.00  0.00    +0.000 HD
ENDBRANCH  11  12
BRANCH  11  14
ATOM     14  C   UNL     1       3.035   3.212  18.611  0.00  0.00    +0.000 C 
BRANCH  14  15
ATOM     15  N   UNL     1       2.334   2.173  19.363  0.00  0.00    +0.000 NA
ATOM     16  H   UNL     1       3.044   1.546  19.754  0.00  0.00    +0.000 HD
BRANCH  15  18
ATOM     17  C   UNL     1       2.074   2.694  21.834  0.00  0.00    +0.000 C 
ATOM     18  C   UNL     1       1.448   2.611  20.439  0.00  0.00    +0.000 C 
ATOM     19  C   UNL     1       0.928   3.972  19.956  0.00  0.00    +0.000 C 
ENDBRANCH  15  18
ENDBRANCH  14  15
ENDBRANCH  11  14
ENDBRANCH   1  11
TORSDOF 7
ENDMDL
MODEL 4
REMARK VINA RESULT:      -6.2      2.618      5.539
REMARK  Name = 
REMARK  9 active torsions:
REMARK  status: ('A' for Active; 'I' for Inactive)
REMARK    1  A    between atoms: C_1  and  C_2
REMARK    2  A    between atoms: C_2  and  C_3
REMARK    3  A    between atoms: C_2  and  N_4
REMARK    4  A    between atoms: N_4  and  C_5
REMARK    5  A    between atoms: C_5  and  C_6
REMARK    6  A    between atoms: C_6  and  O_7
REMARK    7  A    between atoms: C_6  and  C_8
REMARK    8  A    between atoms: C_11  and  O_12
REMARK    9  A    between atoms: C_13  and  O_14
REMARK                            x       y       z     vdW  Elec       q    Type
REMARK                         _______ _______ _______ _____ _____    ______ ____
ROOT
ATOM      1  C   UNL     1       4.015   4.266  17.044  0.00  0.00    +0.000 A 
ATOM      2  C   UNL     1       3.496   5.388  17.712  0.00  0.00    +0.000 A 
ATOM      3  C   UNL     1       2.447   5.259  18.627  0.00  0.00    +0.000 A 
ATOM      4  C   UNL     1       1.917   4.000  18.880  0.00  0.00    +0.000 A 
ATOM      5  C   UNL     1       2.462   2.875  18.273  0.00  0.00    +0.000 A 
ATOM      6  C   UNL     1       3.514   2.992  17.375  0.00  0.00    +0.000 A 
ENDROOT
BRANCH   4   7
ATOM      7  O   UNL     1       0.849   3.821  19.713  0.00  0.00    +0.000 OA
ATOM      8  H   UNL     1       0.867   2.902  20.031  0.00  0.00    +0.000 HD
ENDBRANCH   4   7
BRANCH   5   9
ATOM      9  O   UNL     1       1.950   1.638  18.534  0.00  0.00    +0.000 OA
ATOM     10  H   UNL     1       2.730   1.089  18.753  0.00  0.00    +0.000 HD
ENDBRANCH   5   9
BRANCH   1  11
ATOM     11  C   UNL     1       5.109   4.456  16.009  0.00  0.00    +0.000 C 
BRANCH  11  12
ATOM     12  O   UNL     1       6.256   3.660  16.319  0.00  0.00    +0.000 OA
ATOM     13  H   UNL     1       6.427   3.737  17.271  0.00  0.00    +0.000 HD
ENDBRANCH  11  12
BRANCH  11  14
ATOM     14  C   UNL     1       5.516   5.930  15.942  0.00  0.00    +0.000 C 
BRANCH  14  15
ATOM     15  N   UNL     1       6.870   6.249  16.392  0.00  0.00    +0.000 NA
ATOM     16  H   UNL     1       7.256   6.935  15.737  0.00  0.00    +0.000 HD
BRANCH  15  18
ATOM     17  C   UNL     1       7.689   5.820  18.756  0.00  0.00    +0.000 C 
ATOM     18  C   UNL     1       7.016   6.761  17.753  0.00  0.00    +0.000 C 
ATOM     19  C   UNL     1       7.799   8.068  17.572  0.00  0.00    +0.000 C 
ENDBRANCH  15  18
ENDBRANCH  14  15
ENDBRANCH  11  14
ENDBRANCH   1  11
TORSDOF 7
ENDMDL
MODEL 5
REMARK VINA RESULT:      -6.2      1.474      1.924
REMARK  Name = 
REMARK  9 active torsions:
REMARK  status: ('A' for Active; 'I' for Inactive)
REMARK    1  A    between atoms: C_1  and  C_2
REMARK    2  A    between atoms: C_2  and  C_3
REMARK    3  A    between atoms: C_2  and  N_4
REMARK    4  A    between atoms: N_4  and  C_5
REMARK    5  A    between atoms: C_5  and  C_6
REMARK    6  A    between atoms: C_6  and  O_7
REMARK    7  A    between atoms: C_6  and  C_8
REMARK    8  A    between atoms: C_11  and  O_12
REMARK    9  A    between atoms: C_13  and  O_14
REMARK                            x       y       z     vdW  Elec       q    Type
REMARK                         _______ _______ _______ _____ _____    ______ ____
ROOT
ATOM      1  C   UNL     1       5.445   4.442  17.798  0.00  0.00    +0.000 A 
ATOM      2  C   UNL     1       6.290   5.561  17.882  0.00  0.00    +0.000 A 
ATOM      3  C   UNL     1       7.086   5.944  16.798  0.00  0.00    +0.000 A 
ATOM      4  C   UNL     1       7.033   5.208  15.622  0.00  0.00    +0.000 A 
ATOM      5  C   UNL     1       6.156   4.136  15.506  0.00  0.00    +0.000 A 
ATOM      6  C   UNL     1       5.351   3.758  16.570  0.00  0.00    +0.000 A 
ENDROOT
BRANCH   4   7
ATOM      7  O   UNL     1       7.836   5.494  14.554  0.00  0.00    +0.000 OA
ATOM      8  H   UNL     1       7.770   6.449  14.376  0.00  0.00    +0.000 HD
ENDBRANCH   4   7
BRANCH   5   9
ATOM      9  O   UNL     1       6.095   3.422  14.344  0.00  0.00    +0.000 OA
ATOM     10  H   UNL     1       7.024   3.365  14.042  0.00  0.00    +0.000 HD
ENDBRANCH   5   9
BRANCH   1  11
ATOM     11  C   UNL     1       4.646   4.019  19.018  0.00  0.00    +0.000 C 
BRANCH  11  12
ATOM     12  O   UNL     1       5.151   2.799  19.567  0.00  0.00    +0.000 OA
ATOM     13  H   UNL     1       5.976   2.580  19.106  0.00  0.00    +0.000 HD
ENDBRANCH  11  12
BRANCH  11  14
ATOM     14  C   UNL     1       3.174   3.837  18.641  0.00  0.00    +0.000 C 
BRANCH  14  15
ATOM     15  N   UNL     1       2.193   4.336  19.602  0.00  0.00    +0.000 NA
ATOM     16  H   UNL     1       1.841   5.231  19.245  0.00  0.00    +0.000 HD
BRANCH  15  18
ATOM     17  C   UNL     1       0.720   2.409  18.855  0.00  0.00    +0.000 C 
ATOM     18  C   UNL     1       1.056   3.470  19.906  0.00  0.00    +0.000 C 
ATOM     19  C   UNL     1       1.419   2.848  21.261  0.00  0.00    +0.000 C 
ENDBRANCH  15  18
ENDBRANCH  14  15
ENDBRANCH  11  14
ENDBRANCH   1  11
TORSDOF 7
ENDMDL
MODEL 6
REMARK VINA RESULT:      -6.2      2.148      2.974
REMARK  Name = 
REMARK  9 active torsions:
REMARK  status: ('A' for Active; 'I' for Inactive)
REMARK    1  A    between atoms: C_1  and  C_2
REMARK    2  A    between atoms: C_2  and  C_3
REMARK    3  A    between atoms: C_2  and  N_4
REMARK    4  A    between atoms: N_4  and  C_5
REMARK    5  A    between atoms: C_5  and  C_6
REMARK    6  A    between atoms: C_6  and  O_7
REMARK    7  A    between atoms: C_6  and  C_8
REMARK    8  A    between atoms: C_11  and  O_12
REMARK    9  A    between atoms: C_13  and  O_14
REMARK                            x       y       z     vdW  Elec       q    Type
REMARK                         _______ _______ _______ _____ _____    ______ ____
ROOT
ATOM      1  C   UNL     1       4.027   5.200  18.026  0.00  0.00    +0.000 A 
ATOM      2  C   UNL     1       4.471   4.638  16.817  0.00  0.00    +0.000 A 
ATOM      3  C   UNL     1       5.822   4.339  16.617  0.00  0.00    +0.000 A 
ATOM      4  C   UNL     1       6.733   4.598  17.632  0.00  0.00    +0.000 A 
ATOM      5  C   UNL     1       6.297   5.096  18.855  0.00  0.00    +0.000 A 
ATOM      6  C   UNL     1       4.956   5.382  19.068  0.00  0.00    +0.000 A 
ENDROOT
BRANCH   4   7
ATOM      7  O   UNL     1       8.073   4.388  17.470  0.00  0.00    +0.000 OA
ATOM      8  H   UNL     1       8.295   3.532  17.875  0.00  0.00    +0.000 HD
ENDBRANCH   4   7
BRANCH   5   9
ATOM      9  O   UNL     1       7.192   5.336  19.856  0.00  0.00    +0.000 OA
ATOM     10  H   UNL     1       6.639   5.534  20.639  0.00  0.00    +0.000 HD
ENDBRANCH   5   9
BRANCH   1  11
ATOM     11  C   UNL     1       2.563   5.572  18.180  0.00  0.00    +0.000 C 
BRANCH  11  12
ATOM     12  O   UNL     1       2.322   6.210  19.437  0.00  0.00    +0.000 OA
ATOM     13  H   UNL     1       1.646   5.698  19.909  0.00  0.00    +0.000 HD
ENDBRANCH  11  12
BRANCH  11  14
ATOM     14  C   UNL     1       1.691   4.319  18.071  0.00  0.00    +0.000 C 
BRANCH  14  15
ATOM     15  N   UNL     1       1.140   3.802  19.322  0.00  0.00    +0.000 NA
ATOM     16  H   UNL     1       0.127   3.711  19.197  0.00  0.00    +0.000 HD
BRANCH  15  18
ATOM     17  C   UNL     1       2.748   1.875  18.940  0.00  0.00    +0.000 C 
ATOM     18  C   UNL     1       1.672   2.531  19.809  0.00  0.00    +0.000 C 
ATOM     19  C   UNL     1       2.187   2.863  21.216  0.00  0.00    +0.000 C 
ENDBRANCH  15  18
ENDBRANCH  14  15
ENDBRANCH  11  14
ENDBRANCH   1  11
TORSDOF 7
ENDMDL
MODEL 7
REMARK VINA RESULT:      -6.2      2.592      5.719
REMARK  Name = 
REMARK  9 active torsions:
REMARK  status: ('A' for Active; 'I' for Inactive)
REMARK    1  A    between atoms: C_1  and  C_2
REMARK    2  A    between atoms: C_2  and  C_3
REMARK    3  A    between atoms: C_2  and  N_4
REMARK    4  A    between atoms: N_4  and  C_5
REMARK    5  A    between atoms: C_5  and  C_6
REMARK    6  A    between atoms: C_6  and  O_7
REMARK    7  A    between atoms: C_6  and  C_8
REMARK    8  A    between atoms: C_11  and  O_12
REMARK    9  A    between atoms: C_13  and  O_14
REMARK                            x       y       z     vdW  Elec       q    Type
REMARK                         _______ _______ _______ _____ _____    ______ ____
ROOT
ATOM      1  C   UNL     1       3.715   5.214  18.075  0.00  0.00    +0.000 A 
ATOM      2  C   UNL     1       2.379   4.896  17.781  0.00  0.00    +0.000 A 
ATOM      3  C   UNL     1       1.871   3.618  18.032  0.00  0.00    +0.000 A 
ATOM      4  C   UNL     1       2.703   2.654  18.585  0.00  0.00    +0.000 A 
ATOM      5  C   UNL     1       4.009   2.973  18.937  0.00  0.00    +0.000 A 
ATOM      6  C   UNL     1       4.517   4.243  18.706  0.00  0.00    +0.000 A 
ENDROOT
BRANCH   4   7
ATOM      7  O   UNL     1       2.282   1.370  18.790  0.00  0.00    +0.000 OA
ATOM      8  H   UNL     1       1.328   1.332  18.603  0.00  0.00    +0.000 HD
ENDBRANCH   4   7
BRANCH   5   9
ATOM      9  O   UNL     1       4.820   2.027  19.493  0.00  0.00    +0.000 OA
ATOM     10  H   UNL     1       5.711   2.228  19.141  0.00  0.00    +0.000 HD
ENDBRANCH   5   9
BRANCH   1  11
ATOM     11  C   UNL     1       4.247   6.593  17.727  0.00  0.00    +0.000 C 
BRANCH  11  12
ATOM     12  O   UNL     1       3.181   7.537  17.589  0.00  0.00    +0.000 OA
ATOM     13  H   UNL     1       2.395   7.168  18.023  0.00  0.00    +0.000 HD
ENDBRANCH  11  12
BRANCH  11  14
ATOM     14  C   UNL     1       5.044   6.532  16.421  0.00  0.00    +0.000 C 
BRANCH  14  15
ATOM     15  N   UNL     1       6.493   6.688  16.539  0.00  0.00    +0.000 NA
ATOM     16  H   UNL     1       6.776   7.424  15.885  0.00  0.00    +0.000 HD
BRANCH  15  18
ATOM     17  C   UNL     1       7.788   5.876  18.566  0.00  0.00    +0.000 C 
ATOM     18  C   UNL     1       7.024   7.002  17.863  0.00  0.00    +0.000 C 
ATOM     19  C   UNL     1       7.904   8.236  17.623  0.00  0.00    +0.000 C 
ENDBRANCH  15  18
ENDBRANCH  14  15
ENDBRANCH  11  14
ENDBRANCH   1  11
TORSDOF 7
ENDMDL
MODEL 8
REMARK VINA RESULT:      -6.2      1.369      2.355
REMARK  Name = 
REMARK  9 active torsions:
REMARK  status: ('A' for Active; 'I' for Inactive)
REMARK    1  A    between atoms: C_1  and  C_2
REMARK    2  A    between atoms: C_2  and  C_3
REMARK    3  A    between atoms: C_2  and  N_4
REMARK    4  A    between atoms: N_4  and  C_5
REMARK    5  A    between atoms: C_5  and  C_6
REMARK    6  A    between atoms: C_6  and  O_7
REMARK    7  A    between atoms: C_6  and  C_8
REMARK    8  A    between atoms: C_11  and  O_12
REMARK    9  A    between atoms: C_13  and  O_14
REMARK                            x       y       z     vdW  Elec       q    Type
REMARK                         _______ _______ _______ _____ _____    ______ ____
ROOT
ATOM      1  C   UNL     1       5.431   4.433  17.883  0.00  0.00    +0.000 A 
ATOM      2  C   UNL     1       5.184   3.673  16.728  0.00  0.00    +0.000 A 
ATOM      3  C   UNL     1       5.774   4.009  15.506  0.00  0.00    +0.000 A 
ATOM      4  C   UNL     1       6.621   5.108  15.440  0.00  0.00    +0.000 A 
ATOM      5  C   UNL     1       6.922   5.831  16.588  0.00  0.00    +0.000 A 
ATOM      6  C   UNL     1       6.352   5.495  17.808  0.00  0.00    +0.000 A 
ENDROOT
BRANCH   4   7
ATOM      7  O   UNL     1       7.174   5.524  14.262  0.00  0.00    +0.000 OA
ATOM      8  H   UNL     1       7.271   4.746  13.684  0.00  0.00    +0.000 HD
ENDBRANCH   4   7
BRANCH   5   9
ATOM      9  O   UNL     1       7.765   6.901  16.524  0.00  0.00    +0.000 OA
ATOM     10  H   UNL     1       8.141   6.974  17.425  0.00  0.00    +0.000 HD
ENDBRANCH   5   9
BRANCH   1  11
ATOM     11  C   UNL     1       4.719   4.075  19.175  0.00  0.00    +0.000 C 
BRANCH  11  12
ATOM     12  O   UNL     1       4.937   2.705  19.523  0.00  0.00    +0.000 OA
ATOM     13  H   UNL     1       4.713   2.160  18.751  0.00  0.00    +0.000 HD
ENDBRANCH  11  12
BRANCH  11  14
ATOM     14  C   UNL     1       3.216   4.330  19.032  0.00  0.00    +0.000 C 
BRANCH  14  15
ATOM     15  N   UNL     1       2.444   4.368  20.273  0.00  0.00    +0.000 NA
ATOM     16  H   UNL     1       2.157   5.340  20.425  0.00  0.00    +0.000 HD
BRANCH  15  18
ATOM     17  C   UNL     1       0.967   2.661  19.112  0.00  0.00    +0.000 C 
ATOM     18  C   UNL     1       1.265   3.509  20.352  0.00  0.00    +0.000 C 
ATOM     19  C   UNL     1       1.522   2.646  21.595  0.00  0.00    +0.000 C 
ENDBRANCH  15  18
ENDBRANCH  14  15
ENDBRANCH  11  14
ENDBRANCH   1  11
TORSDOF 7
ENDMDL
MODEL 9
REMARK VINA RESULT:      -6.1      2.894      5.327
REMARK  Name = 
REMARK  9 active torsions:
REMARK  status: ('A' for Active; 'I' for Inactive)
REMARK    1  A    between atoms: C_1  and  C_2
REMARK    2  A    between atoms: C_2  and  C_3
REMARK    3  A    between atoms: C_2  and  N_4
REMARK    4  A    between atoms: N_4  and  C_5
REMARK    5  A    between atoms: C_5  and  C_6
REMARK    6  A    between atoms: C_6  and  O_7
REMARK    7  A    between atoms: C_6  and  C_8
REMARK    8  A    between atoms: C_11  and  O_12
REMARK    9  A    between atoms: C_13  and  O_14
REMARK                            x       y       z     vdW  Elec       q    Type
REMARK                         _______ _______ _______ _____ _____    ______ ____
ROOT
ATOM      1  C   UNL     1       3.636   4.776  18.363  0.00  0.00    +0.000 A 
ATOM      2  C   UNL     1       2.853   4.027  17.469  0.00  0.00    +0.000 A 
ATOM      3  C   UNL     1       2.882   2.630  17.484  0.00  0.00    +0.000 A 
ATOM      4  C   UNL     1       3.693   1.977  18.402  0.00  0.00    +0.000 A 
ATOM      5  C   UNL     1       4.425   2.705  19.333  0.00  0.00    +0.000 A 
ATOM      6  C   UNL     1       4.391   4.092  19.336  0.00  0.00    +0.000 A 
ENDROOT
BRANCH   4   7
ATOM      7  O   UNL     1       3.813   0.616  18.420  0.00  0.00    +0.000 OA
ATOM      8  H   UNL     1       4.707   0.397  18.735  0.00  0.00    +0.000 HD
ENDBRANCH   4   7
BRANCH   5   9
ATOM      9  O   UNL     1       5.210   2.061  20.244  0.00  0.00    +0.000 OA
ATOM     10  H   UNL     1       5.245   2.667  21.012  0.00  0.00    +0.000 HD
ENDBRANCH   5   9
BRANCH   1  11
ATOM     11  C   UNL     1       3.628   6.292  18.271  0.00  0.00    +0.000 C 
BRANCH  11  12
ATOM     12  O   UNL     1       2.296   6.792  18.124  0.00  0.00    +0.000 OA
ATOM     13  H   UNL     1       2.261   7.675  18.526  0.00  0.00    +0.000 HD
ENDBRANCH  11  12
BRANCH  11  14
ATOM     14  C   UNL     1       4.477   6.748  17.082  0.00  0.00    +0.000 C 
BRANCH  14  15
ATOM     15  N   UNL     1       5.925   6.729  17.274  0.00  0.00    +0.000 NA
ATOM     16  H   UNL     1       6.101   6.510  18.260  0.00  0.00    +0.000 HD
BRANCH  15  18
ATOM     17  C   UNL     1       7.301   4.599  17.158  0.00  0.00    +0.000 C 
ATOM     18  C   UNL     1       6.697   5.810  16.441  0.00  0.00    +0.000 C 
ATOM     19  C   UNL     1       5.712   5.398  15.339  0.00  0.00    +0.000 C 
ENDBRANCH  15  18
ENDBRANCH  14  15
ENDBRANCH  11  14
ENDBRANCH   1  11
TORSDOF 7
ENDMDL
