MODEL 1
REMARK VINA RESULT:      -8.7      0.000      0.000
REMARK  Name = 
REMARK  7 active torsions:
REMARK  status: ('A' for Active; 'I' for Inactive)
REMARK    1  A    between atoms: C_1  and  O_2
REMARK    2  A    between atoms: O_2  and  C_3
REMARK    3  A    between atoms: C_3  and  C_5
REMARK    4  A    between atoms: C_10  and  N_11
REMARK    5  A    between atoms: C_12  and  C_14
REMARK    6  A    between atoms: C_14  and  N_15
REMARK    7  A    between atoms: N_22  and  C_23
REMARK                            x       y       z     vdW  Elec       q    Type
REMARK                         _______ _______ _______ _____ _____    ______ ____
ROOT
ATOM      1  N   UNL     1       4.259   4.143  18.895  0.00  0.00    +0.000 N 
ATOM      2  C   UNL     1       3.782   3.790  17.637  0.00  0.00    +0.000 A 
ATOM      3  N   UNL     1       4.415   3.949  16.511  0.00  0.00    +0.000 NA
ATOM      4  C   UNL     1       5.612   4.586  16.642  0.00  0.00    +0.000 A 
ATOM      5  C   UNL     1       6.164   5.010  17.826  0.00  0.00    +0.000 A 
ATOM      6  C   UNL     1       7.324   5.702  17.500  0.00  0.00    +0.000 A 
ATOM      7  N   UNL     1       7.560   5.679  16.192  0.00  0.00    +0.000 NA
ATOM      8  N   UNL     1       6.540   4.930  15.651  0.00  0.00    +0.000 N 
ATOM      9  C   UNL     1       5.507   4.736  19.063  0.00  0.00    +0.000 A 
ATOM     10  O   UNL     1       6.009   4.982  20.152  0.00  0.00    +0.000 OA
ENDROOT
BRANCH   8  11
ATOM     11  C   UNL     1       6.596   4.587  14.269  0.00  0.00    +0.000 A 
ATOM     12  C   UNL     1       7.551   5.228  13.455  0.00  0.00    +0.000 A 
ATOM     13  C   UNL     1       7.683   4.894  12.108  0.00  0.00    +0.000 A 
ATOM     14  C   UNL     1       6.855   3.925  11.553  0.00  0.00    +0.000 A 
ATOM     15  C   UNL     1       5.900   3.288  12.346  0.00  0.00    +0.000 A 
ATOM     16  C   UNL     1       5.769   3.610  13.700  0.00  0.00    +0.000 A 
ENDBRANCH   8  11
BRANCH   1  17
ATOM     17  C   UNL     1       3.383   4.133  20.049  0.00  0.00    +0.000 C 
BRANCH  17  19
ATOM     18  N   UNL     1       2.652   6.516  20.222  0.00  0.00    +0.000 N 
ATOM     19  C   UNL     1       2.277   5.185  20.168  0.00  0.00    +0.000 C 
ATOM     20  O   UNL     1       1.116   4.772  20.201  0.00  0.00    +0.000 OA
ATOM     21  H   UNL     1       3.604   6.752  19.948  0.00  0.00    +0.000 HD
BRANCH  18  27
ATOM     22  C   UNL     1       1.556   8.581  19.363  0.00  0.00    +0.000 A 
ATOM     23  C   UNL     1       0.623   9.625  19.566  0.00  0.00    +0.000 A 
ATOM     24  C   UNL     1      -0.087   9.749  20.757  0.00  0.00    +0.000 A 
ATOM     25  C   UNL     1       0.149   8.847  21.777  0.00  0.00    +0.000 A 
ATOM     26  C   UNL     1       1.072   7.812  21.596  0.00  0.00    +0.000 A 
ATOM     27  C   UNL     1       1.768   7.628  20.387  0.00  0.00    +0.000 A 
BRANCH  22  28
ATOM     28  C   UNL     1       2.209   8.604  18.021  0.00  0.00    +0.000 C 
ATOM     29  O   UNL     1       2.198   9.592  17.299  0.00  0.00    +0.000 OA
BRANCH  28  31
ATOM     30  C   UNL     1       4.100   7.591  17.105  0.00  0.00    +0.000 C 
ATOM     31  O   UNL     1       2.804   7.424  17.701  0.00  0.00    +0.000 OA
ENDBRANCH  28  31
ENDBRANCH  22  28
ENDBRANCH  18  27
ENDBRANCH  17  19
ENDBRANCH   1  17
TORSDOF 6
ENDMDL
MODEL 2
REMARK VINA RESULT:      -8.4      3.969      6.690
REMARK  Name = 
REMARK  7 active torsions:
REMARK  status: ('A' for Active; 'I' for Inactive)
REMARK    1  A    between atoms: C_1  and  O_2
REMARK    2  A    between atoms: O_2  and  C_3
REMARK    3  A    between atoms: C_3  and  C_5
REMARK    4  A    between atoms: C_10  and  N_11
REMARK    5  A    between atoms: C_12  and  C_14
REMARK    6  A    between atoms: C_14  and  N_15
REMARK    7  A    between atoms: N_22  and  C_23
REMARK                            x       y       z     vdW  Elec       q    Type
REMARK                         _______ _______ _______ _____ _____    ______ ____
ROOT
ATOM      1  N   UNL     1       1.051  10.444  19.071  0.00  0.00    +0.000 N 
ATOM      2  C   UNL     1       1.831   9.998  18.010  0.00  0.00    +0.000 A 
ATOM      3  N   UNL     1       2.348   8.809  17.892  0.00  0.00    +0.000 NA
ATOM      4  C   UNL     1       2.122   8.006  18.970  0.00  0.00    +0.000 A 
ATOM      5  C   UNL     1       1.398   8.352  20.084  0.00  0.00    +0.000 A 
ATOM      6  C   UNL     1       1.510   7.293  20.977  0.00  0.00    +0.000 A 
ATOM      7  N   UNL     1       2.205   6.286  20.461  0.00  0.00    +0.000 NA
ATOM      8  N   UNL     1       2.536   6.685  19.187  0.00  0.00    +0.000 N 
ATOM      9  C   UNL     1       0.751   9.623  20.154  0.00  0.00    +0.000 A 
ATOM     10  O   UNL     1      -0.004   9.937  21.065  0.00  0.00    +0.000 OA
ENDROOT
BRANCH   8  11
ATOM     11  C   UNL     1       3.157   5.749  18.311  0.00  0.00    +0.000 A 
ATOM     12  C   UNL     1       2.456   4.574  17.975  0.00  0.00    +0.000 A 
ATOM     13  C   UNL     1       2.996   3.648  17.083  0.00  0.00    +0.000 A 
ATOM     14  C   UNL     1       4.249   3.878  16.524  0.00  0.00    +0.000 A 
ATOM     15  C   UNL     1       4.957   5.034  16.854  0.00  0.00    +0.000 A 
ATOM     16  C   UNL     1       4.417   5.972  17.740  0.00  0.00    +0.000 A 
ENDBRANCH   8  11
BRANCH   1  17
ATOM     17  C   UNL     1       0.722  11.848  19.209  0.00  0.00    +0.000 C 
BRANCH  17  19
ATOM     18  N   UNL     1      -1.746  11.507  19.026  0.00  0.00    +0.000 N 
ATOM     19  C   UNL     1      -0.667  12.343  18.797  0.00  0.00    +0.000 C 
ATOM     20  O   UNL     1      -0.732  13.465  18.291  0.00  0.00    +0.000 OA
ATOM     21  H   UNL     1      -1.612  10.720  19.658  0.00  0.00    +0.000 HD
BRANCH  18  27
ATOM     22  C   UNL     1      -3.633  11.398  17.405  0.00  0.00    +0.000 A 
ATOM     23  C   UNL     1      -5.001  11.636  17.126  0.00  0.00    +0.000 A 
ATOM     24  C   UNL     1      -5.839  12.246  18.054  0.00  0.00    +0.000 A 
ATOM     25  C   UNL     1      -5.316  12.656  19.266  0.00  0.00    +0.000 A 
ATOM     26  C   UNL     1      -3.967  12.433  19.556  0.00  0.00    +0.000 A 
ATOM     27  C   UNL     1      -3.103  11.774  18.661  0.00  0.00    +0.000 A 
BRANCH  22  28
ATOM     28  C   UNL     1      -2.897  10.724  16.295  0.00  0.00    +0.000 C 
ATOM     29  O   UNL     1      -2.034   9.880  16.493  0.00  0.00    +0.000 OA
BRANCH  28  31
ATOM     30  C   UNL     1      -3.403  10.081  14.111  0.00  0.00    +0.000 C 
ATOM     31  O   UNL     1      -3.290  11.147  15.064  0.00  0.00    +0.000 OA
ENDBRANCH  28  31
ENDBRANCH  22  28
ENDBRANCH  18  27
ENDBRANCH  17  19
ENDBRANCH   1  17
TORSDOF 6
ENDMDL
MODEL 3
REMARK VINA RESULT:      -8.3      3.901      6.397
REMARK  Name = 
REMARK  7 active torsions:
REMARK  status: ('A' for Active; 'I' for Inactive)
REMARK    1  A    between atoms: C_1  and  O_2
REMARK    2  A    between atoms: O_2  and  C_3
REMARK    3  A    between atoms: C_3  and  C_5
REMARK    4  A    between atoms: C_10  and  N_11
REMARK    5  A    between atoms: C_12  and  C_14
REMARK    6  A    between atoms: C_14  and  N_15
REMARK    7  A    between atoms: N_22  and  C_23
REMARK                            x       y       z     vdW  Elec       q    Type
REMARK                         _______ _______ _______ _____ _____    ______ ____
ROOT
ATOM      1  N   UNL     1       1.065  10.351  18.983  0.00  0.00    +0.000 N 
ATOM      2  C   UNL     1       1.862  10.047  17.886  0.00  0.00    +0.000 A 
ATOM      3  N   UNL     1       2.464   8.913  17.673  0.00  0.00    +0.000 NA
ATOM      4  C   UNL     1       2.312   8.015  18.687  0.00  0.00    +0.000 A 
ATOM      5  C   UNL     1       1.579   8.220  19.830  0.00  0.00    +0.000 A 
ATOM      6  C   UNL     1       1.781   7.108  20.638  0.00  0.00    +0.000 A 
ATOM      7  N   UNL     1       2.542   6.197  20.041  0.00  0.00    +0.000 NA
ATOM      8  N   UNL     1       2.826   6.717  18.798  0.00  0.00    +0.000 N 
ATOM      9  C   UNL     1       0.840   9.429  20.002  0.00  0.00    +0.000 A 
ATOM     10  O   UNL     1       0.076   9.616  20.940  0.00  0.00    +0.000 OA
ENDROOT
BRANCH   8  11
ATOM     11  C   UNL     1       3.504   5.899  17.848  0.00  0.00    +0.000 A 
ATOM     12  C   UNL     1       4.530   6.477  17.076  0.00  0.00    +0.000 A 
ATOM     13  C   UNL     1       5.260   5.710  16.167  0.00  0.00    +0.000 A 
ATOM     14  C   UNL     1       4.966   4.361  16.010  0.00  0.00    +0.000 A 
ATOM     15  C   UNL     1       3.947   3.778  16.764  0.00  0.00    +0.000 A 
ATOM     16  C   UNL     1       3.217   4.538  17.684  0.00  0.00    +0.000 A 
ENDBRANCH   8  11
BRANCH   1  17
ATOM     17  C   UNL     1       0.634  11.712  19.232  0.00  0.00    +0.000 C 
BRANCH  17  19
ATOM     18  N   UNL     1      -1.850  11.444  19.217  0.00  0.00    +0.000 N 
ATOM     19  C   UNL     1      -0.754  12.162  18.769  0.00  0.00    +0.000 C 
ATOM     20  O   UNL     1      -0.803  13.146  18.029  0.00  0.00    +0.000 OA
ATOM     21  H   UNL     1      -1.714  10.811  20.003  0.00  0.00    +0.000 HD
BRANCH  18  27
ATOM     22  C   UNL     1      -3.782  11.133  17.676  0.00  0.00    +0.000 A 
ATOM     23  C   UNL     1      -5.152  11.354  17.399  0.00  0.00    +0.000 A 
ATOM     24  C   UNL     1      -5.956  12.111  18.247  0.00  0.00    +0.000 A 
ATOM     25  C   UNL     1      -5.393  12.686  19.371  0.00  0.00    +0.000 A 
ATOM     26  C   UNL     1      -4.040  12.482  19.657  0.00  0.00    +0.000 A 
ATOM     27  C   UNL     1      -3.212  11.681  18.849  0.00  0.00    +0.000 A 
BRANCH  22  28
ATOM     28  C   UNL     1      -3.087  10.288  16.661  0.00  0.00    +0.000 C 
ATOM     29  O   UNL     1      -2.007   9.754  16.875  0.00  0.00    +0.000 OA
BRANCH  28  31
ATOM     30  C   UNL     1      -2.929  10.076  14.344  0.00  0.00    +0.000 C 
ATOM     31  O   UNL     1      -3.779  10.183  15.495  0.00  0.00    +0.000 OA
ENDBRANCH  28  31
ENDBRANCH  22  28
ENDBRANCH  18  27
ENDBRANCH  17  19
ENDBRANCH   1  17
TORSDOF 6
ENDMDL
MODEL 4
REMARK VINA RESULT:      -7.9      4.292      6.995
REMARK  Name = 
REMARK  7 active torsions:
REMARK  status: ('A' for Active; 'I' for Inactive)
REMARK    1  A    between atoms: C_1  and  O_2
REMARK    2  A    between atoms: O_2  and  C_3
REMARK    3  A    between atoms: C_3  and  C_5
REMARK    4  A    between atoms: C_10  and  N_11
REMARK    5  A    between atoms: C_12  and  C_14
REMARK    6  A    between atoms: C_14  and  N_15
REMARK    7  A    between atoms: N_22  and  C_23
REMARK                            x       y       z     vdW  Elec       q    Type
REMARK                         _______ _______ _______ _____ _____    ______ ____
ROOT
ATOM      1  N   UNL     1       1.058  10.326  19.002  0.00  0.00    +0.000 N 
ATOM      2  C   UNL     1       1.914  10.102  17.929  0.00  0.00    +0.000 A 
ATOM      3  N   UNL     1       2.563   8.999  17.690  0.00  0.00    +0.000 NA
ATOM      4  C   UNL     1       2.395   8.047  18.650  0.00  0.00    +0.000 A 
ATOM      5  C   UNL     1       1.604   8.171  19.766  0.00  0.00    +0.000 A 
ATOM      6  C   UNL     1       1.806   7.026  20.527  0.00  0.00    +0.000 A 
ATOM      7  N   UNL     1       2.624   6.171  19.921  0.00  0.00    +0.000 NA
ATOM      8  N   UNL     1       2.946   6.762  18.721  0.00  0.00    +0.000 N 
ATOM      9  C   UNL     1       0.819   9.347  19.962  0.00  0.00    +0.000 A 
ATOM     10  O   UNL     1       0.007   9.461  20.871  0.00  0.00    +0.000 OA
ENDROOT
BRANCH   8  11
ATOM     11  C   UNL     1       3.693   6.015  17.765  0.00  0.00    +0.000 A 
ATOM     12  C   UNL     1       3.460   4.629  17.663  0.00  0.00    +0.000 A 
ATOM     13  C   UNL     1       4.127   3.859  16.710  0.00  0.00    +0.000 A 
ATOM     14  C   UNL     1       5.044   4.461  15.855  0.00  0.00    +0.000 A 
ATOM     15  C   UNL     1       5.289   5.831  15.951  0.00  0.00    +0.000 A 
ATOM     16  C   UNL     1       4.617   6.611  16.897  0.00  0.00    +0.000 A 
ENDBRANCH   8  11
BRANCH   1  17
ATOM     17  C   UNL     1       0.572  11.658  19.297  0.00  0.00    +0.000 C 
BRANCH  17  19
ATOM     18  N   UNL     1      -1.910  11.423  19.117  0.00  0.00    +0.000 N 
ATOM     19  C   UNL     1      -0.775  12.114  18.728  0.00  0.00    +0.000 C 
ATOM     20  O   UNL     1      -0.758  13.078  17.961  0.00  0.00    +0.000 OA
ATOM     21  H   UNL     1      -1.838  10.810  19.927  0.00  0.00    +0.000 HD
BRANCH  18  27
ATOM     22  C   UNL     1      -4.221  12.284  19.461  0.00  0.00    +0.000 A 
ATOM     23  C   UNL     1      -5.501  12.555  18.921  0.00  0.00    +0.000 A 
ATOM     24  C   UNL     1      -5.827  12.217  17.611  0.00  0.00    +0.000 A 
ATOM     25  C   UNL     1      -4.886  11.575  16.828  0.00  0.00    +0.000 A 
ATOM     26  C   UNL     1      -3.618  11.296  17.347  0.00  0.00    +0.000 A 
ATOM     27  C   UNL     1      -3.239  11.668  18.650  0.00  0.00    +0.000 A 
BRANCH  22  28
ATOM     28  C   UNL     1      -4.054  12.729  20.877  0.00  0.00    +0.000 C 
ATOM     29  O   UNL     1      -3.114  13.420  21.244  0.00  0.00    +0.000 OA
BRANCH  28  31
ATOM     30  C   UNL     1      -5.499  13.281  22.622  0.00  0.00    +0.000 C 
ATOM     31  O   UNL     1      -5.047  12.285  21.692  0.00  0.00    +0.000 OA
ENDBRANCH  28  31
ENDBRANCH  22  28
ENDBRANCH  18  27
ENDBRANCH  17  19
ENDBRANCH   1  17
TORSDOF 6
ENDMDL
MODEL 5
REMARK VINA RESULT:      -7.8      4.214      6.894
REMARK  Name = 
REMARK  7 active torsions:
REMARK  status: ('A' for Active; 'I' for Inactive)
REMARK    1  A    between atoms: C_1  and  O_2
REMARK    2  A    between atoms: O_2  and  C_3
REMARK    3  A    between atoms: C_3  and  C_5
REMARK    4  A    between atoms: C_10  and  N_11
REMARK    5  A    between atoms: C_12  and  C_14
REMARK    6  A    between atoms: C_14  and  N_15
REMARK    7  A    between atoms: N_22  and  C_23
REMARK                            x       y       z     vdW  Elec       q    Type
REMARK                         _______ _______ _______ _____ _____    ______ ____
ROOT
ATOM      1  N   UNL     1       0.983  10.319  19.039  0.00  0.00    +0.000 N 
ATOM      2  C   UNL     1       1.798  10.038  17.947  0.00  0.00    +0.000 A 
ATOM      3  N   UNL     1       2.425   8.918  17.734  0.00  0.00    +0.000 NA
ATOM      4  C   UNL     1       2.282   8.011  18.741  0.00  0.00    +0.000 A 
ATOM      5  C   UNL     1       1.532   8.193  19.877  0.00  0.00    +0.000 A 
ATOM      6  C   UNL     1       1.748   7.080  20.680  0.00  0.00    +0.000 A 
ATOM      7  N   UNL     1       2.535   6.189  20.085  0.00  0.00    +0.000 NA
ATOM      8  N   UNL     1       2.821   6.723  18.849  0.00  0.00    +0.000 N 
ATOM      9  C   UNL     1       0.767   9.386  20.049  0.00  0.00    +0.000 A 
ATOM     10  O   UNL     1      -0.011   9.550  20.980  0.00  0.00    +0.000 OA
ENDROOT
BRANCH   8  11
ATOM     11  C   UNL     1       3.525   5.926  17.901  0.00  0.00    +0.000 A 
ATOM     12  C   UNL     1       4.659   6.476  17.271  0.00  0.00    +0.000 A 
ATOM     13  C   UNL     1       5.415   5.723  16.373  0.00  0.00    +0.000 A 
ATOM     14  C   UNL     1       5.041   4.415  16.083  0.00  0.00    +0.000 A 
ATOM     15  C   UNL     1       3.917   3.861  16.695  0.00  0.00    +0.000 A 
ATOM     16  C   UNL     1       3.159   4.607  17.604  0.00  0.00    +0.000 A 
ENDBRANCH   8  11
BRANCH   1  17
ATOM     17  C   UNL     1       0.521  11.669  19.291  0.00  0.00    +0.000 C 
BRANCH  17  19
ATOM     18  N   UNL     1      -1.966  11.475  19.157  0.00  0.00    +0.000 N 
ATOM     19  C   UNL     1      -0.824  12.127  18.723  0.00  0.00    +0.000 C 
ATOM     20  O   UNL     1      -0.801  13.057  17.915  0.00  0.00    +0.000 OA
ATOM     21  H   UNL     1      -1.894  10.895  19.991  0.00  0.00    +0.000 HD
BRANCH  18  27
ATOM     22  C   UNL     1      -4.282  12.312  19.528  0.00  0.00    +0.000 A 
ATOM     23  C   UNL     1      -5.564  12.591  18.998  0.00  0.00    +0.000 A 
ATOM     24  C   UNL     1      -5.890  12.290  17.678  0.00  0.00    +0.000 A 
ATOM     25  C   UNL     1      -4.946  11.677  16.876  0.00  0.00    +0.000 A 
ATOM     26  C   UNL     1      -3.676  11.390  17.386  0.00  0.00    +0.000 A 
ATOM     27  C   UNL     1      -3.298  11.726  18.699  0.00  0.00    +0.000 A 
BRANCH  22  28
ATOM     28  C   UNL     1      -4.116  12.716  20.956  0.00  0.00    +0.000 C 
ATOM     29  O   UNL     1      -4.941  12.446  21.818  0.00  0.00    +0.000 OA
BRANCH  28  31
ATOM     30  C   UNL     1      -2.506  13.305  22.537  0.00  0.00    +0.000 C 
ATOM     31  O   UNL     1      -2.966  13.405  21.182  0.00  0.00    +0.000 OA
ENDBRANCH  28  31
ENDBRANCH  22  28
ENDBRANCH  18  27
ENDBRANCH  17  19
ENDBRANCH   1  17
TORSDOF 6
ENDMDL
MODEL 6
REMARK VINA RESULT:      -7.8      3.692     10.086
REMARK  Name = 
REMARK  7 active torsions:
REMARK  status: ('A' for Active; 'I' for Inactive)
REMARK    1  A    between atoms: C_1  and  O_2
REMARK    2  A    between atoms: O_2  and  C_3
REMARK    3  A    between atoms: C_3  and  C_5
REMARK    4  A    between atoms: C_10  and  N_11
REMARK    5  A    between atoms: C_12  and  C_14
REMARK    6  A    between atoms: C_14  and  N_15
REMARK    7  A    between atoms: N_22  and  C_23
REMARK                            x       y       z     vdW  Elec       q    Type
REMARK                         _______ _______ _______ _____ _____    ______ ____
ROOT
ATOM      1  N   UNL     1       0.879   9.716  19.573  0.00  0.00    +0.000 N 
ATOM      2  C   UNL     1       1.003  10.157  20.886  0.00  0.00    +0.000 A 
ATOM      3  N   UNL     1       0.184  10.962  21.499  0.00  0.00    +0.000 NA
ATOM      4  C   UNL     1      -0.822  11.426  20.706  0.00  0.00    +0.000 A 
ATOM      5  C   UNL     1      -1.022  11.086  19.390  0.00  0.00    +0.000 A 
ATOM      6  C   UNL     1      -2.080  11.863  18.934  0.00  0.00    +0.000 A 
ATOM      7  N   UNL     1      -2.590  12.618  19.902  0.00  0.00    +0.000 NA
ATOM      8  N   UNL     1      -1.863  12.307  21.028  0.00  0.00    +0.000 N 
ATOM      9  C   UNL     1      -0.176  10.124  18.761  0.00  0.00    +0.000 A 
ATOM     10  O   UNL     1      -0.379   9.694  17.634  0.00  0.00    +0.000 OA
ENDROOT
BRANCH   8  11
ATOM     11  C   UNL     1      -2.275  12.842  22.283  0.00  0.00    +0.000 A 
ATOM     12  C   UNL     1      -1.509  13.876  22.857  0.00  0.00    +0.000 A 
ATOM     13  C   UNL     1      -1.895  14.470  24.058  0.00  0.00    +0.000 A 
ATOM     14  C   UNL     1      -3.043  14.031  24.708  0.00  0.00    +0.000 A 
ATOM     15  C   UNL     1      -3.806  13.002  24.154  0.00  0.00    +0.000 A 
ATOM     16  C   UNL     1      -3.430  12.408  22.944  0.00  0.00    +0.000 A 
ENDBRANCH   8  11
BRANCH   1  17
ATOM     17  C   UNL     1       1.964   9.010  18.923  0.00  0.00    +0.000 C 
BRANCH  17  19
ATOM     18  N   UNL     1       2.628   6.735  18.132  0.00  0.00    +0.000 N 
ATOM     19  C   UNL     1       2.147   7.510  19.173  0.00  0.00    +0.000 C 
ATOM     20  O   UNL     1       1.859   7.093  20.296  0.00  0.00    +0.000 OA
ATOM     21  H   UNL     1       3.054   7.213  17.341  0.00  0.00    +0.000 HD
BRANCH  18  27
ATOM     22  C   UNL     1       4.063   4.724  18.445  0.00  0.00    +0.000 A 
ATOM     23  C   UNL     1       4.167   3.315  18.518  0.00  0.00    +0.000 A 
ATOM     24  C   UNL     1       3.066   2.490  18.305  0.00  0.00    +0.000 A 
ATOM     25  C   UNL     1       1.850   3.062  17.983  0.00  0.00    +0.000 A 
ATOM     26  C   UNL     1       1.731   4.452  17.901  0.00  0.00    +0.000 A 
ATOM     27  C   UNL     1       2.811   5.317  18.161  0.00  0.00    +0.000 A 
BRANCH  22  28
ATOM     28  C   UNL     1       5.345   5.441  18.716  0.00  0.00    +0.000 C 
ATOM     29  O   UNL     1       6.079   5.149  19.650  0.00  0.00    +0.000 OA
BRANCH  28  31
ATOM     30  C   UNL     1       6.439   6.017  16.738  0.00  0.00    +0.000 C 
ATOM     31  O   UNL     1       5.596   6.434  17.823  0.00  0.00    +0.000 OA
ENDBRANCH  28  31
ENDBRANCH  22  28
ENDBRANCH  18  27
ENDBRANCH  17  19
ENDBRANCH   1  17
TORSDOF 6
ENDMDL
MODEL 7
REMARK VINA RESULT:      -7.7      3.698     10.125
REMARK  Name = 
REMARK  7 active torsions:
REMARK  status: ('A' for Active; 'I' for Inactive)
REMARK    1  A    between atoms: C_1  and  O_2
REMARK    2  A    between atoms: O_2  and  C_3
REMARK    3  A    between atoms: C_3  and  C_5
REMARK    4  A    between atoms: C_10  and  N_11
REMARK    5  A    between atoms: C_12  and  C_14
REMARK    6  A    between atoms: C_14  and  N_15
REMARK    7  A    between atoms: N_22  and  C_23
REMARK                            x       y       z     vdW  Elec       q    Type
REMARK                         _______ _______ _______ _____ _____    ______ ____
ROOT
ATOM      1  N   UNL     1       0.958   9.716  19.733  0.00  0.00    +0.000 N 
ATOM      2  C   UNL     1       1.048  10.173  21.043  0.00  0.00    +0.000 A 
ATOM      3  N   UNL     1       0.220  10.995  21.620  0.00  0.00    +0.000 NA
ATOM      4  C   UNL     1      -0.757  11.460  20.791  0.00  0.00    +0.000 A 
ATOM      5  C   UNL     1      -0.920  11.104  19.474  0.00  0.00    +0.000 A 
ATOM      6  C   UNL     1      -1.955  11.886  18.977  0.00  0.00    +0.000 A 
ATOM      7  N   UNL     1      -2.486  12.659  19.919  0.00  0.00    +0.000 NA
ATOM      8  N   UNL     1      -1.796  12.356  21.070  0.00  0.00    +0.000 N 
ATOM      9  C   UNL     1      -0.067  10.124  18.884  0.00  0.00    +0.000 A 
ATOM     10  O   UNL     1      -0.242   9.681  17.757  0.00  0.00    +0.000 OA
ENDROOT
BRANCH   8  11
ATOM     11  C   UNL     1      -2.239  12.912  22.305  0.00  0.00    +0.000 A 
ATOM     12  C   UNL     1      -3.309  12.290  22.977  0.00  0.00    +0.000 A 
ATOM     13  C   UNL     1      -3.750  12.762  24.213  0.00  0.00    +0.000 A 
ATOM     14  C   UNL     1      -3.136  13.870  24.787  0.00  0.00    +0.000 A 
ATOM     15  C   UNL     1      -2.080  14.500  24.128  0.00  0.00    +0.000 A 
ATOM     16  C   UNL     1      -1.626  14.026  22.893  0.00  0.00    +0.000 A 
ENDBRANCH   8  11
BRANCH   1  17
ATOM     17  C   UNL     1       2.055   8.989  19.125  0.00  0.00    +0.000 C 
BRANCH  17  19
ATOM     18  N   UNL     1       2.613   6.728  18.221  0.00  0.00    +0.000 N 
ATOM     19  C   UNL     1       2.137   7.469  19.289  0.00  0.00    +0.000 C 
ATOM     20  O   UNL     1       1.778   7.005  20.372  0.00  0.00    +0.000 OA
ATOM     21  H   UNL     1       3.100   7.225  17.477  0.00  0.00    +0.000 HD
BRANCH  18  27
ATOM     22  C   UNL     1       3.954   4.632  18.137  0.00  0.00    +0.000 A 
ATOM     23  C   UNL     1       3.984   3.216  18.149  0.00  0.00    +0.000 A 
ATOM     24  C   UNL     1       2.815   2.462  18.177  0.00  0.00    +0.000 A 
ATOM     25  C   UNL     1       1.595   3.111  18.163  0.00  0.00    +0.000 A 
ATOM     26  C   UNL     1       1.547   4.508  18.147  0.00  0.00    +0.000 A 
ATOM     27  C   UNL     1       2.709   5.302  18.169  0.00  0.00    +0.000 A 
BRANCH  22  28
ATOM     28  C   UNL     1       5.306   5.266  18.120  0.00  0.00    +0.000 C 
ATOM     29  O   UNL     1       5.484   6.428  17.782  0.00  0.00    +0.000 OA
BRANCH  28  31
ATOM     30  C   UNL     1       7.550   4.683  17.873  0.00  0.00    +0.000 C 
ATOM     31  O   UNL     1       6.294   4.419  18.514  0.00  0.00    +0.000 OA
ENDBRANCH  28  31
ENDBRANCH  22  28
ENDBRANCH  18  27
ENDBRANCH  17  19
ENDBRANCH   1  17
TORSDOF 6
ENDMDL
MODEL 8
REMARK VINA RESULT:      -7.5      3.460      9.613
REMARK  Name = 
REMARK  7 active torsions:
REMARK  status: ('A' for Active; 'I' for Inactive)
REMARK    1  A    between atoms: C_1  and  O_2
REMARK    2  A    between atoms: O_2  and  C_3
REMARK    3  A    between atoms: C_3  and  C_5
REMARK    4  A    between atoms: C_10  and  N_11
REMARK    5  A    between atoms: C_12  and  C_14
REMARK    6  A    between atoms: C_14  and  N_15
REMARK    7  A    between atoms: N_22  and  C_23
REMARK                            x       y       z     vdW  Elec       q    Type
REMARK                         _______ _______ _______ _____ _____    ______ ____
ROOT
ATOM      1  N   UNL     1       1.319   9.924  18.570  0.00  0.00    +0.000 N 
ATOM      2  C   UNL     1       0.215   9.483  19.292  0.00  0.00    +0.000 A 
ATOM      3  N   UNL     1      -0.529  10.217  20.068  0.00  0.00    +0.000 NA
ATOM      4  C   UNL     1      -0.091  11.502  20.190  0.00  0.00    +0.000 A 
ATOM      5  C   UNL     1       1.003  12.035  19.554  0.00  0.00    +0.000 A 
ATOM      6  C   UNL     1       1.156  13.327  20.040  0.00  0.00    +0.000 A 
ATOM      7  N   UNL     1       0.188  13.651  20.891  0.00  0.00    +0.000 NA
ATOM      8  N   UNL     1      -0.635  12.550  20.943  0.00  0.00    +0.000 N 
ATOM      9  C   UNL     1       1.749  11.246  18.627  0.00  0.00    +0.000 A 
ATOM     10  O   UNL     1       2.655  11.703  17.942  0.00  0.00    +0.000 OA
ENDROOT
BRANCH   8  11
ATOM     11  C   UNL     1      -1.864  12.642  21.659  0.00  0.00    +0.000 A 
ATOM     12  C   UNL     1      -3.003  13.119  20.980  0.00  0.00    +0.000 A 
ATOM     13  C   UNL     1      -4.242  13.182  21.618  0.00  0.00    +0.000 A 
ATOM     14  C   UNL     1      -4.357  12.782  22.944  0.00  0.00    +0.000 A 
ATOM     15  C   UNL     1      -3.235  12.314  23.630  0.00  0.00    +0.000 A 
ATOM     16  C   UNL     1      -1.991  12.238  22.994  0.00  0.00    +0.000 A 
ENDBRANCH   8  11
BRANCH   1  17
ATOM     17  C   UNL     1       2.207   8.979  17.924  0.00  0.00    +0.000 C 
BRANCH  17  19
ATOM     18  N   UNL     1       2.601   6.526  17.655  0.00  0.00    +0.000 N 
ATOM     19  C   UNL     1       2.391   7.582  18.525  0.00  0.00    +0.000 C 
ATOM     20  O   UNL     1       2.346   7.494  19.753  0.00  0.00    +0.000 OA
ATOM     21  H   UNL     1       2.856   6.745  16.694  0.00  0.00    +0.000 HD
BRANCH  18  27
ATOM     22  C   UNL     1       4.000   4.558  18.267  0.00  0.00    +0.000 A 
ATOM     23  C   UNL     1       4.066   3.210  18.691  0.00  0.00    +0.000 A 
ATOM     24  C   UNL     1       2.919   2.442  18.866  0.00  0.00    +0.000 A 
ATOM     25  C   UNL     1       1.686   3.003  18.590  0.00  0.00    +0.000 A 
ATOM     26  C   UNL     1       1.602   4.332  18.165  0.00  0.00    +0.000 A 
ATOM     27  C   UNL     1       2.739   5.152  18.027  0.00  0.00    +0.000 A 
BRANCH  22  28
ATOM     28  C   UNL     1       5.332   5.222  18.148  0.00  0.00    +0.000 C 
ATOM     29  O   UNL     1       5.463   6.371  17.746  0.00  0.00    +0.000 OA
BRANCH  28  31
ATOM     30  C   UNL     1       7.570   4.667  17.798  0.00  0.00    +0.000 C 
ATOM     31  O   UNL     1       6.360   4.420  18.530  0.00  0.00    +0.000 OA
ENDBRANCH  28  31
ENDBRANCH  22  28
ENDBRANCH  18  27
ENDBRANCH  17  19
ENDBRANCH   1  17
TORSDOF 6
ENDMDL
MODEL 9
REMARK VINA RESULT:      -7.5      3.829      5.743
REMARK  Name = 
REMARK  7 active torsions:
REMARK  status: ('A' for Active; 'I' for Inactive)
REMARK    1  A    between atoms: C_1  and  O_2
REMARK    2  A    between atoms: O_2  and  C_3
REMARK    3  A    between atoms: C_3  and  C_5
REMARK    4  A    between atoms: C_10  and  N_11
REMARK    5  A    between atoms: C_12  and  C_14
REMARK    6  A    between atoms: C_14  and  N_15
REMARK    7  A    between atoms: N_22  and  C_23
REMARK                            x       y       z     vdW  Elec       q    Type
REMARK                         _______ _______ _______ _____ _____    ______ ____
ROOT
ATOM      1  N   UNL     1       1.362   9.510  19.241  0.00  0.00    +0.000 N 
ATOM      2  C   UNL     1       2.050   9.464  18.034  0.00  0.00    +0.000 A 
ATOM      3  N   UNL     1       2.753   8.460  17.595  0.00  0.00    +0.000 NA
ATOM      4  C   UNL     1       2.833   7.423  18.476  0.00  0.00    +0.000 A 
ATOM      5  C   UNL     1       2.224   7.374  19.707  0.00  0.00    +0.000 A 
ATOM      6  C   UNL     1       2.654   6.202  20.317  0.00  0.00    +0.000 A 
ATOM      7  N   UNL     1       3.440   5.490  19.517  0.00  0.00    +0.000 NA
ATOM      8  N   UNL     1       3.506   6.203  18.342  0.00  0.00    +0.000 N 
ATOM      9  C   UNL     1       1.374   8.440  20.130  0.00  0.00    +0.000 A 
ATOM     10  O   UNL     1       0.713   8.395  21.160  0.00  0.00    +0.000 OA
ENDROOT
BRANCH   8  11
ATOM     11  C   UNL     1       4.156   5.617  17.217  0.00  0.00    +0.000 A 
ATOM     12  C   UNL     1       4.885   6.455  16.350  0.00  0.00    +0.000 A 
ATOM     13  C   UNL     1       5.582   5.928  15.263  0.00  0.00    +0.000 A 
ATOM     14  C   UNL     1       5.548   4.559  15.020  0.00  0.00    +0.000 A 
ATOM     15  C   UNL     1       4.824   3.720  15.867  0.00  0.00    +0.000 A 
ATOM     16  C   UNL     1       4.131   4.240  16.965  0.00  0.00    +0.000 A 
ENDBRANCH   8  11
BRANCH   1  17
ATOM     17  C   UNL     1       0.807  10.756  19.730  0.00  0.00    +0.000 C 
BRANCH  17  19
ATOM     18  N   UNL     1      -1.336  11.354  18.592  0.00  0.00    +0.000 N 
ATOM     19  C   UNL     1      -0.712  10.946  19.759  0.00  0.00    +0.000 C 
ATOM     20  O   UNL     1      -1.283  10.715  20.826  0.00  0.00    +0.000 OA
ATOM     21  H   UNL     1      -0.810  11.283  17.723  0.00  0.00    +0.000 HD
BRANCH  18  27
ATOM     22  C   UNL     1      -3.459  11.245  17.296  0.00  0.00    +0.000 A 
ATOM     23  C   UNL     1      -4.851  11.499  17.235  0.00  0.00    +0.000 A 
ATOM     24  C   UNL     1      -5.522  12.138  18.273  0.00  0.00    +0.000 A 
ATOM     25  C   UNL     1      -4.806  12.562  19.377  0.00  0.00    +0.000 A 
ATOM     26  C   UNL     1      -3.431  12.324  19.451  0.00  0.00    +0.000 A 
ATOM     27  C   UNL     1      -2.730  11.636  18.443  0.00  0.00    +0.000 A 
BRANCH  22  28
ATOM     28  C   UNL     1      -2.919  10.539  16.097  0.00  0.00    +0.000 C 
ATOM     29  O   UNL     1      -2.140   9.599  16.180  0.00  0.00    +0.000 OA
BRANCH  28  31
ATOM     30  C   UNL     1      -3.527  10.062  13.896  0.00  0.00    +0.000 C 
ATOM     31  O   UNL     1      -3.384  11.051  14.926  0.00  0.00    +0.000 OA
ENDBRANCH  28  31
ENDBRANCH  22  28
ENDBRANCH  18  27
ENDBRANCH  17  19
ENDBRANCH   1  17
TORSDOF 6
ENDMDL
