MODEL 1
REMARK VINA RESULT:      -7.1      0.000      0.000
REMARK  Name = 
REMARK  12 active torsions:
REMARK  status: ('A' for Active; 'I' for Inactive)
REMARK    1  A    between atoms: C_1  and  C_2
REMARK    2  A    between atoms: C_2  and  C_3
REMARK    3  A    between atoms: C_3  and  C_4
REMARK    4  A    between atoms: C_3  and  C_5
REMARK    5  A    between atoms: C_3  and  C_12
REMARK    6  A    between atoms: C_8  and  O_9
REMARK    7  A    between atoms: C_12  and  C_13
REMARK    8  A    between atoms: C_12  and  C_18
REMARK    9  A    between atoms: C_13  and  C_14
REMARK   10  A    between atoms: C_14  and  C_15
REMARK   11  A    between atoms: C_15  and  C_16
REMARK   12  A    between atoms: C_21  and  O_22
REMARK                            x       y       z     vdW  Elec       q    Type
REMARK                         _______ _______ _______ _____ _____    ______ ____
ROOT
ATOM      1  C   UNL     1       4.357   5.031  17.113  0.00  0.00    +0.000 C 
ENDROOT
BRANCH   1   2
ATOM      2  C   UNL     1       5.660   5.733  17.552  0.00  0.00    +0.000 A 
ATOM      3  C   UNL     1       6.400   5.242  18.644  0.00  0.00    +0.000 A 
ATOM      4  C   UNL     1       7.504   5.949  19.156  0.00  0.00    +0.000 A 
ATOM      5  C   UNL     1       7.888   7.146  18.558  0.00  0.00    +0.000 A 
ATOM      6  C   UNL     1       7.200   7.639  17.462  0.00  0.00    +0.000 A 
ATOM      7  C   UNL     1       6.080   6.954  16.985  0.00  0.00    +0.000 A 
BRANCH   5   8
ATOM      8  O   UNL     1       8.944   7.878  19.027  0.00  0.00    +0.000 OA
ATOM      9  H   UNL     1       8.712   8.221  19.907  0.00  0.00    +0.000 HD
ENDBRANCH   5   8
ENDBRANCH   1   2
BRANCH   1  10
ATOM     10  C   UNL     1       3.123   4.928  18.157  0.00  0.00    +0.000 C 
ATOM     11  C   UNL     1       1.938   4.171  17.494  0.00  0.00    +0.000 C 
BRANCH  10  12
ATOM     12  C   UNL     1       2.595   6.315  18.640  0.00  0.00    +0.000 A 
ATOM     13  C   UNL     1       2.416   7.418  17.779  0.00  0.00    +0.000 A 
ATOM     14  C   UNL     1       1.904   8.641  18.236  0.00  0.00    +0.000 A 
ATOM     15  C   UNL     1       1.534   8.775  19.564  0.00  0.00    +0.000 A 
ATOM     16  C   UNL     1       1.727   7.729  20.448  0.00  0.00    +0.000 A 
ATOM     17  C   UNL     1       2.296   6.535  19.998  0.00  0.00    +0.000 A 
BRANCH  15  18
ATOM     18  O   UNL     1       0.988   9.927  20.042  0.00  0.00    +0.000 OA
ATOM     19  H   UNL     1       0.922  10.564  19.313  0.00  0.00    +0.000 HD
ENDBRANCH  15  18
ENDBRANCH  10  12
BRANCH  10  21
ATOM     20  C   UNL     1       2.895   2.675  19.574  0.00  0.00    +0.000 C 
ATOM     21  C   UNL     1       3.532   4.051  19.415  0.00  0.00    +0.000 C 
ENDBRANCH  10  21
ENDBRANCH   1  10
BRANCH   1  22
ATOM     22  C   UNL     1       4.708   3.661  16.460  0.00  0.00    +0.000 C 
BRANCH  22  23
ATOM     23  C   UNL     1       5.941   3.704  15.536  0.00  0.00    +0.000 C 
BRANCH  23  24
ATOM     24  C   UNL     1       5.570   4.327  14.187  0.00  0.00    +0.000 C 
BRANCH  24  25
ATOM     25  C   UNL     1       6.161   3.541  13.017  0.00  0.00    +0.000 C 
ATOM     26  I   UNL     1       4.664   3.208  11.522  0.00  0.00    +0.000 I 
ENDBRANCH  24  25
ENDBRANCH  23  24
ENDBRANCH  22  23
ENDBRANCH   1  22
TORSDOF 10
ENDMDL
MODEL 2
REMARK VINA RESULT:      -7.1      3.465      6.886
REMARK  Name = 
REMARK  12 active torsions:
REMARK  status: ('A' for Active; 'I' for Inactive)
REMARK    1  A    between atoms: C_1  and  C_2
REMARK    2  A    between atoms: C_2  and  C_3
REMARK    3  A    between atoms: C_3  and  C_4
REMARK    4  A    between atoms: C_3  and  C_5
REMARK    5  A    between atoms: C_3  and  C_12
REMARK    6  A    between atoms: C_8  and  O_9
REMARK    7  A    between atoms: C_12  and  C_13
REMARK    8  A    between atoms: C_12  and  C_18
REMARK    9  A    between atoms: C_13  and  C_14
REMARK   10  A    between atoms: C_14  and  C_15
REMARK   11  A    between atoms: C_15  and  C_16
REMARK   12  A    between atoms: C_21  and  O_22
REMARK                            x       y       z     vdW  Elec       q    Type
REMARK                         _______ _______ _______ _____ _____    ______ ____
ROOT
ATOM      1  C   UNL     1       3.690   6.363  17.443  0.00  0.00    +0.000 C 
ENDROOT
BRANCH   1   2
ATOM      2  C   UNL     1       2.785   5.516  18.364  0.00  0.00    +0.000 A 
ATOM      3  C   UNL     1       2.789   5.727  19.755  0.00  0.00    +0.000 A 
ATOM      4  C   UNL     1       2.091   4.870  20.627  0.00  0.00    +0.000 A 
ATOM      5  C   UNL     1       1.362   3.808  20.103  0.00  0.00    +0.000 A 
ATOM      6  C   UNL     1       1.310   3.593  18.736  0.00  0.00    +0.000 A 
ATOM      7  C   UNL     1       2.040   4.421  17.880  0.00  0.00    +0.000 A 
BRANCH   5   8
ATOM      8  O   UNL     1       0.677   2.938  20.908  0.00  0.00    +0.000 OA
ATOM      9  H   UNL     1       1.307   2.282  21.255  0.00  0.00    +0.000 HD
ENDBRANCH   5   8
ENDBRANCH   1   2
BRANCH   1  10
ATOM     10  C   UNL     1       5.266   6.006  17.336  0.00  0.00    +0.000 C 
ATOM     11  C   UNL     1       6.107   7.308  17.455  0.00  0.00    +0.000 C 
BRANCH  10  12
ATOM     12  C   UNL     1       5.659   5.301  16.000  0.00  0.00    +0.000 A 
ATOM     13  C   UNL     1       6.928   5.434  15.399  0.00  0.00    +0.000 A 
ATOM     14  C   UNL     1       7.265   4.758  14.218  0.00  0.00    +0.000 A 
ATOM     15  C   UNL     1       6.341   3.910  13.627  0.00  0.00    +0.000 A 
ATOM     16  C   UNL     1       5.074   3.781  14.165  0.00  0.00    +0.000 A 
ATOM     17  C   UNL     1       4.726   4.507  15.308  0.00  0.00    +0.000 A 
BRANCH  15  18
ATOM     18  O   UNL     1       6.639   3.196  12.507  0.00  0.00    +0.000 OA
ATOM     19  H   UNL     1       6.548   3.778  11.736  0.00  0.00    +0.000 HD
ENDBRANCH  15  18
ENDBRANCH  10  12
BRANCH  10  21
ATOM     20  C   UNL     1       6.994   5.473  19.303  0.00  0.00    +0.000 C 
ATOM     21  C   UNL     1       5.714   5.101  18.561  0.00  0.00    +0.000 C 
ENDBRANCH  10  21
ENDBRANCH   1  10
BRANCH   1  22
ATOM     22  C   UNL     1       3.432   7.874  17.721  0.00  0.00    +0.000 C 
BRANCH  22  23
ATOM     23  C   UNL     1       1.949   8.282  17.647  0.00  0.00    +0.000 C 
BRANCH  23  24
ATOM     24  C   UNL     1       1.783   9.751  18.047  0.00  0.00    +0.000 C 
BRANCH  24  25
ATOM     25  C   UNL     1       0.793   9.917  19.199  0.00  0.00    +0.000 C 
ATOM     26  I   UNL     1      -1.102  10.582  18.453  0.00  0.00    +0.000 I 
ENDBRANCH  24  25
ENDBRANCH  23  24
ENDBRANCH  22  23
ENDBRANCH   1  22
TORSDOF 10
ENDMDL
MODEL 3
REMARK VINA RESULT:      -7.1      3.585      6.998
REMARK  Name = 
REMARK  12 active torsions:
REMARK  status: ('A' for Active; 'I' for Inactive)
REMARK    1  A    between atoms: C_1  and  C_2
REMARK    2  A    between atoms: C_2  and  C_3
REMARK    3  A    between atoms: C_3  and  C_4
REMARK    4  A    between atoms: C_3  and  C_5
REMARK    5  A    between atoms: C_3  and  C_12
REMARK    6  A    between atoms: C_8  and  O_9
REMARK    7  A    between atoms: C_12  and  C_13
REMARK    8  A    between atoms: C_12  and  C_18
REMARK    9  A    between atoms: C_13  and  C_14
REMARK   10  A    between atoms: C_14  and  C_15
REMARK   11  A    between atoms: C_15  and  C_16
REMARK   12  A    between atoms: C_21  and  O_22
REMARK                            x       y       z     vdW  Elec       q    Type
REMARK                         _______ _______ _______ _____ _____    ______ ____
ROOT
ATOM      1  C   UNL     1       3.923   6.227  17.484  0.00  0.00    +0.000 C 
ENDROOT
BRANCH   1   2
ATOM      2  C   UNL     1       3.099   5.283  18.387  0.00  0.00    +0.000 A 
ATOM      3  C   UNL     1       2.298   4.275  17.819  0.00  0.00    +0.000 A 
ATOM      4  C   UNL     1       1.424   3.505  18.608  0.00  0.00    +0.000 A 
ATOM      5  C   UNL     1       1.367   3.725  19.980  0.00  0.00    +0.000 A 
ATOM      6  C   UNL     1       2.167   4.687  20.574  0.00  0.00    +0.000 A 
ATOM      7  C   UNL     1       3.000   5.478  19.780  0.00  0.00    +0.000 A 
BRANCH   5   8
ATOM      8  O   UNL     1       0.523   3.013  20.789  0.00  0.00    +0.000 OA
ATOM      9  H   UNL     1       0.891   3.013  21.690  0.00  0.00    +0.000 HD
ENDBRANCH   5   8
ENDBRANCH   1   2
BRANCH   1  10
ATOM     10  C   UNL     1       5.501   5.933  17.262  0.00  0.00    +0.000 C 
ATOM     11  C   UNL     1       6.293   7.270  17.300  0.00  0.00    +0.000 C 
BRANCH  10  12
ATOM     12  C   UNL     1       5.820   5.223  15.910  0.00  0.00    +0.000 A 
ATOM     13  C   UNL     1       4.888   4.424  15.216  0.00  0.00    +0.000 A 
ATOM     14  C   UNL     1       5.192   3.830  13.982  0.00  0.00    +0.000 A 
ATOM     15  C   UNL     1       6.432   4.048  13.405  0.00  0.00    +0.000 A 
ATOM     16  C   UNL     1       7.387   4.795  14.070  0.00  0.00    +0.000 A 
ATOM     17  C   UNL     1       7.097   5.332  15.327  0.00  0.00    +0.000 A 
BRANCH  15  18
ATOM     18  O   UNL     1       6.755   3.531  12.187  0.00  0.00    +0.000 OA
ATOM     19  H   UNL     1       7.598   3.057  12.265  0.00  0.00    +0.000 HD
ENDBRANCH  15  18
ENDBRANCH  10  12
BRANCH  10  21
ATOM     20  C   UNL     1       7.331   5.565  19.174  0.00  0.00    +0.000 C 
ATOM     21  C   UNL     1       6.077   5.067  18.462  0.00  0.00    +0.000 C 
ENDBRANCH  10  21
ENDBRANCH   1  10
BRANCH   1  22
ATOM     22  C   UNL     1       3.637   7.703  17.890  0.00  0.00    +0.000 C 
BRANCH  22  23
ATOM     23  C   UNL     1       2.193   8.163  17.613  0.00  0.00    +0.000 C 
BRANCH  23  24
ATOM     24  C   UNL     1       1.643   8.937  18.814  0.00  0.00    +0.000 C 
BRANCH  24  25
ATOM     25  C   UNL     1       0.548   9.919  18.404  0.00  0.00    +0.000 C 
ATOM     26  I   UNL     1      -0.342  10.801  20.142  0.00  0.00    +0.000 I 
ENDBRANCH  24  25
ENDBRANCH  23  24
ENDBRANCH  22  23
ENDBRANCH   1  22
TORSDOF 10
ENDMDL
MODEL 4
REMARK VINA RESULT:      -7.1      3.542      6.959
REMARK  Name = 
REMARK  12 active torsions:
REMARK  status: ('A' for Active; 'I' for Inactive)
REMARK    1  A    between atoms: C_1  and  C_2
REMARK    2  A    between atoms: C_2  and  C_3
REMARK    3  A    between atoms: C_3  and  C_4
REMARK    4  A    between atoms: C_3  and  C_5
REMARK    5  A    between atoms: C_3  and  C_12
REMARK    6  A    between atoms: C_8  and  O_9
REMARK    7  A    between atoms: C_12  and  C_13
REMARK    8  A    between atoms: C_12  and  C_18
REMARK    9  A    between atoms: C_13  and  C_14
REMARK   10  A    between atoms: C_14  and  C_15
REMARK   11  A    between atoms: C_15  and  C_16
REMARK   12  A    between atoms: C_21  and  O_22
REMARK                            x       y       z     vdW  Elec       q    Type
REMARK                         _______ _______ _______ _____ _____    ______ ____
ROOT
ATOM      1  C   UNL     1       3.915   6.119  17.448  0.00  0.00    +0.000 C 
ENDROOT
BRANCH   1   2
ATOM      2  C   UNL     1       3.106   5.191  18.378  0.00  0.00    +0.000 A 
ATOM      3  C   UNL     1       2.223   4.236  17.839  0.00  0.00    +0.000 A 
ATOM      4  C   UNL     1       1.365   3.486  18.663  0.00  0.00    +0.000 A 
ATOM      5  C   UNL     1       1.404   3.671  20.042  0.00  0.00    +0.000 A 
ATOM      6  C   UNL     1       2.285   4.579  20.606  0.00  0.00    +0.000 A 
ATOM      7  C   UNL     1       3.103   5.352  19.779  0.00  0.00    +0.000 A 
BRANCH   5   8
ATOM      8  O   UNL     1       0.581   2.977  20.885  0.00  0.00    +0.000 OA
ATOM      9  H   UNL     1       1.124   2.357  21.402  0.00  0.00    +0.000 HD
ENDBRANCH   5   8
ENDBRANCH   1   2
BRANCH   1  10
ATOM     10  C   UNL     1       5.496   5.840  17.230  0.00  0.00    +0.000 C 
ATOM     11  C   UNL     1       6.284   7.176  17.335  0.00  0.00    +0.000 C 
BRANCH  10  12
ATOM     12  C   UNL     1       5.832   5.192  15.851  0.00  0.00    +0.000 A 
ATOM     13  C   UNL     1       7.096   5.300  15.233  0.00  0.00    +0.000 A 
ATOM     14  C   UNL     1       7.381   4.674  14.011  0.00  0.00    +0.000 A 
ATOM     15  C   UNL     1       6.409   3.902  13.395  0.00  0.00    +0.000 A 
ATOM     16  C   UNL     1       5.146   3.800  13.950  0.00  0.00    +0.000 A 
ATOM     17  C   UNL     1       4.853   4.479  15.136  0.00  0.00    +0.000 A 
BRANCH  15  18
ATOM     18  O   UNL     1       6.654   3.237  12.232  0.00  0.00    +0.000 OA
ATOM     19  H   UNL     1       6.135   3.649  11.524  0.00  0.00    +0.000 HD
ENDBRANCH  15  18
ENDBRANCH  10  12
BRANCH  10  21
ATOM     20  C   UNL     1       7.066   5.534  19.371  0.00  0.00    +0.000 C 
ATOM     21  C   UNL     1       6.063   4.924  18.396  0.00  0.00    +0.000 C 
ENDBRANCH  10  21
ENDBRANCH   1  10
BRANCH   1  22
ATOM     22  C   UNL     1       3.611   7.603  17.814  0.00  0.00    +0.000 C 
BRANCH  22  23
ATOM     23  C   UNL     1       2.127   7.992  17.675  0.00  0.00    +0.000 C 
BRANCH  23  24
ATOM     24  C   UNL     1       1.931   9.468  18.034  0.00  0.00    +0.000 C 
BRANCH  24  25
ATOM     25  C   UNL     1       0.966   9.645  19.204  0.00  0.00    +0.000 C 
ATOM     26  I   UNL     1       0.001  11.555  19.083  0.00  0.00    +0.000 I 
ENDBRANCH  24  25
ENDBRANCH  23  24
ENDBRANCH  22  23
ENDBRANCH   1  22
TORSDOF 10
ENDMDL
MODEL 5
REMARK VINA RESULT:      -7.0      0.828      1.366
REMARK  Name = 
REMARK  12 active torsions:
REMARK  status: ('A' for Active; 'I' for Inactive)
REMARK    1  A    between atoms: C_1  and  C_2
REMARK    2  A    between atoms: C_2  and  C_3
REMARK    3  A    between atoms: C_3  and  C_4
REMARK    4  A    between atoms: C_3  and  C_5
REMARK    5  A    between atoms: C_3  and  C_12
REMARK    6  A    between atoms: C_8  and  O_9
REMARK    7  A    between atoms: C_12  and  C_13
REMARK    8  A    between atoms: C_12  and  C_18
REMARK    9  A    between atoms: C_13  and  C_14
REMARK   10  A    between atoms: C_14  and  C_15
REMARK   11  A    between atoms: C_15  and  C_16
REMARK   12  A    between atoms: C_21  and  O_22
REMARK                            x       y       z     vdW  Elec       q    Type
REMARK                         _______ _______ _______ _____ _____    ______ ____
ROOT
ATOM      1  C   UNL     1       4.697   4.866  16.778  0.00  0.00    +0.000 C 
ENDROOT
BRANCH   1   2
ATOM      2  C   UNL     1       5.912   5.647  17.324  0.00  0.00    +0.000 A 
ATOM      3  C   UNL     1       6.677   5.123  18.383  0.00  0.00    +0.000 A 
ATOM      4  C   UNL     1       7.692   5.881  18.996  0.00  0.00    +0.000 A 
ATOM      5  C   UNL     1       7.962   7.165  18.533  0.00  0.00    +0.000 A 
ATOM      6  C   UNL     1       7.249   7.696  17.472  0.00  0.00    +0.000 A 
ATOM      7  C   UNL     1       6.215   6.955  16.896  0.00  0.00    +0.000 A 
BRANCH   5   8
ATOM      8  O   UNL     1       8.929   7.947  19.105  0.00  0.00    +0.000 OA
ATOM      9  H   UNL     1       9.571   7.366  19.547  0.00  0.00    +0.000 HD
ENDBRANCH   5   8
ENDBRANCH   1   2
BRANCH   1  10
ATOM     10  C   UNL     1       3.583   4.309  17.815  0.00  0.00    +0.000 C 
ATOM     11  C   UNL     1       2.465   3.565  17.032  0.00  0.00    +0.000 C 
BRANCH  10  12
ATOM     12  C   UNL     1       2.909   5.427  18.669  0.00  0.00    +0.000 A 
ATOM     13  C   UNL     1       2.390   5.206  19.962  0.00  0.00    +0.000 A 
ATOM     14  C   UNL     1       1.824   6.240  20.722  0.00  0.00    +0.000 A 
ATOM     15  C   UNL     1       1.790   7.526  20.209  0.00  0.00    +0.000 A 
ATOM     16  C   UNL     1       2.255   7.777  18.931  0.00  0.00    +0.000 A 
ATOM     17  C   UNL     1       2.760   6.729  18.157  0.00  0.00    +0.000 A 
BRANCH  15  18
ATOM     18  O   UNL     1       1.293   8.571  20.928  0.00  0.00    +0.000 OA
ATOM     19  H   UNL     1       0.326   8.567  20.852  0.00  0.00    +0.000 HD
ENDBRANCH  15  18
ENDBRANCH  10  12
BRANCH  10  21
ATOM     20  C   UNL     1       3.664   1.799  18.728  0.00  0.00    +0.000 C 
ATOM     21  C   UNL     1       4.219   3.219  18.778  0.00  0.00    +0.000 C 
ENDBRANCH  10  21
ENDBRANCH   1  10
BRANCH   1  22
ATOM     22  C   UNL     1       5.194   3.774  15.784  0.00  0.00    +0.000 C 
BRANCH  22  23
ATOM     23  C   UNL     1       5.283   4.251  14.322  0.00  0.00    +0.000 C 
BRANCH  23  24
ATOM     24  C   UNL     1       6.700   4.038  13.781  0.00  0.00    +0.000 C 
BRANCH  24  25
ATOM     25  C   UNL     1       6.705   3.826  12.269  0.00  0.00    +0.000 C 
ATOM     26  I   UNL     1       4.797   3.102  11.619  0.00  0.00    +0.000 I 
ENDBRANCH  24  25
ENDBRANCH  23  24
ENDBRANCH  22  23
ENDBRANCH   1  22
TORSDOF 10
ENDMDL
MODEL 6
REMARK VINA RESULT:      -7.0      3.605      6.972
REMARK  Name = 
REMARK  12 active torsions:
REMARK  status: ('A' for Active; 'I' for Inactive)
REMARK    1  A    between atoms: C_1  and  C_2
REMARK    2  A    between atoms: C_2  and  C_3
REMARK    3  A    between atoms: C_3  and  C_4
REMARK    4  A    between atoms: C_3  and  C_5
REMARK    5  A    between atoms: C_3  and  C_12
REMARK    6  A    between atoms: C_8  and  O_9
REMARK    7  A    between atoms: C_12  and  C_13
REMARK    8  A    between atoms: C_12  and  C_18
REMARK    9  A    between atoms: C_13  and  C_14
REMARK   10  A    between atoms: C_14  and  C_15
REMARK   11  A    between atoms: C_15  and  C_16
REMARK   12  A    between atoms: C_21  and  O_22
REMARK                            x       y       z     vdW  Elec       q    Type
REMARK                         _______ _______ _______ _____ _____    ______ ____
ROOT
ATOM      1  C   UNL     1       3.628   6.413  17.608  0.00  0.00    +0.000 C 
ENDROOT
BRANCH   1   2
ATOM      2  C   UNL     1       2.719   5.520  18.481  0.00  0.00    +0.000 A 
ATOM      3  C   UNL     1       2.567   5.787  19.854  0.00  0.00    +0.000 A 
ATOM      4  C   UNL     1       1.869   4.903  20.697  0.00  0.00    +0.000 A 
ATOM      5  C   UNL     1       1.297   3.753  20.161  0.00  0.00    +0.000 A 
ATOM      6  C   UNL     1       1.402   3.478  18.808  0.00  0.00    +0.000 A 
ATOM      7  C   UNL     1       2.132   4.338  17.984  0.00  0.00    +0.000 A 
BRANCH   5   8
ATOM      8  O   UNL     1       0.621   2.854  20.941  0.00  0.00    +0.000 OA
ATOM      9  H   UNL     1      -0.333   2.995  20.813  0.00  0.00    +0.000 HD
ENDBRANCH   5   8
ENDBRANCH   1   2
BRANCH   1  10
ATOM     10  C   UNL     1       5.209   6.077  17.509  0.00  0.00    +0.000 C 
ATOM     11  C   UNL     1       6.027   7.399  17.509  0.00  0.00    +0.000 C 
BRANCH  10  12
ATOM     12  C   UNL     1       5.598   5.272  16.230  0.00  0.00    +0.000 A 
ATOM     13  C   UNL     1       4.788   4.257  15.678  0.00  0.00    +0.000 A 
ATOM     14  C   UNL     1       5.147   3.577  14.505  0.00  0.00    +0.000 A 
ATOM     15  C   UNL     1       6.315   3.920  13.844  0.00  0.00    +0.000 A 
ATOM     16  C   UNL     1       7.154   4.885  14.372  0.00  0.00    +0.000 A 
ATOM     17  C   UNL     1       6.820   5.514  15.574  0.00  0.00    +0.000 A 
BRANCH  15  18
ATOM     18  O   UNL     1       6.680   3.321  12.677  0.00  0.00    +0.000 OA
ATOM     19  H   UNL     1       7.515   2.849  12.819  0.00  0.00    +0.000 HD
ENDBRANCH  15  18
ENDBRANCH  10  12
BRANCH  10  21
ATOM     20  C   UNL     1       7.106   5.526  19.308  0.00  0.00    +0.000 C 
ATOM     21  C   UNL     1       5.689   5.284  18.798  0.00  0.00    +0.000 C 
ENDBRANCH  10  21
ENDBRANCH   1  10
BRANCH   1  22
ATOM     22  C   UNL     1       3.350   7.909  17.944  0.00  0.00    +0.000 C 
BRANCH  22  23
ATOM     23  C   UNL     1       1.943   8.392  17.543  0.00  0.00    +0.000 C 
BRANCH  23  24
ATOM     24  C   UNL     1       1.554   9.626  18.362  0.00  0.00    +0.000 C 
BRANCH  24  25
ATOM     25  C   UNL     1       1.138   9.256  19.784  0.00  0.00    +0.000 C 
ATOM     26  I   UNL     1       0.279  10.954  20.767  0.00  0.00    +0.000 I 
ENDBRANCH  24  25
ENDBRANCH  23  24
ENDBRANCH  22  23
ENDBRANCH   1  22
TORSDOF 10
ENDMDL
MODEL 7
REMARK VINA RESULT:      -6.8      3.016      6.312
REMARK  Name = 
REMARK  12 active torsions:
REMARK  status: ('A' for Active; 'I' for Inactive)
REMARK    1  A    between atoms: C_1  and  C_2
REMARK    2  A    between atoms: C_2  and  C_3
REMARK    3  A    between atoms: C_3  and  C_4
REMARK    4  A    between atoms: C_3  and  C_5
REMARK    5  A    between atoms: C_3  and  C_12
REMARK    6  A    between atoms: C_8  and  O_9
REMARK    7  A    between atoms: C_12  and  C_13
REMARK    8  A    between atoms: C_12  and  C_18
REMARK    9  A    between atoms: C_13  and  C_14
REMARK   10  A    between atoms: C_14  and  C_15
REMARK   11  A    between atoms: C_15  and  C_16
REMARK   12  A    between atoms: C_21  and  O_22
REMARK                            x       y       z     vdW  Elec       q    Type
REMARK                         _______ _______ _______ _____ _____    ______ ____
ROOT
ATOM      1  C   UNL     1       3.277   5.398  17.563  0.00  0.00    +0.000 C 
ENDROOT
BRANCH   1   2
ATOM      2  C   UNL     1       2.570   4.765  18.782  0.00  0.00    +0.000 A 
ATOM      3  C   UNL     1       3.089   4.946  20.077  0.00  0.00    +0.000 A 
ATOM      4  C   UNL     1       2.552   4.258  21.181  0.00  0.00    +0.000 A 
ATOM      5  C   UNL     1       1.473   3.400  20.995  0.00  0.00    +0.000 A 
ATOM      6  C   UNL     1       0.920   3.226  19.738  0.00  0.00    +0.000 A 
ATOM      7  C   UNL     1       1.484   3.878  18.639  0.00  0.00    +0.000 A 
BRANCH   5   8
ATOM      8  O   UNL     1       0.925   2.697  22.033  0.00  0.00    +0.000 OA
ATOM      9  H   UNL     1       1.646   2.280  22.535  0.00  0.00    +0.000 HD
ENDBRANCH   5   8
ENDBRANCH   1   2
BRANCH   1  10
ATOM     10  C   UNL     1       4.716   4.820  17.094  0.00  0.00    +0.000 C 
ATOM     11  C   UNL     1       4.909   3.381  17.650  0.00  0.00    +0.000 C 
BRANCH  10  12
ATOM     12  C   UNL     1       5.923   5.685  17.573  0.00  0.00    +0.000 A 
ATOM     13  C   UNL     1       6.350   6.854  16.907  0.00  0.00    +0.000 A 
ATOM     14  C   UNL     1       7.414   7.633  17.383  0.00  0.00    +0.000 A 
ATOM     15  C   UNL     1       8.058   7.270  18.555  0.00  0.00    +0.000 A 
ATOM     16  C   UNL     1       7.693   6.112  19.218  0.00  0.00    +0.000 A 
ATOM     17  C   UNL     1       6.673   5.308  18.703  0.00  0.00    +0.000 A 
BRANCH  15  18
ATOM     18  O   UNL     1       9.065   8.021  19.082  0.00  0.00    +0.000 OA
ATOM     19  H   UNL     1       9.470   8.538  18.368  0.00  0.00    +0.000 HD
ENDBRANCH  15  18
ENDBRANCH  10  12
BRANCH  10  21
ATOM     20  C   UNL     1       5.976   3.982  14.892  0.00  0.00    +0.000 C 
ATOM     21  C   UNL     1       4.767   4.672  15.515  0.00  0.00    +0.000 C 
ENDBRANCH  10  21
ENDBRANCH   1  10
BRANCH   1  22
ATOM     22  C   UNL     1       3.271   6.948  17.715  0.00  0.00    +0.000 C 
BRANCH  22  23
ATOM     23  C   UNL     1       2.111   7.491  18.570  0.00  0.00    +0.000 C 
BRANCH  23  24
ATOM     24  C   UNL     1       1.501   8.731  17.910  0.00  0.00    +0.000 C 
BRANCH  24  25
ATOM     25  C   UNL     1       1.279   9.859  18.916  0.00  0.00    +0.000 C 
ATOM     26  I   UNL     1       0.732   9.050  20.823  0.00  0.00    +0.000 I 
ENDBRANCH  24  25
ENDBRANCH  23  24
ENDBRANCH  22  23
ENDBRANCH   1  22
TORSDOF 10
ENDMDL
MODEL 8
REMARK VINA RESULT:      -6.7      3.138      6.453
REMARK  Name = 
REMARK  12 active torsions:
REMARK  status: ('A' for Active; 'I' for Inactive)
REMARK    1  A    between atoms: C_1  and  C_2
REMARK    2  A    between atoms: C_2  and  C_3
REMARK    3  A    between atoms: C_3  and  C_4
REMARK    4  A    between atoms: C_3  and  C_5
REMARK    5  A    between atoms: C_3  and  C_12
REMARK    6  A    between atoms: C_8  and  O_9
REMARK    7  A    between atoms: C_12  and  C_13
REMARK    8  A    between atoms: C_12  and  C_18
REMARK    9  A    between atoms: C_13  and  C_14
REMARK   10  A    between atoms: C_14  and  C_15
REMARK   11  A    between atoms: C_15  and  C_16
REMARK   12  A    between atoms: C_21  and  O_22
REMARK                            x       y       z     vdW  Elec       q    Type
REMARK                         _______ _______ _______ _____ _____    ______ ____
ROOT
ATOM      1  C   UNL     1       3.699   5.918  17.367  0.00  0.00    +0.000 C 
ENDROOT
BRANCH   1   2
ATOM      2  C   UNL     1       2.952   5.000  18.359  0.00  0.00    +0.000 A 
ATOM      3  C   UNL     1       1.979   4.095  17.896  0.00  0.00    +0.000 A 
ATOM      4  C   UNL     1       1.180   3.360  18.791  0.00  0.00    +0.000 A 
ATOM      5  C   UNL     1       1.368   3.512  20.161  0.00  0.00    +0.000 A 
ATOM      6  C   UNL     1       2.339   4.370  20.648  0.00  0.00    +0.000 A 
ATOM      7  C   UNL     1       3.100   5.129  19.755  0.00  0.00    +0.000 A 
BRANCH   5   8
ATOM      8  O   UNL     1       0.607   2.831  21.072  0.00  0.00    +0.000 OA
ATOM      9  H   UNL     1       0.447   3.415  21.833  0.00  0.00    +0.000 HD
ENDBRANCH   5   8
ENDBRANCH   1   2
BRANCH   1  10
ATOM     10  C   UNL     1       5.178   5.495  16.858  0.00  0.00    +0.000 C 
ATOM     11  C   UNL     1       5.472   4.024  17.266  0.00  0.00    +0.000 C 
BRANCH  10  12
ATOM     12  C   UNL     1       6.318   6.390  17.436  0.00  0.00    +0.000 A 
ATOM     13  C   UNL     1       6.599   7.688  16.960  0.00  0.00    +0.000 A 
ATOM     14  C   UNL     1       7.606   8.484  17.525  0.00  0.00    +0.000 A 
ATOM     15  C   UNL     1       8.336   8.004  18.600  0.00  0.00    +0.000 A 
ATOM     16  C   UNL     1       8.116   6.723  19.073  0.00  0.00    +0.000 A 
ATOM     17  C   UNL     1       7.153   5.913  18.463  0.00  0.00    +0.000 A 
BRANCH  15  18
ATOM     18  O   UNL     1       9.291   8.758  19.212  0.00  0.00    +0.000 OA
ATOM     19  H   UNL     1       9.695   9.341  18.550  0.00  0.00    +0.000 HD
ENDBRANCH  15  18
ENDBRANCH  10  12
BRANCH  10  21
ATOM     20  C   UNL     1       5.766   4.272  14.556  0.00  0.00    +0.000 C 
ATOM     21  C   UNL     1       5.244   5.514  15.272  0.00  0.00    +0.000 C 
ENDBRANCH  10  21
ENDBRANCH   1  10
BRANCH   1  22
ATOM     22  C   UNL     1       3.638   7.387  17.882  0.00  0.00    +0.000 C 
BRANCH  22  23
ATOM     23  C   UNL     1       2.301   8.097  17.596  0.00  0.00    +0.000 C 
BRANCH  23  24
ATOM     24  C   UNL     1       1.706   8.650  18.894  0.00  0.00    +0.000 C 
BRANCH  24  25
ATOM     25  C   UNL     1       0.836   9.880  18.642  0.00  0.00    +0.000 C 
ATOM     26  I   UNL     1       0.315  10.809  20.500  0.00  0.00    +0.000 I 
ENDBRANCH  24  25
ENDBRANCH  23  24
ENDBRANCH  22  23
ENDBRANCH   1  22
TORSDOF 10
ENDMDL
MODEL 9
REMARK VINA RESULT:      -6.7      2.789      6.138
REMARK  Name = 
REMARK  12 active torsions:
REMARK  status: ('A' for Active; 'I' for Inactive)
REMARK    1  A    between atoms: C_1  and  C_2
REMARK    2  A    between atoms: C_2  and  C_3
REMARK    3  A    between atoms: C_3  and  C_4
REMARK    4  A    between atoms: C_3  and  C_5
REMARK    5  A    between atoms: C_3  and  C_12
REMARK    6  A    between atoms: C_8  and  O_9
REMARK    7  A    between atoms: C_12  and  C_13
REMARK    8  A    between atoms: C_12  and  C_18
REMARK    9  A    between atoms: C_13  and  C_14
REMARK   10  A    between atoms: C_14  and  C_15
REMARK   11  A    between atoms: C_15  and  C_16
REMARK   12  A    between atoms: C_21  and  O_22
REMARK                            x       y       z     vdW  Elec       q    Type
REMARK                         _______ _______ _______ _____ _____    ______ ____
ROOT
ATOM      1  C   UNL     1       3.470   5.862  18.503  0.00  0.00    +0.000 C 
ENDROOT
BRANCH   1   2
ATOM      2  C   UNL     1       2.701   7.175  18.767  0.00  0.00    +0.000 A 
ATOM      3  C   UNL     1       2.151   7.434  20.036  0.00  0.00    +0.000 A 
ATOM      4  C   UNL     1       1.320   8.548  20.259  0.00  0.00    +0.000 A 
ATOM      5  C   UNL     1       1.055   9.424  19.211  0.00  0.00    +0.000 A 
ATOM      6  C   UNL     1       1.607   9.215  17.959  0.00  0.00    +0.000 A 
ATOM      7  C   UNL     1       2.396   8.084  17.734  0.00  0.00    +0.000 A 
BRANCH   5   8
ATOM      8  O   UNL     1       0.241  10.513  19.372  0.00  0.00    +0.000 OA
ATOM      9  H   UNL     1      -0.096  10.510  20.285  0.00  0.00    +0.000 HD
ENDBRANCH   5   8
ENDBRANCH   1   2
BRANCH   1  10
ATOM     10  C   UNL     1       5.029   5.931  18.066  0.00  0.00    +0.000 C 
ATOM     11  C   UNL     1       5.483   7.415  17.981  0.00  0.00    +0.000 C 
BRANCH  10  12
ATOM     12  C   UNL     1       5.322   5.260  16.688  0.00  0.00    +0.000 A 
ATOM     13  C   UNL     1       5.278   5.958  15.462  0.00  0.00    +0.000 A 
ATOM     14  C   UNL     1       5.585   5.337  14.243  0.00  0.00    +0.000 A 
ATOM     15  C   UNL     1       5.968   4.005  14.230  0.00  0.00    +0.000 A 
ATOM     16  C   UNL     1       5.989   3.277  15.406  0.00  0.00    +0.000 A 
ATOM     17  C   UNL     1       5.622   3.888  16.608  0.00  0.00    +0.000 A 
BRANCH  15  18
ATOM     18  O   UNL     1       6.321   3.373  13.077  0.00  0.00    +0.000 OA
ATOM     19  H   UNL     1       6.638   2.483  13.297  0.00  0.00    +0.000 HD
ENDBRANCH  15  18
ENDBRANCH  10  12
BRANCH  10  21
ATOM     20  C   UNL     1       7.409   5.701  19.258  0.00  0.00    +0.000 C 
ATOM     21  C   UNL     1       5.947   5.272  19.180  0.00  0.00    +0.000 C 
ENDBRANCH  10  21
ENDBRANCH   1  10
BRANCH   1  22
ATOM     22  C   UNL     1       2.622   4.951  17.566  0.00  0.00    +0.000 C 
BRANCH  22  23
ATOM     23  C   UNL     1       1.940   3.772  18.285  0.00  0.00    +0.000 C 
BRANCH  23  24
ATOM     24  C   UNL     1       2.917   2.601  18.428  0.00  0.00    +0.000 C 
BRANCH  24  25
ATOM     25  C   UNL     1       3.404   2.439  19.866  0.00  0.00    +0.000 C 
ATOM     26  I   UNL     1       1.984   3.288  21.227  0.00  0.00    +0.000 I 
ENDBRANCH  24  25
ENDBRANCH  23  24
ENDBRANCH  22  23
ENDBRANCH   1  22
TORSDOF 10
ENDMDL
