MODEL 1
REMARK VINA RESULT:      -7.7      0.000      0.000
REMARK  Name = 
REMARK  15 active torsions:
REMARK  status: ('A' for Active; 'I' for Inactive)
REMARK    1  A    between atoms: C_1  and  C_2
REMARK    2  A    between atoms: C_2  and  C_3
REMARK    3  A    between atoms: C_3  and  C_4
REMARK    4  A    between atoms: C_4  and  C_5
REMARK    5  A    between atoms: C_5  and  C_6
REMARK    6  A    between atoms: C_6  and  C_7
REMARK    7  A    between atoms: C_6  and  C_12
REMARK    8  A    between atoms: C_7  and  N_8
REMARK    9  A    between atoms: N_8  and  O_9
REMARK   10  A    between atoms: N_14  and  C_15
REMARK   11  A    between atoms: C_15  and  N_16
REMARK   12  A    between atoms: C_17  and  C_19
REMARK   13  A    between atoms: C_23  and  C_24
REMARK   14  A    between atoms: C_28  and  O_29
REMARK   15  A    between atoms: O_29  and  C_30
REMARK                            x       y       z     vdW  Elec       q    Type
REMARK                         _______ _______ _______ _____ _____    ______ ____
ROOT
ATOM      1  N   UNL     1       3.428   5.351  19.882  0.00  0.00    +0.000 N 
ATOM      2  C   UNL     1       3.628   4.617  18.728  0.00  0.00    +0.000 C 
ATOM      3  O   UNL     1       2.741   3.958  18.195  0.00  0.00    +0.000 OA
ATOM      4  H   UNL     1       4.044   6.125  20.087  0.00  0.00    +0.000 HD
ENDROOT
BRANCH   2   5
ATOM      5  C   UNL     1       4.984   4.659  18.130  0.00  0.00    +0.000 A 
ATOM      6  C   UNL     1       6.054   5.045  18.944  0.00  0.00    +0.000 A 
ATOM      7  C   UNL     1       7.325   5.182  18.398  0.00  0.00    +0.000 A 
ATOM      8  C   UNL     1       7.521   4.957  17.035  0.00  0.00    +0.000 A 
ATOM      9  C   UNL     1       6.456   4.610  16.179  0.00  0.00    +0.000 A 
ATOM     10  C   UNL     1       5.185   4.436  16.761  0.00  0.00    +0.000 A 
BRANCH   9  11
ATOM     11  C   UNL     1       6.649   4.522  14.713  0.00  0.00    +0.000 A 
ATOM     12  C   UNL     1       7.604   5.298  14.033  0.00  0.00    +0.000 A 
ATOM     13  C   UNL     1       7.798   5.156  12.657  0.00  0.00    +0.000 A 
ATOM     14  C   UNL     1       7.029   4.247  11.931  0.00  0.00    +0.000 A 
ATOM     15  C   UNL     1       6.067   3.471  12.573  0.00  0.00    +0.000 A 
ATOM     16  C   UNL     1       5.895   3.605  13.952  0.00  0.00    +0.000 A 
BRANCH  15  17
ATOM     17  O   UNL     1       5.369   2.615  11.764  0.00  0.00    +0.000 OA
ATOM     18  C   UNL     1       4.141   3.099  11.232  0.00  0.00    +0.000 C 
ENDBRANCH  15  17
ENDBRANCH   9  11
ENDBRANCH   2   5
BRANCH   1  19
ATOM     19  C   UNL     1       2.093   5.437  20.392  0.00  0.00    +0.000 C 
BRANCH  19  22
ATOM     20  C   UNL     1       1.795   7.806  19.914  0.00  0.00    +0.000 C 
ATOM     21  O   UNL     1       2.159   7.657  18.746  0.00  0.00    +0.000 OA
ATOM     22  N   UNL     1       1.780   6.768  20.813  0.00  0.00    +0.000 N 
ATOM     23  H   UNL     1       1.634   6.928  21.798  0.00  0.00    +0.000 HD
BRANCH  20  24
ATOM     24  C   UNL     1       1.408   9.168  20.475  0.00  0.00    +0.000 C 
BRANCH  24  25
ATOM     25  C   UNL     1       1.068   9.094  21.984  0.00  0.00    +0.000 C 
BRANCH  25  26
ATOM     26  C   UNL     1      -0.441   9.226  22.245  0.00  0.00    +0.000 C 
BRANCH  26  27
ATOM     27  C   UNL     1      -0.775  10.251  23.335  0.00  0.00    +0.000 C 
BRANCH  27  29
ATOM     28  C   UNL     1      -2.442  12.131  22.986  0.00  0.00    +0.000 C 
ATOM     29  C   UNL     1      -1.039  11.622  22.703  0.00  0.00    +0.000 C 
ENDBRANCH  27  29
ENDBRANCH  26  27
ENDBRANCH  25  26
ENDBRANCH  24  25
BRANCH  24  30
ATOM     30  C   UNL     1       0.250   9.756  19.649  0.00  0.00    +0.000 C 
BRANCH  30  31
ATOM     31  N   UNL     1       0.397  11.161  19.269  0.00  0.00    +0.000 N 
ATOM     32  C   UNL     1      -0.748  11.942  19.161  0.00  0.00    +0.000 C 
ATOM     33  O   UNL     1      -1.894  11.526  19.055  0.00  0.00    +0.000 OA
BRANCH  31  34
ATOM     34  O   UNL     1       1.367  11.850  20.049  0.00  0.00    +0.000 OA
ATOM     35  H   UNL     1       1.307  12.758  19.684  0.00  0.00    +0.000 HD
ENDBRANCH  31  34
ENDBRANCH  30  31
ENDBRANCH  24  30
ENDBRANCH  20  24
ENDBRANCH  19  22
ENDBRANCH   1  19
TORSDOF 13
ENDMDL
MODEL 2
REMARK VINA RESULT:      -7.6      3.266      5.998
REMARK  Name = 
REMARK  15 active torsions:
REMARK  status: ('A' for Active; 'I' for Inactive)
REMARK    1  A    between atoms: C_1  and  C_2
REMARK    2  A    between atoms: C_2  and  C_3
REMARK    3  A    between atoms: C_3  and  C_4
REMARK    4  A    between atoms: C_4  and  C_5
REMARK    5  A    between atoms: C_5  and  C_6
REMARK    6  A    between atoms: C_6  and  C_7
REMARK    7  A    between atoms: C_6  and  C_12
REMARK    8  A    between atoms: C_7  and  N_8
REMARK    9  A    between atoms: N_8  and  O_9
REMARK   10  A    between atoms: N_14  and  C_15
REMARK   11  A    between atoms: C_15  and  N_16
REMARK   12  A    between atoms: C_17  and  C_19
REMARK   13  A    between atoms: C_23  and  C_24
REMARK   14  A    between atoms: C_28  and  O_29
REMARK   15  A    between atoms: O_29  and  C_30
REMARK                            x       y       z     vdW  Elec       q    Type
REMARK                         _______ _______ _______ _____ _____    ______ ____
ROOT
ATOM      1  N   UNL     1       0.833   9.451  22.447  0.00  0.00    +0.000 N 
ATOM      2  C   UNL     1       0.376   8.582  21.474  0.00  0.00    +0.000 C 
ATOM      3  O   UNL     1      -0.656   7.930  21.596  0.00  0.00    +0.000 OA
ATOM      4  H   UNL     1       1.459  10.199  22.184  0.00  0.00    +0.000 HD
ENDROOT
BRANCH   2   5
ATOM      5  C   UNL     1       1.187   8.465  20.240  0.00  0.00    +0.000 A 
ATOM      6  C   UNL     1       1.104   9.493  19.294  0.00  0.00    +0.000 A 
ATOM      7  C   UNL     1       1.781   9.378  18.085  0.00  0.00    +0.000 A 
ATOM      8  C   UNL     1       2.520   8.226  17.812  0.00  0.00    +0.000 A 
ATOM      9  C   UNL     1       2.588   7.154  18.725  0.00  0.00    +0.000 A 
ATOM     10  C   UNL     1       1.929   7.309  19.960  0.00  0.00    +0.000 A 
BRANCH   9  11
ATOM     11  C   UNL     1       3.249   5.879  18.360  0.00  0.00    +0.000 A 
ATOM     12  C   UNL     1       2.568   4.840  17.705  0.00  0.00    +0.000 A 
ATOM     13  C   UNL     1       3.231   3.669  17.328  0.00  0.00    +0.000 A 
ATOM     14  C   UNL     1       4.586   3.510  17.616  0.00  0.00    +0.000 A 
ATOM     15  C   UNL     1       5.289   4.516  18.274  0.00  0.00    +0.000 A 
ATOM     16  C   UNL     1       4.621   5.690  18.628  0.00  0.00    +0.000 A 
BRANCH  15  17
ATOM     17  O   UNL     1       6.611   4.252  18.508  0.00  0.00    +0.000 OA
ATOM     18  C   UNL     1       7.534   4.681  17.514  0.00  0.00    +0.000 C 
ENDBRANCH  15  17
ENDBRANCH   9  11
ENDBRANCH   2   5
BRANCH   1  19
ATOM     19  C   UNL     1      -0.010   9.684  23.580  0.00  0.00    +0.000 C 
BRANCH  19  22
ATOM     20  C   UNL     1      -1.203  11.657  22.799  0.00  0.00    +0.000 C 
ATOM     21  O   UNL     1      -0.176  12.339  22.828  0.00  0.00    +0.000 OA
ATOM     22  N   UNL     1      -1.221  10.345  23.202  0.00  0.00    +0.000 N 
ATOM     23  H   UNL     1      -2.089   9.845  23.324  0.00  0.00    +0.000 HD
BRANCH  20  24
ATOM     24  C   UNL     1      -2.549  12.238  22.386  0.00  0.00    +0.000 C 
BRANCH  24  25
ATOM     25  C   UNL     1      -2.437  13.091  21.099  0.00  0.00    +0.000 C 
BRANCH  25  26
ATOM     26  C   UNL     1      -2.892  12.317  19.850  0.00  0.00    +0.000 C 
BRANCH  26  27
ATOM     27  C   UNL     1      -1.759  11.528  19.185  0.00  0.00    +0.000 C 
BRANCH  27  29
ATOM     28  C   UNL     1      -3.136  10.205  17.514  0.00  0.00    +0.000 C 
ATOM     29  C   UNL     1      -2.084  11.284  17.708  0.00  0.00    +0.000 C 
ENDBRANCH  27  29
ENDBRANCH  26  27
ENDBRANCH  25  26
ENDBRANCH  24  25
BRANCH  24  30
ATOM     30  C   UNL     1      -3.150  13.035  23.558  0.00  0.00    +0.000 C 
BRANCH  30  31
ATOM     31  N   UNL     1      -4.602  13.212  23.521  0.00  0.00    +0.000 N 
ATOM     32  C   UNL     1      -5.108  14.473  23.228  0.00  0.00    +0.000 C 
ATOM     33  O   UNL     1      -4.489  15.527  23.288  0.00  0.00    +0.000 OA
BRANCH  31  34
ATOM     34  O   UNL     1      -5.261  12.240  22.719  0.00  0.00    +0.000 OA
ATOM     35  H   UNL     1      -4.716  12.253  21.904  0.00  0.00    +0.000 HD
ENDBRANCH  31  34
ENDBRANCH  30  31
ENDBRANCH  24  30
ENDBRANCH  20  24
ENDBRANCH  19  22
ENDBRANCH   1  19
TORSDOF 13
ENDMDL
MODEL 3
REMARK VINA RESULT:      -7.4      2.996      9.807
REMARK  Name = 
REMARK  15 active torsions:
REMARK  status: ('A' for Active; 'I' for Inactive)
REMARK    1  A    between atoms: C_1  and  C_2
REMARK    2  A    between atoms: C_2  and  C_3
REMARK    3  A    between atoms: C_3  and  C_4
REMARK    4  A    between atoms: C_4  and  C_5
REMARK    5  A    between atoms: C_5  and  C_6
REMARK    6  A    between atoms: C_6  and  C_7
REMARK    7  A    between atoms: C_6  and  C_12
REMARK    8  A    between atoms: C_7  and  N_8
REMARK    9  A    between atoms: N_8  and  O_9
REMARK   10  A    between atoms: N_14  and  C_15
REMARK   11  A    between atoms: C_15  and  N_16
REMARK   12  A    between atoms: C_17  and  C_19
REMARK   13  A    between atoms: C_23  and  C_24
REMARK   14  A    between atoms: C_28  and  O_29
REMARK   15  A    between atoms: O_29  and  C_30
REMARK                            x       y       z     vdW  Elec       q    Type
REMARK                         _______ _______ _______ _____ _____    ______ ____
ROOT
ATOM      1  N   UNL     1       1.651   8.212  19.555  0.00  0.00    +0.000 N 
ATOM      2  C   UNL     1       1.106   8.889  20.630  0.00  0.00    +0.000 C 
ATOM      3  O   UNL     1       1.213   8.497  21.787  0.00  0.00    +0.000 OA
ATOM      4  H   UNL     1       1.843   8.717  18.702  0.00  0.00    +0.000 HD
ENDROOT
BRANCH   2   5
ATOM      5  C   UNL     1       0.375  10.144  20.336  0.00  0.00    +0.000 A 
ATOM      6  C   UNL     1       0.576  11.241  21.182  0.00  0.00    +0.000 A 
ATOM      7  C   UNL     1      -0.157  12.406  20.990  0.00  0.00    +0.000 A 
ATOM      8  C   UNL     1      -1.108  12.467  19.971  0.00  0.00    +0.000 A 
ATOM      9  C   UNL     1      -1.366  11.365  19.130  0.00  0.00    +0.000 A 
ATOM     10  C   UNL     1      -0.582  10.210  19.314  0.00  0.00    +0.000 A 
BRANCH   9  11
ATOM     11  C   UNL     1      -2.479  11.393  18.153  0.00  0.00    +0.000 A 
ATOM     12  C   UNL     1      -2.303  11.052  16.801  0.00  0.00    +0.000 A 
ATOM     13  C   UNL     1      -3.383  11.037  15.915  0.00  0.00    +0.000 A 
ATOM     14  C   UNL     1      -4.658  11.381  16.362  0.00  0.00    +0.000 A 
ATOM     15  C   UNL     1      -4.866  11.734  17.692  0.00  0.00    +0.000 A 
ATOM     16  C   UNL     1      -3.784  11.725  18.575  0.00  0.00    +0.000 A 
BRANCH  15  17
ATOM     17  O   UNL     1      -6.156  12.055  18.020  0.00  0.00    +0.000 OA
ATOM     18  C   UNL     1      -6.957  11.010  18.560  0.00  0.00    +0.000 C 
ENDBRANCH  15  17
ENDBRANCH   9  11
ENDBRANCH   2   5
BRANCH   1  19
ATOM     19  C   UNL     1       2.479   7.079  19.834  0.00  0.00    +0.000 C 
BRANCH  19  22
ATOM     20  C   UNL     1       3.746   5.387  18.625  0.00  0.00    +0.000 C 
ATOM     21  O   UNL     1       4.521   5.233  19.572  0.00  0.00    +0.000 OA
ATOM     22  N   UNL     1       2.736   6.317  18.651  0.00  0.00    +0.000 N 
ATOM     23  H   UNL     1       2.210   6.545  17.821  0.00  0.00    +0.000 HD
BRANCH  20  24
ATOM     24  C   UNL     1       3.896   4.614  17.321  0.00  0.00    +0.000 C 
BRANCH  24  25
ATOM     25  C   UNL     1       3.588   3.108  17.507  0.00  0.00    +0.000 C 
BRANCH  25  26
ATOM     26  C   UNL     1       2.107   2.855  17.833  0.00  0.00    +0.000 C 
BRANCH  26  27
ATOM     27  C   UNL     1       1.905   1.897  19.012  0.00  0.00    +0.000 C 
BRANCH  27  29
ATOM     28  C   UNL     1       1.038   3.710  20.562  0.00  0.00    +0.000 C 
ATOM     29  C   UNL     1       2.098   2.645  20.336  0.00  0.00    +0.000 C 
ENDBRANCH  27  29
ENDBRANCH  26  27
ENDBRANCH  25  26
ENDBRANCH  24  25
BRANCH  24  30
ATOM     30  C   UNL     1       5.301   4.850  16.738  0.00  0.00    +0.000 C 
BRANCH  30  31
ATOM     31  N   UNL     1       5.702   6.251  16.608  0.00  0.00    +0.000 N 
ATOM     32  C   UNL     1       6.937   6.637  17.117  0.00  0.00    +0.000 C 
ATOM     33  O   UNL     1       7.608   6.011  17.927  0.00  0.00    +0.000 OA
BRANCH  31  34
ATOM     34  O   UNL     1       5.559   6.751  15.284  0.00  0.00    +0.000 OA
ATOM     35  H   UNL     1       5.489   5.922  14.766  0.00  0.00    +0.000 HD
ENDBRANCH  31  34
ENDBRANCH  30  31
ENDBRANCH  24  30
ENDBRANCH  20  24
ENDBRANCH  19  22
ENDBRANCH   1  19
TORSDOF 13
ENDMDL
MODEL 4
REMARK VINA RESULT:      -7.3      3.304      6.029
REMARK  Name = 
REMARK  15 active torsions:
REMARK  status: ('A' for Active; 'I' for Inactive)
REMARK    1  A    between atoms: C_1  and  C_2
REMARK    2  A    between atoms: C_2  and  C_3
REMARK    3  A    between atoms: C_3  and  C_4
REMARK    4  A    between atoms: C_4  and  C_5
REMARK    5  A    between atoms: C_5  and  C_6
REMARK    6  A    between atoms: C_6  and  C_7
REMARK    7  A    between atoms: C_6  and  C_12
REMARK    8  A    between atoms: C_7  and  N_8
REMARK    9  A    between atoms: N_8  and  O_9
REMARK   10  A    between atoms: N_14  and  C_15
REMARK   11  A    between atoms: C_15  and  N_16
REMARK   12  A    between atoms: C_17  and  C_19
REMARK   13  A    between atoms: C_23  and  C_24
REMARK   14  A    between atoms: C_28  and  O_29
REMARK   15  A    between atoms: O_29  and  C_30
REMARK                            x       y       z     vdW  Elec       q    Type
REMARK                         _______ _______ _______ _____ _____    ______ ____
ROOT
ATOM      1  N   UNL     1       0.616   9.684  22.357  0.00  0.00    +0.000 N 
ATOM      2  C   UNL     1       0.264   8.703  21.448  0.00  0.00    +0.000 C 
ATOM      3  O   UNL     1      -0.705   7.968  21.604  0.00  0.00    +0.000 OA
ATOM      4  H   UNL     1       1.175  10.465  22.046  0.00  0.00    +0.000 HD
ENDROOT
BRANCH   2   5
ATOM      5  C   UNL     1       1.111   8.571  20.239  0.00  0.00    +0.000 A 
ATOM      6  C   UNL     1       1.081   9.603  19.294  0.00  0.00    +0.000 A 
ATOM      7  C   UNL     1       1.792   9.475  18.107  0.00  0.00    +0.000 A 
ATOM      8  C   UNL     1       2.513   8.307  17.853  0.00  0.00    +0.000 A 
ATOM      9  C   UNL     1       2.528   7.232  18.765  0.00  0.00    +0.000 A 
ATOM     10  C   UNL     1       1.835   7.399  19.979  0.00  0.00    +0.000 A 
BRANCH   9  11
ATOM     11  C   UNL     1       3.171   5.943  18.417  0.00  0.00    +0.000 A 
ATOM     12  C   UNL     1       2.481   4.913  17.755  0.00  0.00    +0.000 A 
ATOM     13  C   UNL     1       3.128   3.729  17.394  0.00  0.00    +0.000 A 
ATOM     14  C   UNL     1       4.475   3.545  17.706  0.00  0.00    +0.000 A 
ATOM     15  C   UNL     1       5.185   4.541  18.371  0.00  0.00    +0.000 A 
ATOM     16  C   UNL     1       4.534   5.729  18.708  0.00  0.00    +0.000 A 
BRANCH  15  17
ATOM     17  O   UNL     1       6.498   4.254  18.628  0.00  0.00    +0.000 OA
ATOM     18  C   UNL     1       7.446   4.666  17.650  0.00  0.00    +0.000 C 
ENDBRANCH  15  17
ENDBRANCH   9  11
ENDBRANCH   2   5
BRANCH   1  19
ATOM     19  C   UNL     1      -0.270   9.920  23.456  0.00  0.00    +0.000 C 
BRANCH  19  22
ATOM     20  C   UNL     1      -0.980  12.061  22.539  0.00  0.00    +0.000 C 
ATOM     21  O   UNL     1       0.187  12.430  22.390  0.00  0.00    +0.000 OA
ATOM     22  N   UNL     1      -1.298  10.852  23.106  0.00  0.00    +0.000 N 
ATOM     23  H   UNL     1      -2.247  10.627  23.366  0.00  0.00    +0.000 HD
BRANCH  20  24
ATOM     24  C   UNL     1      -2.163  12.950  22.176  0.00  0.00    +0.000 C 
BRANCH  24  25
ATOM     25  C   UNL     1      -2.926  12.415  20.940  0.00  0.00    +0.000 C 
BRANCH  25  26
ATOM     26  C   UNL     1      -2.131  12.610  19.638  0.00  0.00    +0.000 C 
BRANCH  26  27
ATOM     27  C   UNL     1      -1.718  11.288  18.982  0.00  0.00    +0.000 C 
BRANCH  27  29
ATOM     28  C   UNL     1      -2.006   9.860  16.905  0.00  0.00    +0.000 C 
ATOM     29  C   UNL     1      -2.347  11.173  17.590  0.00  0.00    +0.000 C 
ENDBRANCH  27  29
ENDBRANCH  26  27
ENDBRANCH  25  26
ENDBRANCH  24  25
BRANCH  24  30
ATOM     30  C   UNL     1      -1.680  14.398  21.977  0.00  0.00    +0.000 C 
BRANCH  30  31
ATOM     31  N   UNL     1      -2.276  15.390  22.872  0.00  0.00    +0.000 N 
ATOM     32  C   UNL     1      -1.611  15.700  24.053  0.00  0.00    +0.000 C 
ATOM     33  O   UNL     1      -0.735  15.029  24.583  0.00  0.00    +0.000 OA
BRANCH  31  34
ATOM     34  O   UNL     1      -2.643  16.592  22.207  0.00  0.00    +0.000 OA
ATOM     35  H   UNL     1      -2.434  17.267  22.886  0.00  0.00    +0.000 HD
ENDBRANCH  31  34
ENDBRANCH  30  31
ENDBRANCH  24  30
ENDBRANCH  20  24
ENDBRANCH  19  22
ENDBRANCH   1  19
TORSDOF 13
ENDMDL
MODEL 5
REMARK VINA RESULT:      -7.2      2.218     11.422
REMARK  Name = 
REMARK  15 active torsions:
REMARK  status: ('A' for Active; 'I' for Inactive)
REMARK    1  A    between atoms: C_1  and  C_2
REMARK    2  A    between atoms: C_2  and  C_3
REMARK    3  A    between atoms: C_3  and  C_4
REMARK    4  A    between atoms: C_4  and  C_5
REMARK    5  A    between atoms: C_5  and  C_6
REMARK    6  A    between atoms: C_6  and  C_7
REMARK    7  A    between atoms: C_6  and  C_12
REMARK    8  A    between atoms: C_7  and  N_8
REMARK    9  A    between atoms: N_8  and  O_9
REMARK   10  A    between atoms: N_14  and  C_15
REMARK   11  A    between atoms: C_15  and  N_16
REMARK   12  A    between atoms: C_17  and  C_19
REMARK   13  A    between atoms: C_23  and  C_24
REMARK   14  A    between atoms: C_28  and  O_29
REMARK   15  A    between atoms: O_29  and  C_30
REMARK                            x       y       z     vdW  Elec       q    Type
REMARK                         _______ _______ _______ _____ _____    ______ ____
ROOT
ATOM      1  N   UNL     1       1.811   8.200  19.428  0.00  0.00    +0.000 N 
ATOM      2  C   UNL     1       1.245   9.459  19.499  0.00  0.00    +0.000 C 
ATOM      3  O   UNL     1       1.251  10.246  18.558  0.00  0.00    +0.000 OA
ATOM      4  H   UNL     1       1.494   7.482  20.064  0.00  0.00    +0.000 HD
ENDROOT
BRANCH   2   5
ATOM      5  C   UNL     1       0.602   9.838  20.780  0.00  0.00    +0.000 A 
ATOM      6  C   UNL     1       0.849   9.042  21.904  0.00  0.00    +0.000 A 
ATOM      7  C   UNL     1       0.195   9.313  23.100  0.00  0.00    +0.000 A 
ATOM      8  C   UNL     1      -0.722  10.362  23.167  0.00  0.00    +0.000 A 
ATOM      9  C   UNL     1      -1.025  11.155  22.041  0.00  0.00    +0.000 A 
ATOM     10  C   UNL     1      -0.321  10.890  20.851  0.00  0.00    +0.000 A 
BRANCH   9  11
ATOM     11  C   UNL     1      -2.108  12.165  22.086  0.00  0.00    +0.000 A 
ATOM     12  C   UNL     1      -2.307  13.100  21.056  0.00  0.00    +0.000 A 
ATOM     13  C   UNL     1      -3.369  14.007  21.102  0.00  0.00    +0.000 A 
ATOM     14  C   UNL     1      -4.242  14.008  22.190  0.00  0.00    +0.000 A 
ATOM     15  C   UNL     1      -4.066  13.102  23.232  0.00  0.00    +0.000 A 
ATOM     16  C   UNL     1      -3.014  12.186  23.166  0.00  0.00    +0.000 A 
BRANCH  15  17
ATOM     17  O   UNL     1      -4.978  13.193  24.249  0.00  0.00    +0.000 OA
ATOM     18  C   UNL     1      -6.352  13.137  23.881  0.00  0.00    +0.000 C 
ENDBRANCH  15  17
ENDBRANCH   9  11
ENDBRANCH   2   5
BRANCH   1  19
ATOM     19  C   UNL     1       2.308   7.765  18.158  0.00  0.00    +0.000 C 
BRANCH  19  22
ATOM     20  C   UNL     1       2.806   5.387  17.995  0.00  0.00    +0.000 C 
ATOM     21  O   UNL     1       1.645   5.125  17.675  0.00  0.00    +0.000 OA
ATOM     22  N   UNL     1       3.209   6.664  18.301  0.00  0.00    +0.000 N 
ATOM     23  H   UNL     1       4.114   6.845  18.710  0.00  0.00    +0.000 HD
BRANCH  20  24
ATOM     24  C   UNL     1       3.867   4.306  18.151  0.00  0.00    +0.000 C 
BRANCH  24  25
ATOM     25  C   UNL     1       4.477   3.897  16.788  0.00  0.00    +0.000 C 
BRANCH  25  26
ATOM     26  C   UNL     1       5.385   4.994  16.206  0.00  0.00    +0.000 C 
BRANCH  26  27
ATOM     27  C   UNL     1       6.714   4.451  15.669  0.00  0.00    +0.000 C 
BRANCH  27  29
ATOM     28  C   UNL     1       6.114   3.741  13.308  0.00  0.00    +0.000 C 
ATOM     29  C   UNL     1       6.840   4.757  14.173  0.00  0.00    +0.000 C 
ENDBRANCH  27  29
ENDBRANCH  26  27
ENDBRANCH  25  26
ENDBRANCH  24  25
BRANCH  24  30
ATOM     30  C   UNL     1       3.273   3.103  18.904  0.00  0.00    +0.000 C 
BRANCH  30  31
ATOM     31  N   UNL     1       3.865   2.823  20.213  0.00  0.00    +0.000 N 
ATOM     32  C   UNL     1       3.022   2.463  21.258  0.00  0.00    +0.000 C 
ATOM     33  O   UNL     1       1.811   2.639  21.298  0.00  0.00    +0.000 OA
BRANCH  31  34
ATOM     34  O   UNL     1       4.953   1.909  20.147  0.00  0.00    +0.000 OA
ATOM     35  H   UNL     1       4.495   1.048  20.237  0.00  0.00    +0.000 HD
ENDBRANCH  31  34
ENDBRANCH  30  31
ENDBRANCH  24  30
ENDBRANCH  20  24
ENDBRANCH  19  22
ENDBRANCH   1  19
TORSDOF 13
ENDMDL
MODEL 6
REMARK VINA RESULT:      -7.2      2.619      5.102
REMARK  Name = 
REMARK  15 active torsions:
REMARK  status: ('A' for Active; 'I' for Inactive)
REMARK    1  A    between atoms: C_1  and  C_2
REMARK    2  A    between atoms: C_2  and  C_3
REMARK    3  A    between atoms: C_3  and  C_4
REMARK    4  A    between atoms: C_4  and  C_5
REMARK    5  A    between atoms: C_5  and  C_6
REMARK    6  A    between atoms: C_6  and  C_7
REMARK    7  A    between atoms: C_6  and  C_12
REMARK    8  A    between atoms: C_7  and  N_8
REMARK    9  A    between atoms: N_8  and  O_9
REMARK   10  A    between atoms: N_14  and  C_15
REMARK   11  A    between atoms: C_15  and  N_16
REMARK   12  A    between atoms: C_17  and  C_19
REMARK   13  A    between atoms: C_23  and  C_24
REMARK   14  A    between atoms: C_28  and  O_29
REMARK   15  A    between atoms: O_29  and  C_30
REMARK                            x       y       z     vdW  Elec       q    Type
REMARK                         _______ _______ _______ _____ _____    ______ ____
ROOT
ATOM      1  N   UNL     1       1.258   7.923  21.681  0.00  0.00    +0.000 N 
ATOM      2  C   UNL     1       1.640   7.818  20.356  0.00  0.00    +0.000 C 
ATOM      3  O   UNL     1       1.612   8.766  19.579  0.00  0.00    +0.000 OA
ATOM      4  H   UNL     1       1.611   7.252  22.349  0.00  0.00    +0.000 HD
ENDROOT
BRANCH   2   5
ATOM      5  C   UNL     1       2.107   6.490  19.893  0.00  0.00    +0.000 A 
ATOM      6  C   UNL     1       1.645   5.355  20.567  0.00  0.00    +0.000 A 
ATOM      7  C   UNL     1       2.128   4.099  20.220  0.00  0.00    +0.000 A 
ATOM      8  C   UNL     1       3.090   3.980  19.216  0.00  0.00    +0.000 A 
ATOM      9  C   UNL     1       3.608   5.108  18.547  0.00  0.00    +0.000 A 
ATOM     10  C   UNL     1       3.074   6.366  18.886  0.00  0.00    +0.000 A 
BRANCH   9  11
ATOM     11  C   UNL     1       4.734   4.982  17.593  0.00  0.00    +0.000 A 
ATOM     12  C   UNL     1       4.843   3.905  16.697  0.00  0.00    +0.000 A 
ATOM     13  C   UNL     1       5.890   3.840  15.773  0.00  0.00    +0.000 A 
ATOM     14  C   UNL     1       6.858   4.844  15.741  0.00  0.00    +0.000 A 
ATOM     15  C   UNL     1       6.785   5.919  16.622  0.00  0.00    +0.000 A 
ATOM     16  C   UNL     1       5.723   5.985  17.527  0.00  0.00    +0.000 A 
BRANCH  15  17
ATOM     17  O   UNL     1       7.787   6.843  16.504  0.00  0.00    +0.000 OA
ATOM     18  C   UNL     1       7.806   7.892  17.467  0.00  0.00    +0.000 C 
ENDBRANCH  15  17
ENDBRANCH   9  11
ENDBRANCH   2   5
BRANCH   1  19
ATOM     19  C   UNL     1       0.942   9.227  22.180  0.00  0.00    +0.000 C 
BRANCH  19  22
ATOM     20  C   UNL     1      -0.482  11.135  21.670  0.00  0.00    +0.000 C 
ATOM     21  O   UNL     1      -0.041  11.772  22.629  0.00  0.00    +0.000 OA
ATOM     22  N   UNL     1      -0.086   9.847  21.404  0.00  0.00    +0.000 N 
ATOM     23  H   UNL     1      -0.564   9.282  20.717  0.00  0.00    +0.000 HD
BRANCH  20  24
ATOM     24  C   UNL     1      -1.558  11.697  20.750  0.00  0.00    +0.000 C 
BRANCH  24  25
ATOM     25  C   UNL     1      -1.300  11.326  19.269  0.00  0.00    +0.000 C 
BRANCH  25  26
ATOM     26  C   UNL     1      -2.600  11.281  18.448  0.00  0.00    +0.000 C 
BRANCH  26  27
ATOM     27  C   UNL     1      -2.355  11.289  16.935  0.00  0.00    +0.000 C 
BRANCH  27  29
ATOM     28  C   UNL     1      -3.020  10.134  14.776  0.00  0.00    +0.000 C 
ATOM     29  C   UNL     1      -3.368  10.376  16.235  0.00  0.00    +0.000 C 
ENDBRANCH  27  29
ENDBRANCH  26  27
ENDBRANCH  25  26
ENDBRANCH  24  25
BRANCH  24  30
ATOM     30  C   UNL     1      -1.670  13.218  20.955  0.00  0.00    +0.000 C 
BRANCH  30  31
ATOM     31  N   UNL     1      -2.981  13.700  21.392  0.00  0.00    +0.000 N 
ATOM     32  C   UNL     1      -3.063  14.402  22.589  0.00  0.00    +0.000 C 
ATOM     33  O   UNL     1      -2.219  14.412  23.476  0.00  0.00    +0.000 OA
BRANCH  31  34
ATOM     34  O   UNL     1      -3.679  14.412  20.378  0.00  0.00    +0.000 OA
ATOM     35  H   UNL     1      -3.074  15.166  20.212  0.00  0.00    +0.000 HD
ENDBRANCH  31  34
ENDBRANCH  30  31
ENDBRANCH  24  30
ENDBRANCH  20  24
ENDBRANCH  19  22
ENDBRANCH   1  19
TORSDOF 13
ENDMDL
MODEL 7
REMARK VINA RESULT:      -7.2      2.163      3.676
REMARK  Name = 
REMARK  15 active torsions:
REMARK  status: ('A' for Active; 'I' for Inactive)
REMARK    1  A    between atoms: C_1  and  C_2
REMARK    2  A    between atoms: C_2  and  C_3
REMARK    3  A    between atoms: C_3  and  C_4
REMARK    4  A    between atoms: C_4  and  C_5
REMARK    5  A    between atoms: C_5  and  C_6
REMARK    6  A    between atoms: C_6  and  C_7
REMARK    7  A    between atoms: C_6  and  C_12
REMARK    8  A    between atoms: C_7  and  N_8
REMARK    9  A    between atoms: N_8  and  O_9
REMARK   10  A    between atoms: N_14  and  C_15
REMARK   11  A    between atoms: C_15  and  N_16
REMARK   12  A    between atoms: C_17  and  C_19
REMARK   13  A    between atoms: C_23  and  C_24
REMARK   14  A    between atoms: C_28  and  O_29
REMARK   15  A    between atoms: O_29  and  C_30
REMARK                            x       y       z     vdW  Elec       q    Type
REMARK                         _______ _______ _______ _____ _____    ______ ____
ROOT
ATOM      1  N   UNL     1       2.255   6.741  19.969  0.00  0.00    +0.000 N 
ATOM      2  C   UNL     1       1.840   5.424  20.041  0.00  0.00    +0.000 C 
ATOM      3  O   UNL     1       1.118   5.002  20.938  0.00  0.00    +0.000 OA
ATOM      4  H   UNL     1       2.539   7.119  19.077  0.00  0.00    +0.000 HD
ENDROOT
BRANCH   2   5
ATOM      5  C   UNL     1       2.299   4.514  18.965  0.00  0.00    +0.000 A 
ATOM      6  C   UNL     1       1.789   3.211  18.940  0.00  0.00    +0.000 A 
ATOM      7  C   UNL     1       2.260   2.301  18.001  0.00  0.00    +0.000 A 
ATOM      8  C   UNL     1       3.258   2.685  17.104  0.00  0.00    +0.000 A 
ATOM      9  C   UNL     1       3.824   3.977  17.132  0.00  0.00    +0.000 A 
ATOM     10  C   UNL     1       3.302   4.895  18.064  0.00  0.00    +0.000 A 
BRANCH   9  11
ATOM     11  C   UNL     1       4.984   4.323  16.278  0.00  0.00    +0.000 A 
ATOM     12  C   UNL     1       6.019   5.163  16.720  0.00  0.00    +0.000 A 
ATOM     13  C   UNL     1       7.126   5.430  15.910  0.00  0.00    +0.000 A 
ATOM     14  C   UNL     1       7.209   4.874  14.634  0.00  0.00    +0.000 A 
ATOM     15  C   UNL     1       6.195   4.045  14.161  0.00  0.00    +0.000 A 
ATOM     16  C   UNL     1       5.103   3.768  14.987  0.00  0.00    +0.000 A 
BRANCH  15  17
ATOM     17  O   UNL     1       6.378   3.558  12.895  0.00  0.00    +0.000 OA
ATOM     18  C   UNL     1       7.227   4.312  12.037  0.00  0.00    +0.000 C 
ENDBRANCH  15  17
ENDBRANCH   9  11
ENDBRANCH   2   5
BRANCH   1  19
ATOM     19  C   UNL     1       1.707   7.663  20.917  0.00  0.00    +0.000 C 
BRANCH  19  22
ATOM     20  C   UNL     1       0.285   9.620  20.638  0.00  0.00    +0.000 C 
ATOM     21  O   UNL     1      -0.574   9.152  21.388  0.00  0.00    +0.000 OA
ATOM     22  N   UNL     1       1.424   8.928  20.310  0.00  0.00    +0.000 N 
ATOM     23  H   UNL     1       2.042   9.248  19.579  0.00  0.00    +0.000 HD
BRANCH  20  24
ATOM     24  C   UNL     1       0.115  10.970  19.954  0.00  0.00    +0.000 C 
BRANCH  24  25
ATOM     25  C   UNL     1      -1.219  11.055  19.173  0.00  0.00    +0.000 C 
BRANCH  25  26
ATOM     26  C   UNL     1      -1.207  10.182  17.907  0.00  0.00    +0.000 C 
BRANCH  26  27
ATOM     27  C   UNL     1      -2.610   9.771  17.447  0.00  0.00    +0.000 C 
BRANCH  27  29
ATOM     28  C   UNL     1      -4.339  11.370  16.503  0.00  0.00    +0.000 C 
ATOM     29  C   UNL     1      -3.041  10.623  16.248  0.00  0.00    +0.000 C 
ENDBRANCH  27  29
ENDBRANCH  26  27
ENDBRANCH  25  26
ENDBRANCH  24  25
BRANCH  24  30
ATOM     30  C   UNL     1       1.332  11.251  19.054  0.00  0.00    +0.000 C 
BRANCH  30  31
ATOM     31  N   UNL     1       1.612  12.664  18.796  0.00  0.00    +0.000 N 
ATOM     32  C   UNL     1       2.251  13.403  19.785  0.00  0.00    +0.000 C 
ATOM     33  O   UNL     1       2.345  13.095  20.965  0.00  0.00    +0.000 OA
BRANCH  31  34
ATOM     34  O   UNL     1       2.257  12.885  17.548  0.00  0.00    +0.000 OA
ATOM     35  H   UNL     1       1.514  12.774  16.918  0.00  0.00    +0.000 HD
ENDBRANCH  31  34
ENDBRANCH  30  31
ENDBRANCH  24  30
ENDBRANCH  20  24
ENDBRANCH  19  22
ENDBRANCH   1  19
TORSDOF 13
ENDMDL
MODEL 8
REMARK VINA RESULT:      -7.1      2.452     10.825
REMARK  Name = 
REMARK  15 active torsions:
REMARK  status: ('A' for Active; 'I' for Inactive)
REMARK    1  A    between atoms: C_1  and  C_2
REMARK    2  A    between atoms: C_2  and  C_3
REMARK    3  A    between atoms: C_3  and  C_4
REMARK    4  A    between atoms: C_4  and  C_5
REMARK    5  A    between atoms: C_5  and  C_6
REMARK    6  A    between atoms: C_6  and  C_7
REMARK    7  A    between atoms: C_6  and  C_12
REMARK    8  A    between atoms: C_7  and  N_8
REMARK    9  A    between atoms: N_8  and  O_9
REMARK   10  A    between atoms: N_14  and  C_15
REMARK   11  A    between atoms: C_15  and  N_16
REMARK   12  A    between atoms: C_17  and  C_19
REMARK   13  A    between atoms: C_23  and  C_24
REMARK   14  A    between atoms: C_28  and  O_29
REMARK   15  A    between atoms: O_29  and  C_30
REMARK                            x       y       z     vdW  Elec       q    Type
REMARK                         _______ _______ _______ _____ _____    ______ ____
ROOT
ATOM      1  N   UNL     1       1.885   8.300  19.351  0.00  0.00    +0.000 N 
ATOM      2  C   UNL     1       1.096   9.434  19.382  0.00  0.00    +0.000 C 
ATOM      3  O   UNL     1       0.858  10.108  18.385  0.00  0.00    +0.000 OA
ATOM      4  H   UNL     1       1.777   7.605  20.076  0.00  0.00    +0.000 HD
ENDROOT
BRANCH   2   5
ATOM      5  C   UNL     1       0.520   9.818  20.693  0.00  0.00    +0.000 A 
ATOM      6  C   UNL     1       0.744   8.975  21.786  0.00  0.00    +0.000 A 
ATOM      7  C   UNL     1       0.148   9.254  23.010  0.00  0.00    +0.000 A 
ATOM      8  C   UNL     1      -0.693  10.361  23.135  0.00  0.00    +0.000 A 
ATOM      9  C   UNL     1      -0.974  11.206  22.041  0.00  0.00    +0.000 A 
ATOM     10  C   UNL     1      -0.326  10.928  20.822  0.00  0.00    +0.000 A 
BRANCH   9  11
ATOM     11  C   UNL     1      -1.983  12.286  22.148  0.00  0.00    +0.000 A 
ATOM     12  C   UNL     1      -3.041  12.238  23.071  0.00  0.00    +0.000 A 
ATOM     13  C   UNL     1      -3.947  13.295  23.183  0.00  0.00    +0.000 A 
ATOM     14  C   UNL     1      -3.821  14.414  22.361  0.00  0.00    +0.000 A 
ATOM     15  C   UNL     1      -2.790  14.490  21.429  0.00  0.00    +0.000 A 
ATOM     16  C   UNL     1      -1.878  13.436  21.339  0.00  0.00    +0.000 A 
BRANCH  15  17
ATOM     17  O   UNL     1      -2.764  15.631  20.674  0.00  0.00    +0.000 OA
ATOM     18  C   UNL     1      -1.495  16.033  20.169  0.00  0.00    +0.000 C 
ENDBRANCH  15  17
ENDBRANCH   9  11
ENDBRANCH   2   5
BRANCH   1  19
ATOM     19  C   UNL     1       2.331   7.835  18.073  0.00  0.00    +0.000 C 
BRANCH  19  22
ATOM     20  C   UNL     1       4.128   6.212  17.819  0.00  0.00    +0.000 C 
ATOM     21  O   UNL     1       4.892   7.068  17.368  0.00  0.00    +0.000 OA
ATOM     22  N   UNL     1       2.826   6.495  18.148  0.00  0.00    +0.000 N 
ATOM     23  H   UNL     1       2.167   5.762  18.367  0.00  0.00    +0.000 HD
BRANCH  20  24
ATOM     24  C   UNL     1       4.545   4.756  17.977  0.00  0.00    +0.000 C 
BRANCH  24  25
ATOM     25  C   UNL     1       4.511   4.305  19.457  0.00  0.00    +0.000 C 
BRANCH  25  26
ATOM     26  C   UNL     1       3.409   3.265  19.721  0.00  0.00    +0.000 C 
BRANCH  26  27
ATOM     27  C   UNL     1       2.348   3.753  20.714  0.00  0.00    +0.000 C 
BRANCH  27  29
ATOM     28  C   UNL     1       0.963   2.953  18.744  0.00  0.00    +0.000 C 
ATOM     29  C   UNL     1       0.959   3.697  20.069  0.00  0.00    +0.000 C 
ENDBRANCH  27  29
ENDBRANCH  26  27
ENDBRANCH  25  26
ENDBRANCH  24  25
BRANCH  24  30
ATOM     30  C   UNL     1       5.930   4.543  17.338  0.00  0.00    +0.000 C 
BRANCH  30  31
ATOM     31  N   UNL     1       5.923   4.240  15.907  0.00  0.00    +0.000 N 
ATOM     32  C   UNL     1       6.856   4.872  15.092  0.00  0.00    +0.000 C 
ATOM     33  O   UNL     1       7.493   5.878  15.375  0.00  0.00    +0.000 OA
BRANCH  31  34
ATOM     34  O   UNL     1       5.925   2.845  15.633  0.00  0.00    +0.000 OA
ATOM     35  H   UNL     1       6.864   2.690  15.396  0.00  0.00    +0.000 HD
ENDBRANCH  31  34
ENDBRANCH  30  31
ENDBRANCH  24  30
ENDBRANCH  20  24
ENDBRANCH  19  22
ENDBRANCH   1  19
TORSDOF 13
ENDMDL
MODEL 9
REMARK VINA RESULT:      -7.1      3.652      7.095
REMARK  Name = 
REMARK  15 active torsions:
REMARK  status: ('A' for Active; 'I' for Inactive)
REMARK    1  A    between atoms: C_1  and  C_2
REMARK    2  A    between atoms: C_2  and  C_3
REMARK    3  A    between atoms: C_3  and  C_4
REMARK    4  A    between atoms: C_4  and  C_5
REMARK    5  A    between atoms: C_5  and  C_6
REMARK    6  A    between atoms: C_6  and  C_7
REMARK    7  A    between atoms: C_6  and  C_12
REMARK    8  A    between atoms: C_7  and  N_8
REMARK    9  A    between atoms: N_8  and  O_9
REMARK   10  A    between atoms: N_14  and  C_15
REMARK   11  A    between atoms: C_15  and  N_16
REMARK   12  A    between atoms: C_17  and  C_19
REMARK   13  A    between atoms: C_23  and  C_24
REMARK   14  A    between atoms: C_28  and  O_29
REMARK   15  A    between atoms: O_29  and  C_30
REMARK                            x       y       z     vdW  Elec       q    Type
REMARK                         _______ _______ _______ _____ _____    ______ ____
ROOT
ATOM      1  N   UNL     1       0.398  11.672  21.031  0.00  0.00    +0.000 N 
ATOM      2  C   UNL     1       0.259  10.297  21.082  0.00  0.00    +0.000 C 
ATOM      3  O   UNL     1      -0.464   9.730  21.894  0.00  0.00    +0.000 OA
ATOM      4  H   UNL     1       0.703  12.104  20.171  0.00  0.00    +0.000 HD
ENDROOT
BRANCH   2   5
ATOM      5  C   UNL     1       1.024   9.506  20.089  0.00  0.00    +0.000 A 
ATOM      6  C   UNL     1       1.114   9.996  18.781  0.00  0.00    +0.000 A 
ATOM      7  C   UNL     1       1.747   9.240  17.801  0.00  0.00    +0.000 A 
ATOM      8  C   UNL     1       2.267   7.985  18.121  0.00  0.00    +0.000 A 
ATOM      9  C   UNL     1       2.154   7.444  19.419  0.00  0.00    +0.000 A 
ATOM     10  C   UNL     1       1.546   8.244  20.406  0.00  0.00    +0.000 A 
BRANCH   9  11
ATOM     11  C   UNL     1       2.574   6.053  19.707  0.00  0.00    +0.000 A 
ATOM     12  C   UNL     1       1.763   5.155  20.421  0.00  0.00    +0.000 A 
ATOM     13  C   UNL     1       2.164   3.834  20.634  0.00  0.00    +0.000 A 
ATOM     14  C   UNL     1       3.395   3.391  20.149  0.00  0.00    +0.000 A 
ATOM     15  C   UNL     1       4.227   4.258  19.447  0.00  0.00    +0.000 A 
ATOM     16  C   UNL     1       3.807   5.570  19.222  0.00  0.00    +0.000 A 
BRANCH  15  17
ATOM     17  O   UNL     1       5.411   3.718  19.021  0.00  0.00    +0.000 OA
ATOM     18  C   UNL     1       6.176   4.497  18.108  0.00  0.00    +0.000 C 
ENDBRANCH  15  17
ENDBRANCH   9  11
ENDBRANCH   2   5
BRANCH   1  19
ATOM     19  C   UNL     1      -0.441  12.456  21.885  0.00  0.00    +0.000 C 
BRANCH  19  22
ATOM     20  C   UNL     1      -2.393  12.901  20.499  0.00  0.00    +0.000 C 
ATOM     21  O   UNL     1      -1.771  13.717  19.816  0.00  0.00    +0.000 OA
ATOM     22  N   UNL     1      -1.824  12.266  21.576  0.00  0.00    +0.000 N 
ATOM     23  H   UNL     1      -2.381  11.723  22.219  0.00  0.00    +0.000 HD
BRANCH  20  24
ATOM     24  C   UNL     1      -3.862  12.589  20.251  0.00  0.00    +0.000 C 
BRANCH  24  25
ATOM     25  C   UNL     1      -4.100  12.037  18.824  0.00  0.00    +0.000 C 
BRANCH  25  26
ATOM     26  C   UNL     1      -3.078  10.952  18.444  0.00  0.00    +0.000 C 
BRANCH  26  27
ATOM     27  C   UNL     1      -2.383  11.223  17.105  0.00  0.00    +0.000 C 
BRANCH  27  29
ATOM     28  C   UNL     1      -3.016  10.182  14.879  0.00  0.00    +0.000 C 
ATOM     29  C   UNL     1      -2.388   9.955  16.244  0.00  0.00    +0.000 C 
ENDBRANCH  27  29
ENDBRANCH  26  27
ENDBRANCH  25  26
ENDBRANCH  24  25
BRANCH  24  30
ATOM     30  C   UNL     1      -4.712  13.840  20.536  0.00  0.00    +0.000 C 
BRANCH  30  31
ATOM     31  N   UNL     1      -5.892  14.007  19.688  0.00  0.00    +0.000 N 
ATOM     32  C   UNL     1      -7.149  13.909  20.274  0.00  0.00    +0.000 C 
ATOM     33  O   UNL     1      -7.397  13.404  21.362  0.00  0.00    +0.000 OA
BRANCH  31  34
ATOM     34  O   UNL     1      -5.838  15.178  18.882  0.00  0.00    +0.000 OA
ATOM     35  H   UNL     1      -5.453  14.828  18.050  0.00  0.00    +0.000 HD
ENDBRANCH  31  34
ENDBRANCH  30  31
ENDBRANCH  24  30
ENDBRANCH  20  24
ENDBRANCH  19  22
ENDBRANCH   1  19
TORSDOF 13
ENDMDL
