MODEL 1
REMARK VINA RESULT:      -8.0      0.000      0.000
REMARK  Name = 
REMARK  5 active torsions:
REMARK  status: ('A' for Active; 'I' for Inactive)
REMARK    1  A    between atoms: C_1  and  C_2
REMARK    2  A    between atoms: C_5  and  N_6
REMARK    3  A    between atoms: C_7  and  C_8
REMARK    4  A    between atoms: C_9  and  O_10
REMARK    5  A    between atoms: N_17  and  C_18
REMARK                            x       y       z     vdW  Elec       q    Type
REMARK                         _______ _______ _______ _____ _____    ______ ____
ROOT
ATOM      1  C   UNL     1       3.012   6.183  19.148  0.00  0.00    +0.000 A 
ATOM      2  C   UNL     1       3.605   6.677  18.041  0.00  0.00    +0.000 A 
ATOM      3  C   UNL     1       4.370   5.789  17.155  0.00  0.00    +0.000 A 
ATOM      4  C   UNL     1       4.989   6.300  15.999  0.00  0.00    +0.000 A 
ATOM      5  C   UNL     1       5.682   5.463  15.129  0.00  0.00    +0.000 A 
ATOM      6  C   UNL     1       5.765   4.105  15.403  0.00  0.00    +0.000 A 
ATOM      7  C   UNL     1       5.163   3.584  16.553  0.00  0.00    +0.000 A 
ATOM      8  C   UNL     1       4.463   4.411  17.445  0.00  0.00    +0.000 A 
ATOM      9  N   UNL     1       3.843   3.914  18.632  0.00  0.00    +0.000 N 
ATOM     10  C   UNL     1       3.896   2.518  19.025  0.00  0.00    +0.000 C 
ATOM     11  C   UNL     1       3.149   4.749  19.502  0.00  0.00    +0.000 A 
ATOM     12  O   UNL     1       2.642   4.343  20.551  0.00  0.00    +0.000 OA
ENDROOT
BRANCH   1  14
ATOM     13  N   UNL     1       1.735   8.214  19.663  0.00  0.00    +0.000 NA
ATOM     14  C   UNL     1       2.211   7.064  20.037  0.00  0.00    +0.000 C 
BRANCH  13  19
ATOM     15  C   UNL     1      -1.438  11.489  23.152  0.00  0.00    +0.000 C 
ATOM     16  C   UNL     1      -0.633  10.614  22.238  0.00  0.00    +0.000 A 
ATOM     17  C   UNL     1      -0.623  10.811  20.854  0.00  0.00    +0.000 A 
ATOM     18  C   UNL     1       0.160   9.993  20.029  0.00  0.00    +0.000 A 
ATOM     19  C   UNL     1       0.963   8.980  20.562  0.00  0.00    +0.000 A 
ATOM     20  C   UNL     1       0.920   8.769  21.946  0.00  0.00    +0.000 A 
ATOM     21  C   UNL     1       0.133   9.576  22.773  0.00  0.00    +0.000 A 
ENDBRANCH  13  19
ENDBRANCH   1  14
BRANCH   2  22
ATOM     22  O   UNL     1       3.527   8.003  17.653  0.00  0.00    +0.000 OA
ATOM     23  H   UNL     1       3.743   8.560  18.434  0.00  0.00    +0.000 HD
ENDBRANCH   2  22
TORSDOF 3
ENDMDL
MODEL 2
REMARK VINA RESULT:      -8.0      0.131      1.030
REMARK  Name = 
REMARK  5 active torsions:
REMARK  status: ('A' for Active; 'I' for Inactive)
REMARK    1  A    between atoms: C_1  and  C_2
REMARK    2  A    between atoms: C_5  and  N_6
REMARK    3  A    between atoms: C_7  and  C_8
REMARK    4  A    between atoms: C_9  and  O_10
REMARK    5  A    between atoms: N_17  and  C_18
REMARK                            x       y       z     vdW  Elec       q    Type
REMARK                         _______ _______ _______ _____ _____    ______ ____
ROOT
ATOM      1  C   UNL     1       3.023   6.286  19.102  0.00  0.00    +0.000 A 
ATOM      2  C   UNL     1       3.630   6.740  17.985  0.00  0.00    +0.000 A 
ATOM      3  C   UNL     1       4.404   5.820  17.140  0.00  0.00    +0.000 A 
ATOM      4  C   UNL     1       5.037   6.290  15.974  0.00  0.00    +0.000 A 
ATOM      5  C   UNL     1       5.738   5.422  15.142  0.00  0.00    +0.000 A 
ATOM      6  C   UNL     1       5.816   4.075  15.464  0.00  0.00    +0.000 A 
ATOM      7  C   UNL     1       5.200   3.595  16.625  0.00  0.00    +0.000 A 
ATOM      8  C   UNL     1       4.491   4.453  17.478  0.00  0.00    +0.000 A 
ATOM      9  N   UNL     1       3.857   3.999  18.675  0.00  0.00    +0.000 N 
ATOM     10  C   UNL     1       3.904   2.617  19.117  0.00  0.00    +0.000 C 
ATOM     11  C   UNL     1       3.155   4.865  19.507  0.00  0.00    +0.000 A 
ATOM     12  O   UNL     1       2.635   4.496  20.565  0.00  0.00    +0.000 OA
ENDROOT
BRANCH   1  14
ATOM     13  N   UNL     1       1.658   8.284  19.503  0.00  0.00    +0.000 NA
ATOM     14  C   UNL     1       2.213   7.198  19.950  0.00  0.00    +0.000 C 
BRANCH  13  19
ATOM     15  C   UNL     1      -1.464  11.380  23.196  0.00  0.00    +0.000 C 
ATOM     16  C   UNL     1      -0.625  10.591  22.235  0.00  0.00    +0.000 A 
ATOM     17  C   UNL     1       0.159   9.514  22.660  0.00  0.00    +0.000 A 
ATOM     18  C   UNL     1       0.912   8.779  21.734  0.00  0.00    +0.000 A 
ATOM     19  C   UNL     1       0.885   9.085  20.370  0.00  0.00    +0.000 A 
ATOM     20  C   UNL     1       0.123  10.186  19.960  0.00  0.00    +0.000 A 
ATOM     21  C   UNL     1      -0.623  10.929  20.880  0.00  0.00    +0.000 A 
ENDBRANCH  13  19
ENDBRANCH   1  14
BRANCH   2  22
ATOM     22  O   UNL     1       3.558   8.051  17.550  0.00  0.00    +0.000 OA
ATOM     23  H   UNL     1       4.120   8.136  16.747  0.00  0.00    +0.000 HD
ENDBRANCH   2  22
TORSDOF 3
ENDMDL
MODEL 3
REMARK VINA RESULT:      -8.0      1.609      8.113
REMARK  Name = 
REMARK  5 active torsions:
REMARK  status: ('A' for Active; 'I' for Inactive)
REMARK    1  A    between atoms: C_1  and  C_2
REMARK    2  A    between atoms: C_5  and  N_6
REMARK    3  A    between atoms: C_7  and  C_8
REMARK    4  A    between atoms: C_9  and  O_10
REMARK    5  A    between atoms: N_17  and  C_18
REMARK                            x       y       z     vdW  Elec       q    Type
REMARK                         _______ _______ _______ _____ _____    ______ ____
ROOT
ATOM      1  C   UNL     1       1.800   8.728  19.013  0.00  0.00    +0.000 A 
ATOM      2  C   UNL     1       1.447   8.321  20.250  0.00  0.00    +0.000 A 
ATOM      3  C   UNL     1       0.696   9.220  21.136  0.00  0.00    +0.000 A 
ATOM      4  C   UNL     1       0.325   8.798  22.427  0.00  0.00    +0.000 A 
ATOM      5  C   UNL     1      -0.423   9.623  23.262  0.00  0.00    +0.000 A 
ATOM      6  C   UNL     1      -0.809  10.880  22.819  0.00  0.00    +0.000 A 
ATOM      7  C   UNL     1      -0.440  11.317  21.542  0.00  0.00    +0.000 A 
ATOM      8  C   UNL     1       0.316  10.502  20.686  0.00  0.00    +0.000 A 
ATOM      9  N   UNL     1       0.716  10.919  19.380  0.00  0.00    +0.000 N 
ATOM     10  C   UNL     1       0.389  12.223  18.833  0.00  0.00    +0.000 C 
ATOM     11  C   UNL     1       1.463  10.095  18.544  0.00  0.00    +0.000 A 
ATOM     12  O   UNL     1       1.851  10.455  17.428  0.00  0.00    +0.000 OA
ENDROOT
BRANCH   1  14
ATOM     13  N   UNL     1       3.390   6.932  18.502  0.00  0.00    +0.000 NA
ATOM     14  C   UNL     1       2.534   7.819  18.095  0.00  0.00    +0.000 C 
BRANCH  13  19
ATOM     15  C   UNL     1       6.033   3.698  14.562  0.00  0.00    +0.000 C 
ATOM     16  C   UNL     1       5.368   4.540  15.609  0.00  0.00    +0.000 A 
ATOM     17  C   UNL     1       5.497   5.931  15.624  0.00  0.00    +0.000 A 
ATOM     18  C   UNL     1       4.842   6.693  16.600  0.00  0.00    +0.000 A 
ATOM     19  C   UNL     1       4.029   6.091  17.566  0.00  0.00    +0.000 A 
ATOM     20  C   UNL     1       3.933   4.694  17.563  0.00  0.00    +0.000 A 
ATOM     21  C   UNL     1       4.593   3.928  16.597  0.00  0.00    +0.000 A 
ENDBRANCH  13  19
ENDBRANCH   1  14
BRANCH   2  22
ATOM     22  O   UNL     1       1.734   7.066  20.757  0.00  0.00    +0.000 OA
ATOM     23  H   UNL     1       1.785   7.139  21.737  0.00  0.00    +0.000 HD
ENDBRANCH   2  22
TORSDOF 3
ENDMDL
MODEL 4
REMARK VINA RESULT:      -7.8      1.663      8.172
REMARK  Name = 
REMARK  5 active torsions:
REMARK  status: ('A' for Active; 'I' for Inactive)
REMARK    1  A    between atoms: C_1  and  C_2
REMARK    2  A    between atoms: C_5  and  N_6
REMARK    3  A    between atoms: C_7  and  C_8
REMARK    4  A    between atoms: C_9  and  O_10
REMARK    5  A    between atoms: N_17  and  C_18
REMARK                            x       y       z     vdW  Elec       q    Type
REMARK                         _______ _______ _______ _____ _____    ______ ____
ROOT
ATOM      1  C   UNL     1       1.831   8.854  18.965  0.00  0.00    +0.000 A 
ATOM      2  C   UNL     1       1.473   8.407  20.187  0.00  0.00    +0.000 A 
ATOM      3  C   UNL     1       0.710   9.274  21.095  0.00  0.00    +0.000 A 
ATOM      4  C   UNL     1       0.334   8.811  22.370  0.00  0.00    +0.000 A 
ATOM      5  C   UNL     1      -0.424   9.606  23.225  0.00  0.00    +0.000 A 
ATOM      6  C   UNL     1      -0.816  10.872  22.817  0.00  0.00    +0.000 A 
ATOM      7  C   UNL     1      -0.442  11.351  21.557  0.00  0.00    +0.000 A 
ATOM      8  C   UNL     1       0.325  10.567  20.681  0.00  0.00    +0.000 A 
ATOM      9  N   UNL     1       0.731  11.025  19.391  0.00  0.00    +0.000 N 
ATOM     10  C   UNL     1       0.399  12.344  18.882  0.00  0.00    +0.000 C 
ATOM     11  C   UNL     1       1.488  10.232  18.535  0.00  0.00    +0.000 A 
ATOM     12  O   UNL     1       1.880  10.628  17.434  0.00  0.00    +0.000 OA
ENDROOT
BRANCH   1  14
ATOM     13  N   UNL     1       3.437   7.084  18.409  0.00  0.00    +0.000 NA
ATOM     14  C   UNL     1       2.577   7.978  18.024  0.00  0.00    +0.000 C 
BRANCH  13  19
ATOM     15  C   UNL     1       6.037   3.610  14.650  0.00  0.00    +0.000 C 
ATOM     16  C   UNL     1       5.333   4.519  15.613  0.00  0.00    +0.000 A 
ATOM     17  C   UNL     1       4.519   4.019  16.633  0.00  0.00    +0.000 A 
ATOM     18  C   UNL     1       3.896   4.893  17.533  0.00  0.00    +0.000 A 
ATOM     19  C   UNL     1       4.086   6.276  17.452  0.00  0.00    +0.000 A 
ATOM     20  C   UNL     1       4.877   6.769  16.407  0.00  0.00    +0.000 A 
ATOM     21  C   UNL     1       5.493   5.902  15.499  0.00  0.00    +0.000 A 
ENDBRANCH  13  19
ENDBRANCH   1  14
BRANCH   2  22
ATOM     22  O   UNL     1       1.765   7.139  20.657  0.00  0.00    +0.000 OA
ATOM     23  H   UNL     1       0.916   6.700  20.892  0.00  0.00    +0.000 HD
ENDBRANCH   2  22
TORSDOF 3
ENDMDL
MODEL 5
REMARK VINA RESULT:      -7.3      1.251      3.059
REMARK  Name = 
REMARK  5 active torsions:
REMARK  status: ('A' for Active; 'I' for Inactive)
REMARK    1  A    between atoms: C_1  and  C_2
REMARK    2  A    between atoms: C_5  and  N_6
REMARK    3  A    between atoms: C_7  and  C_8
REMARK    4  A    between atoms: C_9  and  O_10
REMARK    5  A    between atoms: N_17  and  C_18
REMARK                            x       y       z     vdW  Elec       q    Type
REMARK                         _______ _______ _______ _____ _____    ______ ____
ROOT
ATOM      1  C   UNL     1       2.264   6.837  19.182  0.00  0.00    +0.000 A 
ATOM      2  C   UNL     1       2.001   5.602  19.658  0.00  0.00    +0.000 A 
ATOM      3  C   UNL     1       2.683   4.432  19.089  0.00  0.00    +0.000 A 
ATOM      4  C   UNL     1       2.411   3.142  19.583  0.00  0.00    +0.000 A 
ATOM      5  C   UNL     1       3.079   2.029  19.082  0.00  0.00    +0.000 A 
ATOM      6  C   UNL     1       4.028   2.189  18.082  0.00  0.00    +0.000 A 
ATOM      7  C   UNL     1       4.302   3.464  17.574  0.00  0.00    +0.000 A 
ATOM      8  C   UNL     1       3.636   4.598  18.063  0.00  0.00    +0.000 A 
ATOM      9  N   UNL     1       3.886   5.913  17.562  0.00  0.00    +0.000 N 
ATOM     10  C   UNL     1       4.835   6.185  16.498  0.00  0.00    +0.000 C 
ATOM     11  C   UNL     1       3.219   7.027  18.062  0.00  0.00    +0.000 A 
ATOM     12  O   UNL     1       3.394   8.164  17.613  0.00  0.00    +0.000 OA
ENDROOT
BRANCH   1  14
ATOM     13  N   UNL     1       1.189   8.090  20.997  0.00  0.00    +0.000 NA
ATOM     14  C   UNL     1       1.605   8.033  19.768  0.00  0.00    +0.000 C 
BRANCH  13  19
ATOM     15  C   UNL     1      -1.382  12.771  23.104  0.00  0.00    +0.000 C 
ATOM     16  C   UNL     1      -0.686  11.554  22.572  0.00  0.00    +0.000 A 
ATOM     17  C   UNL     1      -0.856  10.297  23.158  0.00  0.00    +0.000 A 
ATOM     18  C   UNL     1      -0.212   9.173  22.622  0.00  0.00    +0.000 A 
ATOM     19  C   UNL     1       0.592   9.272  21.482  0.00  0.00    +0.000 A 
ATOM     20  C   UNL     1       0.782  10.542  20.923  0.00  0.00    +0.000 A 
ATOM     21  C   UNL     1       0.151  11.668  21.459  0.00  0.00    +0.000 A 
ENDBRANCH  13  19
ENDBRANCH   1  14
BRANCH   2  22
ATOM     22  O   UNL     1       1.118   5.349  20.693  0.00  0.00    +0.000 OA
ATOM     23  H   UNL     1       0.779   6.213  21.019  0.00  0.00    +0.000 HD
ENDBRANCH   2  22
TORSDOF 3
ENDMDL
MODEL 6
REMARK VINA RESULT:      -7.3      1.276      2.936
REMARK  Name = 
REMARK  5 active torsions:
REMARK  status: ('A' for Active; 'I' for Inactive)
REMARK    1  A    between atoms: C_1  and  C_2
REMARK    2  A    between atoms: C_5  and  N_6
REMARK    3  A    between atoms: C_7  and  C_8
REMARK    4  A    between atoms: C_9  and  O_10
REMARK    5  A    between atoms: N_17  and  C_18
REMARK                            x       y       z     vdW  Elec       q    Type
REMARK                         _______ _______ _______ _____ _____    ______ ____
ROOT
ATOM      1  C   UNL     1       2.220   6.897  19.260  0.00  0.00    +0.000 A 
ATOM      2  C   UNL     1       2.009   5.642  19.710  0.00  0.00    +0.000 A 
ATOM      3  C   UNL     1       2.737   4.514  19.115  0.00  0.00    +0.000 A 
ATOM      4  C   UNL     1       2.519   3.203  19.582  0.00  0.00    +0.000 A 
ATOM      5  C   UNL     1       3.232   2.129  19.057  0.00  0.00    +0.000 A 
ATOM      6  C   UNL     1       4.170   2.351  18.059  0.00  0.00    +0.000 A 
ATOM      7  C   UNL     1       4.391   3.646  17.578  0.00  0.00    +0.000 A 
ATOM      8  C   UNL     1       3.681   4.741  18.091  0.00  0.00    +0.000 A 
ATOM      9  N   UNL     1       3.874   6.075  17.619  0.00  0.00    +0.000 N 
ATOM     10  C   UNL     1       4.809   6.409  16.559  0.00  0.00    +0.000 C 
ATOM     11  C   UNL     1       3.163   7.150  18.143  0.00  0.00    +0.000 A 
ATOM     12  O   UNL     1       3.290   8.302  17.719  0.00  0.00    +0.000 OA
ENDROOT
BRANCH   1  14
ATOM     13  N   UNL     1       1.201   8.113  21.132  0.00  0.00    +0.000 NA
ATOM     14  C   UNL     1       1.513   8.052  19.872  0.00  0.00    +0.000 C 
BRANCH  13  19
ATOM     15  C   UNL     1      -1.319  12.900  23.056  0.00  0.00    +0.000 C 
ATOM     16  C   UNL     1      -0.686  11.644  22.537  0.00  0.00    +0.000 A 
ATOM     17  C   UNL     1       0.099  11.641  21.380  0.00  0.00    +0.000 A 
ATOM     18  C   UNL     1       0.699  10.456  20.934  0.00  0.00    +0.000 A 
ATOM     19  C   UNL     1       0.549   9.257  21.639  0.00  0.00    +0.000 A 
ATOM     20  C   UNL     1      -0.267   9.263  22.777  0.00  0.00    +0.000 A 
ATOM     21  C   UNL     1      -0.876  10.441  23.221  0.00  0.00    +0.000 A 
ENDBRANCH  13  19
ENDBRANCH   1  14
BRANCH   2  22
ATOM     22  O   UNL     1       1.140   5.332  20.741  0.00  0.00    +0.000 OA
ATOM     23  H   UNL     1       0.328   5.876  20.627  0.00  0.00    +0.000 HD
ENDBRANCH   2  22
TORSDOF 3
ENDMDL
MODEL 7
REMARK VINA RESULT:      -7.1      1.867      7.811
REMARK  Name = 
REMARK  5 active torsions:
REMARK  status: ('A' for Active; 'I' for Inactive)
REMARK    1  A    between atoms: C_1  and  C_2
REMARK    2  A    between atoms: C_5  and  N_6
REMARK    3  A    between atoms: C_7  and  C_8
REMARK    4  A    between atoms: C_9  and  O_10
REMARK    5  A    between atoms: N_17  and  C_18
REMARK                            x       y       z     vdW  Elec       q    Type
REMARK                         _______ _______ _______ _____ _____    ______ ____
ROOT
ATOM      1  C   UNL     1       1.576   8.866  19.314  0.00  0.00    +0.000 A 
ATOM      2  C   UNL     1       1.377  10.043  18.684  0.00  0.00    +0.000 A 
ATOM      3  C   UNL     1       0.726  11.156  19.389  0.00  0.00    +0.000 A 
ATOM      4  C   UNL     1       0.518  12.386  18.735  0.00  0.00    +0.000 A 
ATOM      5  C   UNL     1      -0.059  13.462  19.403  0.00  0.00    +0.000 A 
ATOM      6  C   UNL     1      -0.435  13.324  20.731  0.00  0.00    +0.000 A 
ATOM      7  C   UNL     1      -0.244  12.105  21.392  0.00  0.00    +0.000 A 
ATOM      8  C   UNL     1       0.333  11.007  20.735  0.00  0.00    +0.000 A 
ATOM      9  N   UNL     1       0.537   9.746  21.376  0.00  0.00    +0.000 N 
ATOM     10  C   UNL     1       0.151   9.489  22.752  0.00  0.00    +0.000 C 
ATOM     11  C   UNL     1       1.114   8.670  20.710  0.00  0.00    +0.000 A 
ATOM     12  O   UNL     1       1.260   7.563  21.236  0.00  0.00    +0.000 OA
ENDROOT
BRANCH   1  14
ATOM     13  N   UNL     1       3.343   7.886  17.923  0.00  0.00    +0.000 NA
ATOM     14  C   UNL     1       2.259   7.742  18.623  0.00  0.00    +0.000 C 
BRANCH  13  19
ATOM     15  C   UNL     1       5.862   3.450  15.287  0.00  0.00    +0.000 C 
ATOM     16  C   UNL     1       5.226   4.609  15.997  0.00  0.00    +0.000 A 
ATOM     17  C   UNL     1       5.530   5.931  15.661  0.00  0.00    +0.000 A 
ATOM     18  C   UNL     1       4.900   6.992  16.324  0.00  0.00    +0.000 A 
ATOM     19  C   UNL     1       3.943   6.762  17.317  0.00  0.00    +0.000 A 
ATOM     20  C   UNL     1       3.671   5.434  17.670  0.00  0.00    +0.000 A 
ATOM     21  C   UNL     1       4.303   4.372  17.017  0.00  0.00    +0.000 A 
ENDBRANCH  13  19
ENDBRANCH   1  14
BRANCH   2  22
ATOM     22  O   UNL     1       1.773  10.295  17.382  0.00  0.00    +0.000 OA
ATOM     23  H   UNL     1       2.638   9.849  17.237  0.00  0.00    +0.000 HD
ENDBRANCH   2  22
TORSDOF 3
ENDMDL
MODEL 8
REMARK VINA RESULT:      -7.0      1.868      7.842
REMARK  Name = 
REMARK  5 active torsions:
REMARK  status: ('A' for Active; 'I' for Inactive)
REMARK    1  A    between atoms: C_1  and  C_2
REMARK    2  A    between atoms: C_5  and  N_6
REMARK    3  A    between atoms: C_7  and  C_8
REMARK    4  A    between atoms: C_9  and  O_10
REMARK    5  A    between atoms: N_17  and  C_18
REMARK                            x       y       z     vdW  Elec       q    Type
REMARK                         _______ _______ _______ _____ _____    ______ ____
ROOT
ATOM      1  C   UNL     1       1.568   8.862  19.314  0.00  0.00    +0.000 A 
ATOM      2  C   UNL     1       1.329  10.039  18.698  0.00  0.00    +0.000 A 
ATOM      3  C   UNL     1       0.635  11.118  19.413  0.00  0.00    +0.000 A 
ATOM      4  C   UNL     1       0.385  12.347  18.774  0.00  0.00    +0.000 A 
ATOM      5  C   UNL     1      -0.234  13.393  19.452  0.00  0.00    +0.000 A 
ATOM      6  C   UNL     1      -0.610  13.225  20.777  0.00  0.00    +0.000 A 
ATOM      7  C   UNL     1      -0.377  12.007  21.423  0.00  0.00    +0.000 A 
ATOM      8  C   UNL     1       0.243  10.939  20.756  0.00  0.00    +0.000 A 
ATOM      9  N   UNL     1       0.490   9.678  21.382  0.00  0.00    +0.000 N 
ATOM     10  C   UNL     1       0.109   9.391  22.753  0.00  0.00    +0.000 C 
ATOM     11  C   UNL     1       1.108   8.632  20.706  0.00  0.00    +0.000 A 
ATOM     12  O   UNL     1       1.293   7.525  21.220  0.00  0.00    +0.000 OA
ENDROOT
BRANCH   1  14
ATOM     13  N   UNL     1       3.318   7.976  17.841  0.00  0.00    +0.000 NA
ATOM     14  C   UNL     1       2.294   7.772  18.613  0.00  0.00    +0.000 C 
BRANCH  13  19
ATOM     15  C   UNL     1       5.884   3.389  15.529  0.00  0.00    +0.000 C 
ATOM     16  C   UNL     1       5.191   4.585  16.112  0.00  0.00    +0.000 A 
ATOM     17  C   UNL     1       4.247   4.461  17.134  0.00  0.00    +0.000 A 
ATOM     18  C   UNL     1       3.636   5.599  17.676  0.00  0.00    +0.000 A 
ATOM     19  C   UNL     1       3.966   6.883  17.229  0.00  0.00    +0.000 A 
ATOM     20  C   UNL     1       4.889   6.995  16.182  0.00  0.00    +0.000 A 
ATOM     21  C   UNL     1       5.494   5.861  15.631  0.00  0.00    +0.000 A 
ENDBRANCH  13  19
ENDBRANCH   1  14
BRANCH   2  22
ATOM     22  O   UNL     1       1.720  10.320  17.401  0.00  0.00    +0.000 OA
ATOM     23  H   UNL     1       1.719  11.298  17.290  0.00  0.00    +0.000 HD
ENDBRANCH   2  22
TORSDOF 3
ENDMDL
MODEL 9
REMARK VINA RESULT:      -6.9      2.091      3.940
REMARK  Name = 
REMARK  5 active torsions:
REMARK  status: ('A' for Active; 'I' for Inactive)
REMARK    1  A    between atoms: C_1  and  C_2
REMARK    2  A    between atoms: C_5  and  N_6
REMARK    3  A    between atoms: C_7  and  C_8
REMARK    4  A    between atoms: C_9  and  O_10
REMARK    5  A    between atoms: N_17  and  C_18
REMARK                            x       y       z     vdW  Elec       q    Type
REMARK                         _______ _______ _______ _____ _____    ______ ____
ROOT
ATOM      1  C   UNL     1       2.585   7.300  18.934  0.00  0.00    +0.000 A 
ATOM      2  C   UNL     1       2.165   6.573  19.992  0.00  0.00    +0.000 A 
ATOM      3  C   UNL     1       2.550   5.161  20.116  0.00  0.00    +0.000 A 
ATOM      4  C   UNL     1       2.116   4.401  21.218  0.00  0.00    +0.000 A 
ATOM      5  C   UNL     1       2.506   3.073  21.370  0.00  0.00    +0.000 A 
ATOM      6  C   UNL     1       3.335   2.489  20.423  0.00  0.00    +0.000 A 
ATOM      7  C   UNL     1       3.767   3.229  19.317  0.00  0.00    +0.000 A 
ATOM      8  C   UNL     1       3.382   4.567  19.144  0.00  0.00    +0.000 A 
ATOM      9  N   UNL     1       3.798   5.350  18.023  0.00  0.00    +0.000 N 
ATOM     10  C   UNL     1       4.640   4.825  16.963  0.00  0.00    +0.000 C 
ATOM     11  C   UNL     1       3.410   6.676  17.870  0.00  0.00    +0.000 A 
ATOM     12  O   UNL     1       3.728   7.354  16.889  0.00  0.00    +0.000 OA
ENDROOT
BRANCH   1  14
ATOM     13  N   UNL     1       1.074   9.220  19.162  0.00  0.00    +0.000 NA
ATOM     14  C   UNL     1       2.228   8.737  18.811  0.00  0.00    +0.000 C 
BRANCH  13  19
ATOM     15  C   UNL     1      -0.177  14.801  18.658  0.00  0.00    +0.000 C 
ATOM     16  C   UNL     1       0.159  13.348  18.819  0.00  0.00    +0.000 A 
ATOM     17  C   UNL     1      -0.786  12.421  19.266  0.00  0.00    +0.000 A 
ATOM     18  C   UNL     1      -0.450  11.066  19.381  0.00  0.00    +0.000 A 
ATOM     19  C   UNL     1       0.823  10.602  19.033  0.00  0.00    +0.000 A 
ATOM     20  C   UNL     1       1.773  11.543  18.619  0.00  0.00    +0.000 A 
ATOM     21  C   UNL     1       1.445  12.898  18.511  0.00  0.00    +0.000 A 
ENDBRANCH  13  19
ENDBRANCH   1  14
BRANCH   2  22
ATOM     22  O   UNL     1       1.388   7.085  21.016  0.00  0.00    +0.000 OA
ATOM     23  H   UNL     1       0.603   7.520  20.613  0.00  0.00    +0.000 HD
ENDBRANCH   2  22
TORSDOF 3
ENDMDL
