MODEL 1
REMARK VINA RESULT:      -6.0      0.000      0.000
REMARK  Name = 
REMARK  15 active torsions:
REMARK  status: ('A' for Active; 'I' for Inactive)
REMARK    1  A    between atoms: C_1  and  O_2
REMARK    2  A    between atoms: O_2  and  C_3
REMARK    3  A    between atoms: C_5  and  C_6
REMARK    4  A    between atoms: C_6  and  C_7
REMARK    5  A    between atoms: C_6  and  C_17
REMARK    6  A    between atoms: C_8  and  O_9
REMARK    7  A    between atoms: C_11  and  C_12
REMARK    8  A    between atoms: C_11  and  C_13
REMARK    9  A    between atoms: C_18  and  O_19
REMARK   10  A    between atoms: C_21  and  C_22
REMARK   11  A    between atoms: C_21  and  C_23
REMARK   12  A    between atoms: C_28  and  O_29
REMARK   13  A    between atoms: O_29  and  C_30
REMARK   14  A    between atoms: C_31  and  O_32
REMARK   15  A    between atoms: O_32  and  C_33
REMARK                            x       y       z     vdW  Elec       q    Type
REMARK                         _______ _______ _______ _____ _____    ______ ____
ROOT
ATOM      1  C   UNL     1      -0.055  13.405  20.916  0.00  0.00    +0.000 C 
ENDROOT
BRANCH   1   2
ATOM      2  C   UNL     1       0.926  14.328  20.182  0.00  0.00    +0.000 C 
ATOM      3  C   UNL     1       0.755  15.015  19.033  0.00  0.00    +0.000 C 
ATOM      4  C   UNL     1       1.773  15.933  18.410  0.00  0.00    +0.000 C 
ATOM      5  C   UNL     1       2.947  16.330  19.317  0.00  0.00    +0.000 C 
ATOM      6  C   UNL     1       4.088  16.849  18.422  0.00  0.00    +0.000 C 
ATOM      7  C   UNL     1       2.548  17.454  20.292  0.00  0.00    +0.000 C 
ATOM      8  C   UNL     1       3.417  15.098  20.095  0.00  0.00    +0.000 C 
ATOM      9  C   UNL     1       2.280  14.425  20.844  0.00  0.00    +0.000 C 
ATOM     10  O   UNL     1       2.487  13.885  21.925  0.00  0.00    +0.000 OA
BRANCH   3  11
ATOM     11  O   UNL     1      -0.383  14.946  18.253  0.00  0.00    +0.000 OA
ATOM     12  H   UNL     1      -0.813  15.811  18.207  0.00  0.00    +0.000 HD
ENDBRANCH   3  11
ENDBRANCH   1   2
BRANCH   1  13
ATOM     13  C   UNL     1      -1.116  14.067  21.825  0.00  0.00    +0.000 C 
ATOM     14  C   UNL     1      -1.911  15.121  21.521  0.00  0.00    +0.000 C 
ATOM     15  C   UNL     1      -2.646  15.969  22.529  0.00  0.00    +0.000 C 
ATOM     16  C   UNL     1      -2.879  15.326  23.906  0.00  0.00    +0.000 C 
ATOM     17  C   UNL     1      -3.097  16.441  24.945  0.00  0.00    +0.000 C 
ATOM     18  C   UNL     1      -4.135  14.437  23.860  0.00  0.00    +0.000 C 
ATOM     19  C   UNL     1      -1.653  14.495  24.299  0.00  0.00    +0.000 C 
ATOM     20  C   UNL     1      -1.311  13.513  23.200  0.00  0.00    +0.000 C 
ATOM     21  O   UNL     1      -1.195  12.307  23.416  0.00  0.00    +0.000 OA
BRANCH  14  22
ATOM     22  O   UNL     1      -2.080  15.621  20.241  0.00  0.00    +0.000 OA
ATOM     23  H   UNL     1      -1.222  15.811  19.829  0.00  0.00    +0.000 HD
ENDBRANCH  14  22
ENDBRANCH   1  13
BRANCH   1  26
ATOM     24  C   UNL     1      -0.515  10.545  18.372  0.00  0.00    +0.000 A 
ATOM     25  C   UNL     1       0.079  11.542  19.170  0.00  0.00    +0.000 A 
ATOM     26  C   UNL     1      -0.698  12.478  19.859  0.00  0.00    +0.000 A 
ATOM     27  C   UNL     1      -2.077  12.490  19.606  0.00  0.00    +0.000 A 
ATOM     28  C   UNL     1      -2.688  11.519  18.808  0.00  0.00    +0.000 A 
ATOM     29  C   UNL     1      -1.914  10.532  18.172  0.00  0.00    +0.000 A 
BRANCH  24  31
ATOM     30  C   UNL     1       1.589   9.443  18.263  0.00  0.00    +0.000 C 
ATOM     31  O   UNL     1       0.260   9.589  17.766  0.00  0.00    +0.000 OA
ENDBRANCH  24  31
BRANCH  28  32
ATOM     32  O   UNL     1      -4.051  11.680  18.744  0.00  0.00    +0.000 OA
ATOM     33  C   UNL     1      -4.647  12.489  19.753  0.00  0.00    +0.000 C 
ENDBRANCH  28  32
BRANCH  29  34
ATOM     34  O   UNL     1      -2.623   9.665  17.389  0.00  0.00    +0.000 OA
ATOM     35  C   UNL     1      -2.771   9.899  16.000  0.00  0.00    +0.000 C 
ENDBRANCH  29  34
ENDBRANCH   1  26
TORSDOF 8
ENDMDL
MODEL 2
REMARK VINA RESULT:      -6.0      0.270      2.297
REMARK  Name = 
REMARK  15 active torsions:
REMARK  status: ('A' for Active; 'I' for Inactive)
REMARK    1  A    between atoms: C_1  and  O_2
REMARK    2  A    between atoms: O_2  and  C_3
REMARK    3  A    between atoms: C_5  and  C_6
REMARK    4  A    between atoms: C_6  and  C_7
REMARK    5  A    between atoms: C_6  and  C_17
REMARK    6  A    between atoms: C_8  and  O_9
REMARK    7  A    between atoms: C_11  and  C_12
REMARK    8  A    between atoms: C_11  and  C_13
REMARK    9  A    between atoms: C_18  and  O_19
REMARK   10  A    between atoms: C_21  and  C_22
REMARK   11  A    between atoms: C_21  and  C_23
REMARK   12  A    between atoms: C_28  and  O_29
REMARK   13  A    between atoms: O_29  and  C_30
REMARK   14  A    between atoms: C_31  and  O_32
REMARK   15  A    between atoms: O_32  and  C_33
REMARK                            x       y       z     vdW  Elec       q    Type
REMARK                         _______ _______ _______ _____ _____    ______ ____
ROOT
ATOM      1  C   UNL     1      -0.094  13.237  20.994  0.00  0.00    +0.000 C 
ENDROOT
BRANCH   1   2
ATOM      2  C   UNL     1       0.851  14.114  20.161  0.00  0.00    +0.000 C 
ATOM      3  C   UNL     1       0.638  14.702  18.964  0.00  0.00    +0.000 C 
ATOM      4  C   UNL     1       1.621  15.583  18.242  0.00  0.00    +0.000 C 
ATOM      5  C   UNL     1       2.812  16.071  19.081  0.00  0.00    +0.000 C 
ATOM      6  C   UNL     1       3.920  16.534  18.117  0.00  0.00    +0.000 C 
ATOM      7  C   UNL     1       2.418  17.264  19.974  0.00  0.00    +0.000 C 
ATOM      8  C   UNL     1       3.324  14.915  19.943  0.00  0.00    +0.000 C 
ATOM      9  C   UNL     1       2.220  14.286  20.775  0.00  0.00    +0.000 C 
ATOM     10  O   UNL     1       2.465  13.839  21.890  0.00  0.00    +0.000 OA
BRANCH   3  11
ATOM     11  O   UNL     1      -0.519  14.552  18.225  0.00  0.00    +0.000 OA
ATOM     12  H   UNL     1      -0.393  13.888  17.532  0.00  0.00    +0.000 HD
ENDBRANCH   3  11
ENDBRANCH   1   2
BRANCH   1  13
ATOM     13  C   UNL     1      -1.138  13.954  21.880  0.00  0.00    +0.000 C 
ATOM     14  C   UNL     1      -1.906  15.017  21.541  0.00  0.00    +0.000 C 
ATOM     15  C   UNL     1      -2.620  15.914  22.522  0.00  0.00    +0.000 C 
ATOM     16  C   UNL     1      -2.870  15.321  23.918  0.00  0.00    +0.000 C 
ATOM     17  C   UNL     1      -3.061  16.473  24.921  0.00  0.00    +0.000 C 
ATOM     18  C   UNL     1      -4.148  14.462  23.899  0.00  0.00    +0.000 C 
ATOM     19  C   UNL     1      -1.665  14.473  24.338  0.00  0.00    +0.000 C 
ATOM     20  C   UNL     1      -1.347  13.448  23.271  0.00  0.00    +0.000 C 
ATOM     21  O   UNL     1      -1.261  12.247  23.525  0.00  0.00    +0.000 OA
BRANCH  14  22
ATOM     22  O   UNL     1      -2.063  15.480  20.246  0.00  0.00    +0.000 OA
ATOM     23  H   UNL     1      -1.951  16.444  20.209  0.00  0.00    +0.000 HD
ENDBRANCH  14  22
ENDBRANCH   1  13
BRANCH   1  26
ATOM     24  C   UNL     1      -2.698  11.527  18.722  0.00  0.00    +0.000 A 
ATOM     25  C   UNL     1      -2.121  12.291  19.756  0.00  0.00    +0.000 A 
ATOM     26  C   UNL     1      -0.752  12.222  20.031  0.00  0.00    +0.000 A 
ATOM     27  C   UNL     1      -0.000  11.254  19.351  0.00  0.00    +0.000 A 
ATOM     28  C   UNL     1      -0.553  10.476  18.330  0.00  0.00    +0.000 A 
ATOM     29  C   UNL     1      -1.916  10.595  18.003  0.00  0.00    +0.000 A 
BRANCH  24  31
ATOM     30  C   UNL     1      -4.838  12.313  19.396  0.00  0.00    +0.000 C 
ATOM     31  O   UNL     1      -4.028  11.665  18.417  0.00  0.00    +0.000 OA
ENDBRANCH  24  31
BRANCH  28  32
ATOM     32  O   UNL     1       0.373   9.637  17.757  0.00  0.00    +0.000 OA
ATOM     33  C   UNL     1       1.690   9.675  18.296  0.00  0.00    +0.000 C 
ENDBRANCH  28  32
BRANCH  29  34
ATOM     34  O   UNL     1      -2.343   9.752  17.016  0.00  0.00    +0.000 OA
ATOM     35  C   UNL     1      -2.664  10.248  15.730  0.00  0.00    +0.000 C 
ENDBRANCH  29  34
ENDBRANCH   1  26
TORSDOF 8
ENDMDL
MODEL 3
REMARK VINA RESULT:      -5.8      1.273      2.677
REMARK  Name = 
REMARK  15 active torsions:
REMARK  status: ('A' for Active; 'I' for Inactive)
REMARK    1  A    between atoms: C_1  and  O_2
REMARK    2  A    between atoms: O_2  and  C_3
REMARK    3  A    between atoms: C_5  and  C_6
REMARK    4  A    between atoms: C_6  and  C_7
REMARK    5  A    between atoms: C_6  and  C_17
REMARK    6  A    between atoms: C_8  and  O_9
REMARK    7  A    between atoms: C_11  and  C_12
REMARK    8  A    between atoms: C_11  and  C_13
REMARK    9  A    between atoms: C_18  and  O_19
REMARK   10  A    between atoms: C_21  and  C_22
REMARK   11  A    between atoms: C_21  and  C_23
REMARK   12  A    between atoms: C_28  and  O_29
REMARK   13  A    between atoms: O_29  and  C_30
REMARK   14  A    between atoms: C_31  and  O_32
REMARK   15  A    between atoms: O_32  and  C_33
REMARK                            x       y       z     vdW  Elec       q    Type
REMARK                         _______ _______ _______ _____ _____    ______ ____
ROOT
ATOM      1  C   UNL     1      -1.414  13.149  21.055  0.00  0.00    +0.000 C 
ENDROOT
BRANCH   1   2
ATOM      2  C   UNL     1      -0.273  14.008  20.495  0.00  0.00    +0.000 C 
ATOM      3  C   UNL     1      -0.086  14.465  19.238  0.00  0.00    +0.000 C 
ATOM      4  C   UNL     1       1.055  15.342  18.794  0.00  0.00    +0.000 C 
ATOM      5  C   UNL     1       1.869  15.989  19.923  0.00  0.00    +0.000 C 
ATOM      6  C   UNL     1       3.223  16.437  19.341  0.00  0.00    +0.000 C 
ATOM      7  C   UNL     1       1.154  17.230  20.492  0.00  0.00    +0.000 C 
ATOM      8  C   UNL     1       2.097  14.957  21.031  0.00  0.00    +0.000 C 
ATOM      9  C   UNL     1       0.797  14.333  21.509  0.00  0.00    +0.000 C 
ATOM     10  O   UNL     1       0.663  14.011  22.685  0.00  0.00    +0.000 OA
BRANCH   3  11
ATOM     11  O   UNL     1      -0.915  14.165  18.175  0.00  0.00    +0.000 OA
ATOM     12  H   UNL     1      -1.750  14.646  18.253  0.00  0.00    +0.000 HD
ENDBRANCH   3  11
ENDBRANCH   1   2
BRANCH   1  13
ATOM     13  C   UNL     1      -2.626  13.884  21.671  0.00  0.00    +0.000 C 
ATOM     14  C   UNL     1      -3.178  15.047  21.249  0.00  0.00    +0.000 C 
ATOM     15  C   UNL     1      -4.093  15.919  22.074  0.00  0.00    +0.000 C 
ATOM     16  C   UNL     1      -4.797  15.229  23.253  0.00  0.00    +0.000 C 
ATOM     17  C   UNL     1      -5.203  16.298  24.283  0.00  0.00    +0.000 C 
ATOM     18  C   UNL     1      -6.064  14.511  22.756  0.00  0.00    +0.000 C 
ATOM     19  C   UNL     1      -3.839  14.227  23.908  0.00  0.00    +0.000 C 
ATOM     20  C   UNL     1      -3.284  13.277  22.869  0.00  0.00    +0.000 C 
ATOM     21  O   UNL     1      -3.363  12.056  22.993  0.00  0.00    +0.000 OA
BRANCH  14  22
ATOM     22  O   UNL     1      -2.900  15.640  20.030  0.00  0.00    +0.000 OA
ATOM     23  H   UNL     1      -2.591  14.980  19.388  0.00  0.00    +0.000 HD
ENDBRANCH  14  22
ENDBRANCH   1  13
BRANCH   1  26
ATOM     24  C   UNL     1      -3.468  11.490  18.245  0.00  0.00    +0.000 A 
ATOM     25  C   UNL     1      -3.129  12.219  19.402  0.00  0.00    +0.000 A 
ATOM     26  C   UNL     1      -1.841  12.164  19.942  0.00  0.00    +0.000 A 
ATOM     27  C   UNL     1      -0.943  11.239  19.389  0.00  0.00    +0.000 A 
ATOM     28  C   UNL     1      -1.262  10.495  18.251  0.00  0.00    +0.000 A 
ATOM     29  C   UNL     1      -2.535  10.604  17.663  0.00  0.00    +0.000 A 
BRANCH  24  31
ATOM     30  C   UNL     1      -5.710  12.244  18.494  0.00  0.00    +0.000 C 
ATOM     31  O   UNL     1      -4.715  11.616  17.687  0.00  0.00    +0.000 OA
ENDBRANCH  24  31
BRANCH  28  32
ATOM     32  O   UNL     1      -0.219   9.699  17.841  0.00  0.00    +0.000 OA
ATOM     33  C   UNL     1       1.054   9.963  18.424  0.00  0.00    +0.000 C 
ENDBRANCH  28  32
BRANCH  29  34
ATOM     34  O   UNL     1      -2.735   9.796  16.579  0.00  0.00    +0.000 OA
ATOM     35  C   UNL     1      -2.798  10.339  15.273  0.00  0.00    +0.000 C 
ENDBRANCH  29  34
ENDBRANCH   1  26
TORSDOF 8
ENDMDL
MODEL 4
REMARK VINA RESULT:      -5.7      0.842      2.755
REMARK  Name = 
REMARK  15 active torsions:
REMARK  status: ('A' for Active; 'I' for Inactive)
REMARK    1  A    between atoms: C_1  and  O_2
REMARK    2  A    between atoms: O_2  and  C_3
REMARK    3  A    between atoms: C_5  and  C_6
REMARK    4  A    between atoms: C_6  and  C_7
REMARK    5  A    between atoms: C_6  and  C_17
REMARK    6  A    between atoms: C_8  and  O_9
REMARK    7  A    between atoms: C_11  and  C_12
REMARK    8  A    between atoms: C_11  and  C_13
REMARK    9  A    between atoms: C_18  and  O_19
REMARK   10  A    between atoms: C_21  and  C_22
REMARK   11  A    between atoms: C_21  and  C_23
REMARK   12  A    between atoms: C_28  and  O_29
REMARK   13  A    between atoms: O_29  and  C_30
REMARK   14  A    between atoms: C_31  and  O_32
REMARK   15  A    between atoms: O_32  and  C_33
REMARK                            x       y       z     vdW  Elec       q    Type
REMARK                         _______ _______ _______ _____ _____    ______ ____
ROOT
ATOM      1  C   UNL     1       0.142  13.016  21.154  0.00  0.00    +0.000 C 
ENDROOT
BRANCH   1   2
ATOM      2  C   UNL     1       0.960  14.007  20.315  0.00  0.00    +0.000 C 
ATOM      3  C   UNL     1       0.538  14.888  19.383  0.00  0.00    +0.000 C 
ATOM      4  C   UNL     1       1.421  15.853  18.638  0.00  0.00    +0.000 C 
ATOM      5  C   UNL     1       2.834  16.034  19.212  0.00  0.00    +0.000 C 
ATOM      6  C   UNL     1       3.722  16.648  18.113  0.00  0.00    +0.000 C 
ATOM      7  C   UNL     1       2.830  16.991  20.421  0.00  0.00    +0.000 C 
ATOM      8  C   UNL     1       3.386  14.668  19.623  0.00  0.00    +0.000 C 
ATOM      9  C   UNL     1       2.448  13.927  20.560  0.00  0.00    +0.000 C 
ATOM     10  O   UNL     1       2.899  13.201  21.439  0.00  0.00    +0.000 OA
BRANCH   3  11
ATOM     11  O   UNL     1      -0.775  15.005  18.969  0.00  0.00    +0.000 OA
ATOM     12  H   UNL     1      -1.111  14.150  18.668  0.00  0.00    +0.000 HD
ENDBRANCH   3  11
ENDBRANCH   1   2
BRANCH   1  13
ATOM     13  C   UNL     1      -0.774  13.598  22.255  0.00  0.00    +0.000 C 
ATOM     14  C   UNL     1      -1.624  12.913  23.057  0.00  0.00    +0.000 C 
ATOM     15  C   UNL     1      -2.758  13.529  23.839  0.00  0.00    +0.000 C 
ATOM     16  C   UNL     1      -2.649  15.039  24.107  0.00  0.00    +0.000 C 
ATOM     17  C   UNL     1      -4.057  15.599  24.378  0.00  0.00    +0.000 C 
ATOM     18  C   UNL     1      -1.769  15.287  25.345  0.00  0.00    +0.000 C 
ATOM     19  C   UNL     1      -2.050  15.736  22.881  0.00  0.00    +0.000 C 
ATOM     20  C   UNL     1      -0.747  15.074  22.486  0.00  0.00    +0.000 C 
ATOM     21  O   UNL     1       0.296  15.714  22.356  0.00  0.00    +0.000 OA
BRANCH  14  22
ATOM     22  O   UNL     1      -1.624  11.536  23.193  0.00  0.00    +0.000 OA
ATOM     23  H   UNL     1      -2.449  11.155  22.850  0.00  0.00    +0.000 HD
ENDBRANCH  14  22
ENDBRANCH   1  13
BRANCH   1  26
ATOM     24  C   UNL     1      -2.675  11.663  18.896  0.00  0.00    +0.000 A 
ATOM     25  C   UNL     1      -1.999  12.323  19.942  0.00  0.00    +0.000 A 
ATOM     26  C   UNL     1      -0.637  12.110  20.172  0.00  0.00    +0.000 A 
ATOM     27  C   UNL     1      -0.002  11.104  19.432  0.00  0.00    +0.000 A 
ATOM     28  C   UNL     1      -0.654  10.427  18.399  0.00  0.00    +0.000 A 
ATOM     29  C   UNL     1      -2.007  10.691  18.118  0.00  0.00    +0.000 A 
BRANCH  24  31
ATOM     30  C   UNL     1      -4.773  12.397  19.742  0.00  0.00    +0.000 C 
ATOM     31  O   UNL     1      -3.993  11.942  18.637  0.00  0.00    +0.000 OA
ENDBRANCH  24  31
BRANCH  28  32
ATOM     32  O   UNL     1       0.169   9.527  17.765  0.00  0.00    +0.000 OA
ATOM     33  C   UNL     1       1.557   9.601  18.078  0.00  0.00    +0.000 C 
ENDBRANCH  28  32
BRANCH  29  34
ATOM     34  O   UNL     1      -2.540   9.936  17.112  0.00  0.00    +0.000 OA
ATOM     35  C   UNL     1      -2.641  10.449  15.797  0.00  0.00    +0.000 C 
ENDBRANCH  29  34
ENDBRANCH   1  26
TORSDOF 8
ENDMDL
MODEL 5
REMARK VINA RESULT:      -5.7      1.913      5.712
REMARK  Name = 
REMARK  15 active torsions:
REMARK  status: ('A' for Active; 'I' for Inactive)
REMARK    1  A    between atoms: C_1  and  O_2
REMARK    2  A    between atoms: O_2  and  C_3
REMARK    3  A    between atoms: C_5  and  C_6
REMARK    4  A    between atoms: C_6  and  C_7
REMARK    5  A    between atoms: C_6  and  C_17
REMARK    6  A    between atoms: C_8  and  O_9
REMARK    7  A    between atoms: C_11  and  C_12
REMARK    8  A    between atoms: C_11  and  C_13
REMARK    9  A    between atoms: C_18  and  O_19
REMARK   10  A    between atoms: C_21  and  C_22
REMARK   11  A    between atoms: C_21  and  C_23
REMARK   12  A    between atoms: C_28  and  O_29
REMARK   13  A    between atoms: O_29  and  C_30
REMARK   14  A    between atoms: C_31  and  O_32
REMARK   15  A    between atoms: O_32  and  C_33
REMARK                            x       y       z     vdW  Elec       q    Type
REMARK                         _______ _______ _______ _____ _____    ______ ____
ROOT
ATOM      1  C   UNL     1      -0.537  12.850  19.867  0.00  0.00    +0.000 C 
ENDROOT
BRANCH   1   2
ATOM      2  C   UNL     1      -1.426  13.111  21.090  0.00  0.00    +0.000 C 
ATOM      3  C   UNL     1      -1.087  13.595  22.304  0.00  0.00    +0.000 C 
ATOM      4  C   UNL     1      -2.047  13.856  23.434  0.00  0.00    +0.000 C 
ATOM      5  C   UNL     1      -3.535  13.849  23.051  0.00  0.00    +0.000 C 
ATOM      6  C   UNL     1      -4.359  13.656  24.338  0.00  0.00    +0.000 C 
ATOM      7  C   UNL     1      -3.954  15.184  22.404  0.00  0.00    +0.000 C 
ATOM      8  C   UNL     1      -3.799  12.690  22.088  0.00  0.00    +0.000 C 
ATOM      9  C   UNL     1      -2.870  12.720  20.886  0.00  0.00    +0.000 C 
ATOM     10  O   UNL     1      -3.266  12.338  19.790  0.00  0.00    +0.000 OA
BRANCH   3  11
ATOM     11  O   UNL     1       0.206  13.898  22.682  0.00  0.00    +0.000 OA
ATOM     12  H   UNL     1       0.715  13.087  22.824  0.00  0.00    +0.000 HD
ENDBRANCH   3  11
ENDBRANCH   1   2
BRANCH   1  13
ATOM     13  C   UNL     1       0.576  13.877  19.560  0.00  0.00    +0.000 C 
ATOM     14  C   UNL     1       0.439  15.070  18.934  0.00  0.00    +0.000 C 
ATOM     15  C   UNL     1       1.569  15.860  18.321  0.00  0.00    +0.000 C 
ATOM     16  C   UNL     1       2.978  15.532  18.840  0.00  0.00    +0.000 C 
ATOM     17  C   UNL     1       4.010  15.960  17.782  0.00  0.00    +0.000 C 
ATOM     18  C   UNL     1       3.249  16.309  20.141  0.00  0.00    +0.000 C 
ATOM     19  C   UNL     1       3.096  14.024  19.087  0.00  0.00    +0.000 C 
ATOM     20  C   UNL     1       1.972  13.550  19.984  0.00  0.00    +0.000 C 
ATOM     21  O   UNL     1       2.186  12.921  21.020  0.00  0.00    +0.000 OA
BRANCH  14  22
ATOM     22  O   UNL     1      -0.779  15.682  18.689  0.00  0.00    +0.000 OA
ATOM     23  H   UNL     1      -1.036  16.248  19.435  0.00  0.00    +0.000 HD
ENDBRANCH  14  22
ENDBRANCH   1  13
BRANCH   1  26
ATOM     24  C   UNL     1       1.066   9.463  18.958  0.00  0.00    +0.000 A 
ATOM     25  C   UNL     1       0.354  10.675  18.860  0.00  0.00    +0.000 A 
ATOM     26  C   UNL     1       0.022  11.414  19.999  0.00  0.00    +0.000 A 
ATOM     27  C   UNL     1       0.281  10.834  21.249  0.00  0.00    +0.000 A 
ATOM     28  C   UNL     1       0.974   9.627  21.371  0.00  0.00    +0.000 A 
ATOM     29  C   UNL     1       1.373   8.917  20.225  0.00  0.00    +0.000 A 
BRANCH  24  31
ATOM     30  C   UNL     1       2.845   8.521  17.691  0.00  0.00    +0.000 C 
ATOM     31  O   UNL     1       1.451   8.792  17.825  0.00  0.00    +0.000 OA
ENDBRANCH  24  31
BRANCH  28  32
ATOM     32  O   UNL     1       1.173   9.272  22.684  0.00  0.00    +0.000 OA
ATOM     33  C   UNL     1       0.073   9.454  23.569  0.00  0.00    +0.000 C 
ENDBRANCH  28  32
BRANCH  29  34
ATOM     34  O   UNL     1       2.007   7.733  20.477  0.00  0.00    +0.000 OA
ATOM     35  C   UNL     1       1.274   6.527  20.581  0.00  0.00    +0.000 C 
ENDBRANCH  29  34
ENDBRANCH   1  26
TORSDOF 8
ENDMDL
MODEL 6
REMARK VINA RESULT:      -5.6      2.133      5.042
REMARK  Name = 
REMARK  15 active torsions:
REMARK  status: ('A' for Active; 'I' for Inactive)
REMARK    1  A    between atoms: C_1  and  O_2
REMARK    2  A    between atoms: O_2  and  C_3
REMARK    3  A    between atoms: C_5  and  C_6
REMARK    4  A    between atoms: C_6  and  C_7
REMARK    5  A    between atoms: C_6  and  C_17
REMARK    6  A    between atoms: C_8  and  O_9
REMARK    7  A    between atoms: C_11  and  C_12
REMARK    8  A    between atoms: C_11  and  C_13
REMARK    9  A    between atoms: C_18  and  O_19
REMARK   10  A    between atoms: C_21  and  C_22
REMARK   11  A    between atoms: C_21  and  C_23
REMARK   12  A    between atoms: C_28  and  O_29
REMARK   13  A    between atoms: O_29  and  C_30
REMARK   14  A    between atoms: C_31  and  O_32
REMARK   15  A    between atoms: O_32  and  C_33
REMARK                            x       y       z     vdW  Elec       q    Type
REMARK                         _______ _______ _______ _____ _____    ______ ____
ROOT
ATOM      1  C   UNL     1      -1.058  12.509  20.884  0.00  0.00    +0.000 C 
ENDROOT
BRANCH   1   2
ATOM      2  C   UNL     1      -0.391  11.131  20.788  0.00  0.00    +0.000 C 
ATOM      3  C   UNL     1       0.393  10.627  19.811  0.00  0.00    +0.000 C 
ATOM      4  C   UNL     1       1.038   9.267  19.828  0.00  0.00    +0.000 C 
ATOM      5  C   UNL     1       1.036   8.553  21.188  0.00  0.00    +0.000 C 
ATOM      6  C   UNL     1       1.283   7.053  20.941  0.00  0.00    +0.000 C 
ATOM      7  C   UNL     1       2.157   9.083  22.103  0.00  0.00    +0.000 C 
ATOM      8  C   UNL     1      -0.327   8.751  21.856  0.00  0.00    +0.000 C 
ATOM      9  C   UNL     1      -0.713  10.218  21.947  0.00  0.00    +0.000 C 
ATOM     10  O   UNL     1      -1.361  10.627  22.904  0.00  0.00    +0.000 OA
BRANCH   3  11
ATOM     11  O   UNL     1       0.691  11.295  18.639  0.00  0.00    +0.000 OA
ATOM     12  H   UNL     1       0.094  12.046  18.517  0.00  0.00    +0.000 HD
ENDBRANCH   3  11
ENDBRANCH   1   2
BRANCH   1  13
ATOM     13  C   UNL     1      -0.207  13.743  20.508  0.00  0.00    +0.000 C 
ATOM     14  C   UNL     1      -0.035  14.272  19.273  0.00  0.00    +0.000 C 
ATOM     15  C   UNL     1       1.075  15.217  18.884  0.00  0.00    +0.000 C 
ATOM     16  C   UNL     1       1.750  15.974  20.040  0.00  0.00    +0.000 C 
ATOM     17  C   UNL     1       3.153  16.419  19.591  0.00  0.00    +0.000 C 
ATOM     18  C   UNL     1       0.924  17.222  20.400  0.00  0.00    +0.000 C 
ATOM     19  C   UNL     1       1.873  15.049  21.256  0.00  0.00    +0.000 C 
ATOM     20  C   UNL     1       0.525  14.454  21.601  0.00  0.00    +0.000 C 
ATOM     21  O   UNL     1       0.042  14.543  22.729  0.00  0.00    +0.000 OA
BRANCH  14  22
ATOM     22  O   UNL     1      -0.806  13.940  18.172  0.00  0.00    +0.000 OA
ATOM     23  H   UNL     1      -0.996  12.988  18.159  0.00  0.00    +0.000 HD
ENDBRANCH  14  22
ENDBRANCH   1  13
BRANCH   1  26
ATOM     24  C   UNL     1      -3.694  11.406  18.295  0.00  0.00    +0.000 A 
ATOM     25  C   UNL     1      -2.456  11.656  18.921  0.00  0.00    +0.000 A 
ATOM     26  C   UNL     1      -2.373  12.444  20.072  0.00  0.00    +0.000 A 
ATOM     27  C   UNL     1      -3.535  13.105  20.493  0.00  0.00    +0.000 A 
ATOM     28  C   UNL     1      -4.771  12.884  19.881  0.00  0.00    +0.000 A 
ATOM     29  C   UNL     1      -4.869  12.034  18.765  0.00  0.00    +0.000 A 
BRANCH  24  31
ATOM     30  C   UNL     1      -3.006  10.949  16.065  0.00  0.00    +0.000 C 
ATOM     31  O   UNL     1      -3.766  10.568  17.211  0.00  0.00    +0.000 OA
ENDBRANCH  24  31
BRANCH  28  32
ATOM     32  O   UNL     1      -5.786  13.583  20.490  0.00  0.00    +0.000 OA
ATOM     33  C   UNL     1      -6.397  12.969  21.620  0.00  0.00    +0.000 C 
ENDBRANCH  28  32
BRANCH  29  34
ATOM     34  O   UNL     1      -6.124  11.930  18.233  0.00  0.00    +0.000 OA
ATOM     35  C   UNL     1      -6.536  12.781  17.179  0.00  0.00    +0.000 C 
ENDBRANCH  29  34
ENDBRANCH   1  26
TORSDOF 8
ENDMDL
MODEL 7
REMARK VINA RESULT:      -5.6      2.209      5.225
REMARK  Name = 
REMARK  15 active torsions:
REMARK  status: ('A' for Active; 'I' for Inactive)
REMARK    1  A    between atoms: C_1  and  O_2
REMARK    2  A    between atoms: O_2  and  C_3
REMARK    3  A    between atoms: C_5  and  C_6
REMARK    4  A    between atoms: C_6  and  C_7
REMARK    5  A    between atoms: C_6  and  C_17
REMARK    6  A    between atoms: C_8  and  O_9
REMARK    7  A    between atoms: C_11  and  C_12
REMARK    8  A    between atoms: C_11  and  C_13
REMARK    9  A    between atoms: C_18  and  O_19
REMARK   10  A    between atoms: C_21  and  C_22
REMARK   11  A    between atoms: C_21  and  C_23
REMARK   12  A    between atoms: C_28  and  O_29
REMARK   13  A    between atoms: O_29  and  C_30
REMARK   14  A    between atoms: C_31  and  O_32
REMARK   15  A    between atoms: O_32  and  C_33
REMARK                            x       y       z     vdW  Elec       q    Type
REMARK                         _______ _______ _______ _____ _____    ______ ____
ROOT
ATOM      1  C   UNL     1      -0.951  12.635  20.802  0.00  0.00    +0.000 C 
ENDROOT
BRANCH   1   2
ATOM      2  C   UNL     1      -0.307  11.242  20.771  0.00  0.00    +0.000 C 
ATOM      3  C   UNL     1       0.535  10.711  19.859  0.00  0.00    +0.000 C 
ATOM      4  C   UNL     1       1.149   9.339  19.939  0.00  0.00    +0.000 C 
ATOM      5  C   UNL     1       1.033   8.642  21.302  0.00  0.00    +0.000 C 
ATOM      6  C   UNL     1       1.266   7.134  21.090  0.00  0.00    +0.000 C 
ATOM      7  C   UNL     1       2.095   9.161  22.291  0.00  0.00    +0.000 C 
ATOM      8  C   UNL     1      -0.371   8.876  21.866  0.00  0.00    +0.000 C 
ATOM      9  C   UNL     1      -0.732  10.350  21.912  0.00  0.00    +0.000 C 
ATOM     10  O   UNL     1      -1.440  10.784  22.815  0.00  0.00    +0.000 OA
BRANCH   3  11
ATOM     11  O   UNL     1       0.932  11.358  18.705  0.00  0.00    +0.000 OA
ATOM     12  H   UNL     1       1.785  11.794  18.838  0.00  0.00    +0.000 HD
ENDBRANCH   3  11
ENDBRANCH   1   2
BRANCH   1  13
ATOM     13  C   UNL     1      -0.098  13.828  20.316  0.00  0.00    +0.000 C 
ATOM     14  C   UNL     1       0.826  14.516  21.028  0.00  0.00    +0.000 C 
ATOM     15  C   UNL     1       1.355  15.882  20.665  0.00  0.00    +0.000 C 
ATOM     16  C   UNL     1       1.195  16.296  19.193  0.00  0.00    +0.000 C 
ATOM     17  C   UNL     1       1.238  17.832  19.102  0.00  0.00    +0.000 C 
ATOM     18  C   UNL     1       2.352  15.716  18.360  0.00  0.00    +0.000 C 
ATOM     19  C   UNL     1      -0.150  15.790  18.661  0.00  0.00    +0.000 C 
ATOM     20  C   UNL     1      -0.287  14.304  18.911  0.00  0.00    +0.000 C 
ATOM     21  O   UNL     1      -0.545  13.511  18.006  0.00  0.00    +0.000 OA
BRANCH  14  22
ATOM     22  O   UNL     1       1.341  14.096  22.242  0.00  0.00    +0.000 OA
ATOM     23  H   UNL     1       0.629  13.944  22.885  0.00  0.00    +0.000 HD
ENDBRANCH  14  22
ENDBRANCH   1  13
BRANCH   1  26
ATOM     24  C   UNL     1      -3.672  11.459  18.336  0.00  0.00    +0.000 A 
ATOM     25  C   UNL     1      -2.414  11.735  18.908  0.00  0.00    +0.000 A 
ATOM     26  C   UNL     1      -2.296  12.540  20.045  0.00  0.00    +0.000 A 
ATOM     27  C   UNL     1      -3.451  13.189  20.505  0.00  0.00    +0.000 A 
ATOM     28  C   UNL     1      -4.707  12.941  19.946  0.00  0.00    +0.000 A 
ATOM     29  C   UNL     1      -4.837  12.075  18.845  0.00  0.00    +0.000 A 
BRANCH  24  31
ATOM     30  C   UNL     1      -2.792  10.752  16.243  0.00  0.00    +0.000 C 
ATOM     31  O   UNL     1      -3.775  10.606  17.267  0.00  0.00    +0.000 OA
ENDBRANCH  24  31
BRANCH  28  32
ATOM     32  O   UNL     1      -5.707  13.633  20.586  0.00  0.00    +0.000 OA
ATOM     33  C   UNL     1      -6.146  13.111  21.836  0.00  0.00    +0.000 C 
ENDBRANCH  28  32
BRANCH  29  34
ATOM     34  O   UNL     1      -6.111  11.946  18.366  0.00  0.00    +0.000 OA
ATOM     35  C   UNL     1      -6.927  10.860  18.763  0.00  0.00    +0.000 C 
ENDBRANCH  29  34
ENDBRANCH   1  26
TORSDOF 8
ENDMDL
MODEL 8
REMARK VINA RESULT:      -5.6      1.650      2.708
REMARK  Name = 
REMARK  15 active torsions:
REMARK  status: ('A' for Active; 'I' for Inactive)
REMARK    1  A    between atoms: C_1  and  O_2
REMARK    2  A    between atoms: O_2  and  C_3
REMARK    3  A    between atoms: C_5  and  C_6
REMARK    4  A    between atoms: C_6  and  C_7
REMARK    5  A    between atoms: C_6  and  C_17
REMARK    6  A    between atoms: C_8  and  O_9
REMARK    7  A    between atoms: C_11  and  C_12
REMARK    8  A    between atoms: C_11  and  C_13
REMARK    9  A    between atoms: C_18  and  O_19
REMARK   10  A    between atoms: C_21  and  C_22
REMARK   11  A    between atoms: C_21  and  C_23
REMARK   12  A    between atoms: C_28  and  O_29
REMARK   13  A    between atoms: O_29  and  C_30
REMARK   14  A    between atoms: C_31  and  O_32
REMARK   15  A    between atoms: O_32  and  C_33
REMARK                            x       y       z     vdW  Elec       q    Type
REMARK                         _______ _______ _______ _____ _____    ______ ____
ROOT
ATOM      1  C   UNL     1      -1.340  12.876  21.216  0.00  0.00    +0.000 C 
ENDROOT
BRANCH   1   2
ATOM      2  C   UNL     1      -0.187  13.472  20.398  0.00  0.00    +0.000 C 
ATOM      3  C   UNL     1      -0.180  14.561  19.601  0.00  0.00    +0.000 C 
ATOM      4  C   UNL     1       1.023  15.092  18.866  0.00  0.00    +0.000 C 
ATOM      5  C   UNL     1       2.375  14.517  19.311  0.00  0.00    +0.000 C 
ATOM      6  C   UNL     1       3.400  14.784  18.193  0.00  0.00    +0.000 C 
ATOM      7  C   UNL     1       2.878  15.198  20.600  0.00  0.00    +0.000 C 
ATOM      8  C   UNL     1       2.230  13.010  19.533  0.00  0.00    +0.000 C 
ATOM      9  C   UNL     1       1.094  12.677  20.485  0.00  0.00    +0.000 C 
ATOM     10  O   UNL     1       1.183  11.716  21.241  0.00  0.00    +0.000 OA
BRANCH   3  11
ATOM     11  O   UNL     1      -1.295  15.330  19.332  0.00  0.00    +0.000 OA
ATOM     12  H   UNL     1      -1.178  16.226  19.676  0.00  0.00    +0.000 HD
ENDBRANCH   3  11
ENDBRANCH   1   2
BRANCH   1  13
ATOM     13  C   UNL     1      -1.801  13.652  22.471  0.00  0.00    +0.000 C 
ATOM     14  C   UNL     1      -2.656  13.223  23.430  0.00  0.00    +0.000 C 
ATOM     15  C   UNL     1      -3.369  14.117  24.415  0.00  0.00    +0.000 C 
ATOM     16  C   UNL     1      -2.742  15.501  24.644  0.00  0.00    +0.000 C 
ATOM     17  C   UNL     1      -3.824  16.454  25.182  0.00  0.00    +0.000 C 
ATOM     18  C   UNL     1      -1.611  15.396  25.684  0.00  0.00    +0.000 C 
ATOM     19  C   UNL     1      -2.197  16.043  23.319  0.00  0.00    +0.000 C 
ATOM     20  C   UNL     1      -1.268  15.033  22.681  0.00  0.00    +0.000 C 
ATOM     21  O   UNL     1      -0.120  15.324  22.344  0.00  0.00    +0.000 OA
BRANCH  14  22
ATOM     22  O   UNL     1      -3.064  11.908  23.574  0.00  0.00    +0.000 OA
ATOM     23  H   UNL     1      -3.250  11.508  22.709  0.00  0.00    +0.000 HD
ENDBRANCH  14  22
ENDBRANCH   1  13
BRANCH   1  26
ATOM     24  C   UNL     1      -3.442  11.313  18.387  0.00  0.00    +0.000 A 
ATOM     25  C   UNL     1      -2.341  11.745  19.154  0.00  0.00    +0.000 A 
ATOM     26  C   UNL     1      -2.509  12.607  20.241  0.00  0.00    +0.000 A 
ATOM     27  C   UNL     1      -3.785  13.152  20.448  0.00  0.00    +0.000 A 
ATOM     28  C   UNL     1      -4.888  12.748  19.693  0.00  0.00    +0.000 A 
ATOM     29  C   UNL     1      -4.733  11.825  18.643  0.00  0.00    +0.000 A 
BRANCH  24  31
ATOM     30  C   UNL     1      -2.667  10.903  16.176  0.00  0.00    +0.000 C 
ATOM     31  O   UNL     1      -3.266  10.407  17.372  0.00  0.00    +0.000 OA
ENDBRANCH  24  31
BRANCH  28  32
ATOM     32  O   UNL     1      -6.050  13.360  20.101  0.00  0.00    +0.000 OA
ATOM     33  C   UNL     1      -6.544  12.998  21.387  0.00  0.00    +0.000 C 
ENDBRANCH  28  32
BRANCH  29  34
ATOM     34  O   UNL     1      -5.880  11.542  17.956  0.00  0.00    +0.000 OA
ATOM     35  C   UNL     1      -6.817  10.610  18.462  0.00  0.00    +0.000 C 
ENDBRANCH  29  34
ENDBRANCH   1  26
TORSDOF 8
ENDMDL
MODEL 9
REMARK VINA RESULT:      -5.6      2.005      6.633
REMARK  Name = 
REMARK  15 active torsions:
REMARK  status: ('A' for Active; 'I' for Inactive)
REMARK    1  A    between atoms: C_1  and  O_2
REMARK    2  A    between atoms: O_2  and  C_3
REMARK    3  A    between atoms: C_5  and  C_6
REMARK    4  A    between atoms: C_6  and  C_7
REMARK    5  A    between atoms: C_6  and  C_17
REMARK    6  A    between atoms: C_8  and  O_9
REMARK    7  A    between atoms: C_11  and  C_12
REMARK    8  A    between atoms: C_11  and  C_13
REMARK    9  A    between atoms: C_18  and  O_19
REMARK   10  A    between atoms: C_21  and  C_22
REMARK   11  A    between atoms: C_21  and  C_23
REMARK   12  A    between atoms: C_28  and  O_29
REMARK   13  A    between atoms: O_29  and  C_30
REMARK   14  A    between atoms: C_31  and  O_32
REMARK   15  A    between atoms: O_32  and  C_33
REMARK                            x       y       z     vdW  Elec       q    Type
REMARK                         _______ _______ _______ _____ _____    ______ ____
ROOT
ATOM      1  C   UNL     1      -0.120  13.989  21.472  0.00  0.00    +0.000 C 
ENDROOT
BRANCH   1   2
ATOM      2  C   UNL     1      -1.533  14.274  21.997  0.00  0.00    +0.000 C 
ATOM      3  C   UNL     1      -2.717  14.174  21.356  0.00  0.00    +0.000 C 
ATOM      4  C   UNL     1      -4.064  14.440  21.975  0.00  0.00    +0.000 C 
ATOM      5  C   UNL     1      -4.080  14.532  23.508  0.00  0.00    +0.000 C 
ATOM      6  C   UNL     1      -5.374  15.253  23.931  0.00  0.00    +0.000 C 
ATOM      7  C   UNL     1      -4.074  13.132  24.154  0.00  0.00    +0.000 C 
ATOM      8  C   UNL     1      -2.863  15.333  23.975  0.00  0.00    +0.000 C 
ATOM      9  C   UNL     1      -1.563  14.777  23.420  0.00  0.00    +0.000 C 
ATOM     10  O   UNL     1      -0.535  14.829  24.087  0.00  0.00    +0.000 OA
BRANCH   3  11
ATOM     11  O   UNL     1      -2.850  13.833  20.025  0.00  0.00    +0.000 OA
ATOM     12  H   UNL     1      -2.051  13.388  19.709  0.00  0.00    +0.000 HD
ENDBRANCH   3  11
ENDBRANCH   1   2
BRANCH   1  13
ATOM     13  C   UNL     1       0.083  12.715  20.621  0.00  0.00    +0.000 C 
ATOM     14  C   UNL     1       0.241  11.447  21.071  0.00  0.00    +0.000 C 
ATOM     15  C   UNL     1       0.805  10.306  20.260  0.00  0.00    +0.000 C 
ATOM     16  C   UNL     1       0.755  10.477  18.733  0.00  0.00    +0.000 C 
ATOM     17  C   UNL     1       1.823   9.570  18.096  0.00  0.00    +0.000 C 
ATOM     18  C   UNL     1      -0.630  10.058  18.206  0.00  0.00    +0.000 C 
ATOM     19  C   UNL     1       1.043  11.937  18.370  0.00  0.00    +0.000 C 
ATOM     20  C   UNL     1       0.117  12.860  19.133  0.00  0.00    +0.000 C 
ATOM     21  O   UNL     1      -0.582  13.698  18.565  0.00  0.00    +0.000 OA
BRANCH  14  22
ATOM     22  O   UNL     1      -0.010  11.049  22.372  0.00  0.00    +0.000 OA
ATOM     23  H   UNL     1       0.285  11.727  23.003  0.00  0.00    +0.000 HD
ENDBRANCH  14  22
ENDBRANCH   1  13
BRANCH   1  26
ATOM     24  C   UNL     1       2.034  16.360  19.326  0.00  0.00    +0.000 A 
ATOM     25  C   UNL     1       1.650  15.311  20.186  0.00  0.00    +0.000 A 
ATOM     26  C   UNL     1       0.367  15.259  20.737  0.00  0.00    +0.000 A 
ATOM     27  C   UNL     1      -0.474  16.363  20.534  0.00  0.00    +0.000 A 
ATOM     28  C   UNL     1      -0.110  17.420  19.697  0.00  0.00    +0.000 A 
ATOM     29  C   UNL     1       1.155  17.439  19.083  0.00  0.00    +0.000 A 
BRANCH  24  31
ATOM     30  C   UNL     1       3.434  15.483  17.616  0.00  0.00    +0.000 C 
ATOM     31  O   UNL     1       3.271  16.354  18.734  0.00  0.00    +0.000 OA
ENDBRANCH  24  31
BRANCH  28  32
ATOM     32  O   UNL     1      -1.104  18.365  19.591  0.00  0.00    +0.000 OA
ATOM     33  C   UNL     1      -2.179  18.064  18.707  0.00  0.00    +0.000 C 
ENDBRANCH  28  32
BRANCH  29  34
ATOM     34  O   UNL     1       1.405  18.546  18.321  0.00  0.00    +0.000 OA
ATOM     35  C   UNL     1       1.111  18.552  16.936  0.00  0.00    +0.000 C 
ENDBRANCH  29  34
ENDBRANCH   1  26
TORSDOF 8
ENDMDL
