MODEL 1
REMARK VINA RESULT:      -6.9      0.000      0.000
REMARK  Name = 
REMARK  15 active torsions:
REMARK  status: ('A' for Active; 'I' for Inactive)
REMARK    1  A    between atoms: C_1  and  C_2
REMARK    2  A    between atoms: C_2  and  C_3
REMARK    3  A    between atoms: C_3  and  C_4
REMARK    4  A    between atoms: C_4  and  C_5
REMARK    5  A    between atoms: C_5  and  C_6
REMARK    6  A    between atoms: C_6  and  C_7
REMARK    7  A    between atoms: C_7  and  O_8
REMARK    8  A    between atoms: O_8  and  C_9
REMARK    9  A    between atoms: C_12  and  C_13
REMARK   10  A    between atoms: C_13  and  C_14
REMARK   11  A    between atoms: C_14  and  C_15
REMARK   12  A    between atoms: C_15  and  C_16
REMARK   13  A    between atoms: C_15  and  N_17
REMARK   14  A    between atoms: C_15  and  C_18
REMARK   15  A    between atoms: C_18  and  O_19
REMARK                            x       y       z     vdW  Elec       q    Type
REMARK                         _______ _______ _______ _____ _____    ______ ____
ROOT
ATOM      1  C   UNL     1       6.045   5.558  15.690  0.00  0.00    +0.000 A 
ATOM      2  C   UNL     1       5.084   6.481  16.103  0.00  0.00    +0.000 A 
ATOM      3  C   UNL     1       4.450   6.344  17.332  0.00  0.00    +0.000 A 
ATOM      4  C   UNL     1       4.744   5.267  18.170  0.00  0.00    +0.000 A 
ATOM      5  C   UNL     1       5.719   4.344  17.765  0.00  0.00    +0.000 A 
ATOM      6  C   UNL     1       6.365   4.491  16.532  0.00  0.00    +0.000 A 
ENDROOT
BRANCH   1   7
ATOM      7  O   UNL     1       6.721   5.614  14.494  0.00  0.00    +0.000 OA
BRANCH   7   8
ATOM      8  C   UNL     1       6.892   4.343  13.868  0.00  0.00    +0.000 C 
BRANCH   8   9
ATOM      9  C   UNL     1       5.571   3.804  13.344  0.00  0.00    +0.000 C 
BRANCH   9  10
ATOM     10  C   UNL     1       5.772   3.316  11.910  0.00  0.00    +0.000 C 
BRANCH  10  11
ATOM     11  C   UNL     1       4.481   2.772  11.316  0.00  0.00    +0.000 C 
BRANCH  11  12
ATOM     12  C   UNL     1       3.538   3.908  10.923  0.00  0.00    +0.000 C 
BRANCH  12  14
ATOM     13  C   UNL     1       2.266   4.956   9.021  0.00  0.00    +0.000 C 
ATOM     14  C   UNL     1       3.128   3.785   9.458  0.00  0.00    +0.000 C 
ENDBRANCH  12  14
ENDBRANCH  11  12
ENDBRANCH  10  11
ENDBRANCH   9  10
ENDBRANCH   8   9
ENDBRANCH   7   8
ENDBRANCH   1   7
BRANCH   4  15
ATOM     15  C   UNL     1       4.024   5.142  19.491  0.00  0.00    +0.000 C 
BRANCH  15  16
ATOM     16  C   UNL     1       2.493   5.137  19.319  0.00  0.00    +0.000 C 
BRANCH  16  17
ATOM     17  C   UNL     1       1.837   3.742  19.181  0.00  0.00    +0.000 C 
ATOM     18  C   UNL     1       0.700   3.557  20.193  0.00  0.00    +0.000 C 
BRANCH  17  19
ATOM     19  N   UNL     1       1.318   3.571  17.804  0.00  0.00    +0.000 NA
ATOM     20  H   UNL     1       2.069   3.268  17.187  0.00  0.00    +0.000 HD
ATOM     21  H   UNL     1       1.024   4.480  17.437  0.00  0.00    +0.000 HD
ENDBRANCH  17  19
BRANCH  17  22
ATOM     22  C   UNL     1       2.907   2.638  19.422  0.00  0.00    +0.000 C 
BRANCH  22  23
ATOM     23  O   UNL     1       2.821   1.615  18.431  0.00  0.00    +0.000 OA
ATOM     24  H   UNL     1       3.284   1.982  17.651  0.00  0.00    +0.000 HD
ENDBRANCH  22  23
ENDBRANCH  17  22
ENDBRANCH  16  17
ENDBRANCH  15  16
ENDBRANCH   4  15
TORSDOF 13
ENDMDL
MODEL 2
REMARK VINA RESULT:      -6.8      1.924      2.548
REMARK  Name = 
REMARK  15 active torsions:
REMARK  status: ('A' for Active; 'I' for Inactive)
REMARK    1  A    between atoms: C_1  and  C_2
REMARK    2  A    between atoms: C_2  and  C_3
REMARK    3  A    between atoms: C_3  and  C_4
REMARK    4  A    between atoms: C_4  and  C_5
REMARK    5  A    between atoms: C_5  and  C_6
REMARK    6  A    between atoms: C_6  and  C_7
REMARK    7  A    between atoms: C_7  and  O_8
REMARK    8  A    between atoms: O_8  and  C_9
REMARK    9  A    between atoms: C_12  and  C_13
REMARK   10  A    between atoms: C_13  and  C_14
REMARK   11  A    between atoms: C_14  and  C_15
REMARK   12  A    between atoms: C_15  and  C_16
REMARK   13  A    between atoms: C_15  and  N_17
REMARK   14  A    between atoms: C_15  and  C_18
REMARK   15  A    between atoms: C_18  and  O_19
REMARK                            x       y       z     vdW  Elec       q    Type
REMARK                         _______ _______ _______ _____ _____    ______ ____
ROOT
ATOM      1  C   UNL     1       5.349   5.823  16.441  0.00  0.00    +0.000 A 
ATOM      2  C   UNL     1       4.740   6.802  17.228  0.00  0.00    +0.000 A 
ATOM      3  C   UNL     1       3.627   6.499  18.002  0.00  0.00    +0.000 A 
ATOM      4  C   UNL     1       3.079   5.216  17.993  0.00  0.00    +0.000 A 
ATOM      5  C   UNL     1       3.695   4.225  17.215  0.00  0.00    +0.000 A 
ATOM      6  C   UNL     1       4.824   4.529  16.445  0.00  0.00    +0.000 A 
ENDROOT
BRANCH   1   7
ATOM      7  O   UNL     1       6.450   6.031  15.646  0.00  0.00    +0.000 OA
BRANCH   7   8
ATOM      8  C   UNL     1       7.018   4.832  15.121  0.00  0.00    +0.000 C 
BRANCH   8   9
ATOM      9  C   UNL     1       6.901   4.781  13.607  0.00  0.00    +0.000 C 
BRANCH   9  10
ATOM     10  C   UNL     1       6.315   3.429  13.202  0.00  0.00    +0.000 C 
BRANCH  10  11
ATOM     11  C   UNL     1       5.440   3.546  11.963  0.00  0.00    +0.000 C 
BRANCH  11  12
ATOM     12  C   UNL     1       5.138   2.169  11.374  0.00  0.00    +0.000 C 
BRANCH  12  14
ATOM     13  C   UNL     1       6.175  -0.122  11.294  0.00  0.00    +0.000 C 
ATOM     14  C   UNL     1       6.424   1.372  11.181  0.00  0.00    +0.000 C 
ENDBRANCH  12  14
ENDBRANCH  11  12
ENDBRANCH  10  11
ENDBRANCH   9  10
ENDBRANCH   8   9
ENDBRANCH   7   8
ENDBRANCH   1   7
BRANCH   4  15
ATOM     15  C   UNL     1       1.860   4.928  18.835  0.00  0.00    +0.000 C 
BRANCH  15  16
ATOM     16  C   UNL     1       2.230   4.572  20.287  0.00  0.00    +0.000 C 
BRANCH  16  17
ATOM     17  C   UNL     1       2.326   3.059  20.604  0.00  0.00    +0.000 C 
ATOM     18  C   UNL     1       3.759   2.542  20.427  0.00  0.00    +0.000 C 
BRANCH  17  19
ATOM     19  N   UNL     1       1.870   2.813  21.992  0.00  0.00    +0.000 NA
ATOM     20  H   UNL     1       1.869   1.813  22.183  0.00  0.00    +0.000 HD
ATOM     21  H   UNL     1       0.893   3.102  22.085  0.00  0.00    +0.000 HD
ENDBRANCH  17  19
BRANCH  17  22
ATOM     22  C   UNL     1       1.386   2.268  19.651  0.00  0.00    +0.000 C 
BRANCH  22  23
ATOM     23  O   UNL     1       2.137   1.464  18.741  0.00  0.00    +0.000 OA
ATOM     24  H   UNL     1       2.381   2.071  18.013  0.00  0.00    +0.000 HD
ENDBRANCH  22  23
ENDBRANCH  17  22
ENDBRANCH  16  17
ENDBRANCH  15  16
ENDBRANCH   4  15
TORSDOF 13
ENDMDL
MODEL 3
REMARK VINA RESULT:      -6.7      2.993      6.635
REMARK  Name = 
REMARK  15 active torsions:
REMARK  status: ('A' for Active; 'I' for Inactive)
REMARK    1  A    between atoms: C_1  and  C_2
REMARK    2  A    between atoms: C_2  and  C_3
REMARK    3  A    between atoms: C_3  and  C_4
REMARK    4  A    between atoms: C_4  and  C_5
REMARK    5  A    between atoms: C_5  and  C_6
REMARK    6  A    between atoms: C_6  and  C_7
REMARK    7  A    between atoms: C_7  and  O_8
REMARK    8  A    between atoms: O_8  and  C_9
REMARK    9  A    between atoms: C_12  and  C_13
REMARK   10  A    between atoms: C_13  and  C_14
REMARK   11  A    between atoms: C_14  and  C_15
REMARK   12  A    between atoms: C_15  and  C_16
REMARK   13  A    between atoms: C_15  and  N_17
REMARK   14  A    between atoms: C_15  and  C_18
REMARK   15  A    between atoms: C_18  and  O_19
REMARK                            x       y       z     vdW  Elec       q    Type
REMARK                         _______ _______ _______ _____ _____    ______ ____
ROOT
ATOM      1  C   UNL     1       3.011   6.012  19.692  0.00  0.00    +0.000 A 
ATOM      2  C   UNL     1       4.282   5.438  19.629  0.00  0.00    +0.000 A 
ATOM      3  C   UNL     1       5.126   5.700  18.557  0.00  0.00    +0.000 A 
ATOM      4  C   UNL     1       4.714   6.522  17.508  0.00  0.00    +0.000 A 
ATOM      5  C   UNL     1       3.443   7.111  17.572  0.00  0.00    +0.000 A 
ATOM      6  C   UNL     1       2.598   6.857  18.659  0.00  0.00    +0.000 A 
ENDROOT
BRANCH   1   7
ATOM      7  O   UNL     1       2.110   5.811  20.710  0.00  0.00    +0.000 OA
BRANCH   7   8
ATOM      8  C   UNL     1       1.929   4.438  21.056  0.00  0.00    +0.000 C 
BRANCH   8   9
ATOM      9  C   UNL     1       0.668   3.872  20.424  0.00  0.00    +0.000 C 
BRANCH   9  10
ATOM     10  C   UNL     1       1.064   2.844  19.366  0.00  0.00    +0.000 C 
BRANCH  10  11
ATOM     11  C   UNL     1       1.312   3.497  18.014  0.00  0.00    +0.000 C 
BRANCH  11  12
ATOM     12  C   UNL     1       2.509   2.862  17.309  0.00  0.00    +0.000 C 
BRANCH  12  14
ATOM     13  C   UNL     1       3.943   1.074  18.349  0.00  0.00    +0.000 C 
ATOM     14  C   UNL     1       3.623   2.558  18.306  0.00  0.00    +0.000 C 
ENDBRANCH  12  14
ENDBRANCH  11  12
ENDBRANCH  10  11
ENDBRANCH   9  10
ENDBRANCH   8   9
ENDBRANCH   7   8
ENDBRANCH   1   7
BRANCH   4  15
ATOM     15  C   UNL     1       5.653   6.770  16.352  0.00  0.00    +0.000 C 
BRANCH  15  16
ATOM     16  C   UNL     1       5.364   5.839  15.160  0.00  0.00    +0.000 C 
BRANCH  16  17
ATOM     17  C   UNL     1       6.460   4.791  14.845  0.00  0.00    +0.000 C 
ATOM     18  C   UNL     1       6.076   3.928  13.637  0.00  0.00    +0.000 C 
BRANCH  17  19
ATOM     19  N   UNL     1       7.744   5.480  14.584  0.00  0.00    +0.000 NA
ATOM     20  H   UNL     1       7.854   5.639  13.584  0.00  0.00    +0.000 HD
ATOM     21  H   UNL     1       8.519   4.863  14.841  0.00  0.00    +0.000 HD
ENDBRANCH  17  19
BRANCH  17  22
ATOM     22  C   UNL     1       6.662   3.865  16.079  0.00  0.00    +0.000 C 
BRANCH  22  23
ATOM     23  O   UNL     1       7.896   4.152  16.738  0.00  0.00    +0.000 OA
ATOM     24  H   UNL     1       7.960   5.128  16.733  0.00  0.00    +0.000 HD
ENDBRANCH  22  23
ENDBRANCH  17  22
ENDBRANCH  16  17
ENDBRANCH  15  16
ENDBRANCH   4  15
TORSDOF 13
ENDMDL
MODEL 4
REMARK VINA RESULT:      -6.7      3.243      6.767
REMARK  Name = 
REMARK  15 active torsions:
REMARK  status: ('A' for Active; 'I' for Inactive)
REMARK    1  A    between atoms: C_1  and  C_2
REMARK    2  A    between atoms: C_2  and  C_3
REMARK    3  A    between atoms: C_3  and  C_4
REMARK    4  A    between atoms: C_4  and  C_5
REMARK    5  A    between atoms: C_5  and  C_6
REMARK    6  A    between atoms: C_6  and  C_7
REMARK    7  A    between atoms: C_7  and  O_8
REMARK    8  A    between atoms: O_8  and  C_9
REMARK    9  A    between atoms: C_12  and  C_13
REMARK   10  A    between atoms: C_13  and  C_14
REMARK   11  A    between atoms: C_14  and  C_15
REMARK   12  A    between atoms: C_15  and  C_16
REMARK   13  A    between atoms: C_15  and  N_17
REMARK   14  A    between atoms: C_15  and  C_18
REMARK   15  A    between atoms: C_18  and  O_19
REMARK                            x       y       z     vdW  Elec       q    Type
REMARK                         _______ _______ _______ _____ _____    ______ ____
ROOT
ATOM      1  C   UNL     1       3.136   5.475  19.859  0.00  0.00    +0.000 A 
ATOM      2  C   UNL     1       4.434   4.987  19.705  0.00  0.00    +0.000 A 
ATOM      3  C   UNL     1       5.237   5.422  18.657  0.00  0.00    +0.000 A 
ATOM      4  C   UNL     1       4.754   6.339  17.722  0.00  0.00    +0.000 A 
ATOM      5  C   UNL     1       3.455   6.843  17.880  0.00  0.00    +0.000 A 
ATOM      6  C   UNL     1       2.652   6.412  18.944  0.00  0.00    +0.000 A 
ENDROOT
BRANCH   1   7
ATOM      7  O   UNL     1       2.274   5.102  20.862  0.00  0.00    +0.000 OA
BRANCH   7   8
ATOM      8  C   UNL     1       2.530   3.801  21.388  0.00  0.00    +0.000 C 
BRANCH   8   9
ATOM      9  C   UNL     1       1.282   2.935  21.354  0.00  0.00    +0.000 C 
BRANCH   9  10
ATOM     10  C   UNL     1       0.545   3.184  20.039  0.00  0.00    +0.000 C 
BRANCH  10  11
ATOM     11  C   UNL     1       1.095   2.319  18.915  0.00  0.00    +0.000 C 
BRANCH  11  12
ATOM     12  C   UNL     1       1.647   3.179  17.781  0.00  0.00    +0.000 C 
BRANCH  12  14
ATOM     13  C   UNL     1       3.565   1.631  18.292  0.00  0.00    +0.000 C 
ATOM     14  C   UNL     1       3.008   2.660  17.324  0.00  0.00    +0.000 C 
ENDBRANCH  12  14
ENDBRANCH  11  12
ENDBRANCH  10  11
ENDBRANCH   9  10
ENDBRANCH   8   9
ENDBRANCH   7   8
ENDBRANCH   1   7
BRANCH   4  15
ATOM     15  C   UNL     1       5.649   6.777  16.588  0.00  0.00    +0.000 C 
BRANCH  15  16
ATOM     16  C   UNL     1       5.496   5.876  15.348  0.00  0.00    +0.000 C 
BRANCH  16  17
ATOM     17  C   UNL     1       6.684   4.926  15.058  0.00  0.00    +0.000 C 
ATOM     18  C   UNL     1       7.465   5.372  13.816  0.00  0.00    +0.000 C 
BRANCH  17  19
ATOM     19  N   UNL     1       7.585   4.885  16.232  0.00  0.00    +0.000 NA
ATOM     20  H   UNL     1       7.533   3.971  16.676  0.00  0.00    +0.000 HD
ATOM     21  H   UNL     1       7.250   5.543  16.940  0.00  0.00    +0.000 HD
ENDBRANCH  17  19
BRANCH  17  22
ATOM     22  C   UNL     1       6.149   3.484  14.822  0.00  0.00    +0.000 C 
BRANCH  22  23
ATOM     23  O   UNL     1       6.238   3.123  13.444  0.00  0.00    +0.000 OA
ATOM     24  H   UNL     1       7.183   3.234  13.216  0.00  0.00    +0.000 HD
ENDBRANCH  22  23
ENDBRANCH  17  22
ENDBRANCH  16  17
ENDBRANCH  15  16
ENDBRANCH   4  15
TORSDOF 13
ENDMDL
MODEL 5
REMARK VINA RESULT:      -6.5      1.194      1.322
REMARK  Name = 
REMARK  15 active torsions:
REMARK  status: ('A' for Active; 'I' for Inactive)
REMARK    1  A    between atoms: C_1  and  C_2
REMARK    2  A    between atoms: C_2  and  C_3
REMARK    3  A    between atoms: C_3  and  C_4
REMARK    4  A    between atoms: C_4  and  C_5
REMARK    5  A    between atoms: C_5  and  C_6
REMARK    6  A    between atoms: C_6  and  C_7
REMARK    7  A    between atoms: C_7  and  O_8
REMARK    8  A    between atoms: O_8  and  C_9
REMARK    9  A    between atoms: C_12  and  C_13
REMARK   10  A    between atoms: C_13  and  C_14
REMARK   11  A    between atoms: C_14  and  C_15
REMARK   12  A    between atoms: C_15  and  C_16
REMARK   13  A    between atoms: C_15  and  N_17
REMARK   14  A    between atoms: C_15  and  C_18
REMARK   15  A    between atoms: C_18  and  O_19
REMARK                            x       y       z     vdW  Elec       q    Type
REMARK                         _______ _______ _______ _____ _____    ______ ____
ROOT
ATOM      1  C   UNL     1       5.629   5.496  15.578  0.00  0.00    +0.000 A 
ATOM      2  C   UNL     1       5.237   6.698  16.169  0.00  0.00    +0.000 A 
ATOM      3  C   UNL     1       4.270   6.716  17.167  0.00  0.00    +0.000 A 
ATOM      4  C   UNL     1       3.652   5.536  17.583  0.00  0.00    +0.000 A 
ATOM      5  C   UNL     1       4.052   4.324  17.002  0.00  0.00    +0.000 A 
ATOM      6  C   UNL     1       5.035   4.306  16.005  0.00  0.00    +0.000 A 
ENDROOT
BRANCH   1   7
ATOM      7  O   UNL     1       6.574   5.383  14.586  0.00  0.00    +0.000 OA
BRANCH   7   8
ATOM      8  C   UNL     1       6.519   4.146  13.876  0.00  0.00    +0.000 C 
BRANCH   8   9
ATOM      9  C   UNL     1       7.040   4.301  12.457  0.00  0.00    +0.000 C 
BRANCH   9  10
ATOM     10  C   UNL     1       6.363   3.259  11.567  0.00  0.00    +0.000 C 
BRANCH  10  11
ATOM     11  C   UNL     1       5.013   2.835  12.126  0.00  0.00    +0.000 C 
BRANCH  11  12
ATOM     12  C   UNL     1       3.887   3.686  11.543  0.00  0.00    +0.000 C 
BRANCH  12  14
ATOM     13  C   UNL     1       2.787   4.421   9.401  0.00  0.00    +0.000 C 
ATOM     14  C   UNL     1       3.728   3.420  10.049  0.00  0.00    +0.000 C 
ENDBRANCH  12  14
ENDBRANCH  11  12
ENDBRANCH  10  11
ENDBRANCH   9  10
ENDBRANCH   8   9
ENDBRANCH   7   8
ENDBRANCH   1   7
BRANCH   4  15
ATOM     15  C   UNL     1       2.595   5.597  18.660  0.00  0.00    +0.000 C 
BRANCH  15  16
ATOM     16  C   UNL     1       1.604   4.422  18.565  0.00  0.00    +0.000 C 
BRANCH  16  17
ATOM     17  C   UNL     1       1.668   3.393  19.721  0.00  0.00    +0.000 C 
ATOM     18  C   UNL     1       2.743   3.773  20.747  0.00  0.00    +0.000 C 
BRANCH  17  19
ATOM     19  N   UNL     1       0.347   3.309  20.384  0.00  0.00    +0.000 NA
ATOM     20  H   UNL     1       0.436   2.817  21.271  0.00  0.00    +0.000 HD
ATOM     21  H   UNL     1      -0.280   2.728  19.820  0.00  0.00    +0.000 HD
ENDBRANCH  17  19
BRANCH  17  22
ATOM     22  C   UNL     1       1.999   1.986  19.145  0.00  0.00    +0.000 C 
BRANCH  22  23
ATOM     23  O   UNL     1       0.978   1.545  18.250  0.00  0.00    +0.000 OA
ATOM     24  H   UNL     1       0.522   0.823  18.727  0.00  0.00    +0.000 HD
ENDBRANCH  22  23
ENDBRANCH  17  22
ENDBRANCH  16  17
ENDBRANCH  15  16
ENDBRANCH   4  15
TORSDOF 13
ENDMDL
MODEL 6
REMARK VINA RESULT:      -6.5      4.190      6.951
REMARK  Name = 
REMARK  15 active torsions:
REMARK  status: ('A' for Active; 'I' for Inactive)
REMARK    1  A    between atoms: C_1  and  C_2
REMARK    2  A    between atoms: C_2  and  C_3
REMARK    3  A    between atoms: C_3  and  C_4
REMARK    4  A    between atoms: C_4  and  C_5
REMARK    5  A    between atoms: C_5  and  C_6
REMARK    6  A    between atoms: C_6  and  C_7
REMARK    7  A    between atoms: C_7  and  O_8
REMARK    8  A    between atoms: O_8  and  C_9
REMARK    9  A    between atoms: C_12  and  C_13
REMARK   10  A    between atoms: C_13  and  C_14
REMARK   11  A    between atoms: C_14  and  C_15
REMARK   12  A    between atoms: C_15  and  C_16
REMARK   13  A    between atoms: C_15  and  N_17
REMARK   14  A    between atoms: C_15  and  C_18
REMARK   15  A    between atoms: C_18  and  O_19
REMARK                            x       y       z     vdW  Elec       q    Type
REMARK                         _______ _______ _______ _____ _____    ______ ____
ROOT
ATOM      1  C   UNL     1       5.727   6.386  16.876  0.00  0.00    +0.000 A 
ATOM      2  C   UNL     1       5.425   5.067  16.533  0.00  0.00    +0.000 A 
ATOM      3  C   UNL     1       4.197   4.510  16.868  0.00  0.00    +0.000 A 
ATOM      4  C   UNL     1       3.248   5.248  17.576  0.00  0.00    +0.000 A 
ATOM      5  C   UNL     1       3.541   6.578  17.912  0.00  0.00    +0.000 A 
ATOM      6  C   UNL     1       4.774   7.141  17.563  0.00  0.00    +0.000 A 
ENDROOT
BRANCH   1   7
ATOM      7  O   UNL     1       6.913   7.018  16.587  0.00  0.00    +0.000 OA
BRANCH   7   8
ATOM      8  C   UNL     1       7.644   7.427  17.742  0.00  0.00    +0.000 C 
BRANCH   8   9
ATOM      9  C   UNL     1       8.038   8.892  17.656  0.00  0.00    +0.000 C 
BRANCH   9  10
ATOM     10  C   UNL     1       8.889   9.247  18.875  0.00  0.00    +0.000 C 
BRANCH  10  11
ATOM     11  C   UNL     1       9.194  10.737  18.931  0.00  0.00    +0.000 C 
BRANCH  11  12
ATOM     12  C   UNL     1      10.250  11.120  17.896  0.00  0.00    +0.000 C 
BRANCH  12  14
ATOM     13  C   UNL     1      11.885  11.857  19.662  0.00  0.00    +0.000 C 
ATOM     14  C   UNL     1      11.122  12.261  18.412  0.00  0.00    +0.000 C 
ENDBRANCH  12  14
ENDBRANCH  11  12
ENDBRANCH  10  11
ENDBRANCH   9  10
ENDBRANCH   8   9
ENDBRANCH   7   8
ENDBRANCH   1   7
BRANCH   4  15
ATOM     15  C   UNL     1       1.931   4.605  17.935  0.00  0.00    +0.000 C 
BRANCH  15  16
ATOM     16  C   UNL     1       1.807   4.345  19.449  0.00  0.00    +0.000 C 
BRANCH  16  17
ATOM     17  C   UNL     1       2.121   2.901  19.911  0.00  0.00    +0.000 C 
ATOM     18  C   UNL     1       1.524   1.865  18.950  0.00  0.00    +0.000 C 
BRANCH  17  19
ATOM     19  N   UNL     1       3.587   2.717  20.001  0.00  0.00    +0.000 NA
ATOM     20  H   UNL     1       4.062   3.531  19.615  0.00  0.00    +0.000 HD
ATOM     21  H   UNL     1       3.870   1.937  19.403  0.00  0.00    +0.000 HD
ENDBRANCH  17  19
BRANCH  17  22
ATOM     22  C   UNL     1       1.527   2.669  21.330  0.00  0.00    +0.000 C 
BRANCH  22  23
ATOM     23  O   UNL     1       2.252   3.404  22.315  0.00  0.00    +0.000 OA
ATOM     24  H   UNL     1       1.829   3.169  23.165  0.00  0.00    +0.000 HD
ENDBRANCH  22  23
ENDBRANCH  17  22
ENDBRANCH  16  17
ENDBRANCH  15  16
ENDBRANCH   4  15
TORSDOF 13
ENDMDL
MODEL 7
REMARK VINA RESULT:      -6.5      4.442      7.353
REMARK  Name = 
REMARK  15 active torsions:
REMARK  status: ('A' for Active; 'I' for Inactive)
REMARK    1  A    between atoms: C_1  and  C_2
REMARK    2  A    between atoms: C_2  and  C_3
REMARK    3  A    between atoms: C_3  and  C_4
REMARK    4  A    between atoms: C_4  and  C_5
REMARK    5  A    between atoms: C_5  and  C_6
REMARK    6  A    between atoms: C_6  and  C_7
REMARK    7  A    between atoms: C_7  and  O_8
REMARK    8  A    between atoms: O_8  and  C_9
REMARK    9  A    between atoms: C_12  and  C_13
REMARK   10  A    between atoms: C_13  and  C_14
REMARK   11  A    between atoms: C_14  and  C_15
REMARK   12  A    between atoms: C_15  and  C_16
REMARK   13  A    between atoms: C_15  and  N_17
REMARK   14  A    between atoms: C_15  and  C_18
REMARK   15  A    between atoms: C_18  and  O_19
REMARK                            x       y       z     vdW  Elec       q    Type
REMARK                         _______ _______ _______ _____ _____    ______ ____
ROOT
ATOM      1  C   UNL     1       6.841   6.313  16.836  0.00  0.00    +0.000 A 
ATOM      2  C   UNL     1       6.940   4.944  16.583  0.00  0.00    +0.000 A 
ATOM      3  C   UNL     1       5.813   4.131  16.627  0.00  0.00    +0.000 A 
ATOM      4  C   UNL     1       4.564   4.661  16.949  0.00  0.00    +0.000 A 
ATOM      5  C   UNL     1       4.457   6.038  17.191  0.00  0.00    +0.000 A 
ATOM      6  C   UNL     1       5.590   6.858  17.134  0.00  0.00    +0.000 A 
ENDROOT
BRANCH   1   7
ATOM      7  O   UNL     1       7.898   7.191  16.815  0.00  0.00    +0.000 OA
BRANCH   7   8
ATOM      8  C   UNL     1       7.621   8.442  17.442  0.00  0.00    +0.000 C 
BRANCH   8   9
ATOM      9  C   UNL     1       8.630   8.747  18.537  0.00  0.00    +0.000 C 
BRANCH   9  10
ATOM     10  C   UNL     1       8.919  10.248  18.538  0.00  0.00    +0.000 C 
BRANCH  10  11
ATOM     11  C   UNL     1       9.620  10.683  19.816  0.00  0.00    +0.000 C 
BRANCH  11  12
ATOM     12  C   UNL     1      10.860  11.519  19.504  0.00  0.00    +0.000 C 
BRANCH  12  14
ATOM     13  C   UNL     1      10.064  13.147  21.250  0.00  0.00    +0.000 C 
ATOM     14  C   UNL     1      10.620  12.987  19.846  0.00  0.00    +0.000 C 
ENDBRANCH  12  14
ENDBRANCH  11  12
ENDBRANCH  10  11
ENDBRANCH   9  10
ENDBRANCH   8   9
ENDBRANCH   7   8
ENDBRANCH   1   7
BRANCH   4  15
ATOM     15  C   UNL     1       3.365   3.745  17.003  0.00  0.00    +0.000 C 
BRANCH  15  16
ATOM     16  C   UNL     1       2.626   3.836  18.351  0.00  0.00    +0.000 C 
BRANCH  16  17
ATOM     17  C   UNL     1       2.658   2.557  19.223  0.00  0.00    +0.000 C 
ATOM     18  C   UNL     1       1.330   2.350  19.962  0.00  0.00    +0.000 C 
BRANCH  17  19
ATOM     19  N   UNL     1       2.948   1.382  18.370  0.00  0.00    +0.000 NA
ATOM     20  H   UNL     1       2.131   1.153  17.808  0.00  0.00    +0.000 HD
ATOM     21  H   UNL     1       3.100   0.561  18.962  0.00  0.00    +0.000 HD
ENDBRANCH  17  19
BRANCH  17  22
ATOM     22  C   UNL     1       3.802   2.672  20.272  0.00  0.00    +0.000 C 
BRANCH  22  23
ATOM     23  O   UNL     1       5.068   2.372  19.685  0.00  0.00    +0.000 OA
ATOM     24  H   UNL     1       5.481   1.730  20.296  0.00  0.00    +0.000 HD
ENDBRANCH  22  23
ENDBRANCH  17  22
ENDBRANCH  16  17
ENDBRANCH  15  16
ENDBRANCH   4  15
TORSDOF 13
ENDMDL
MODEL 8
REMARK VINA RESULT:      -6.5      5.407      7.869
REMARK  Name = 
REMARK  15 active torsions:
REMARK  status: ('A' for Active; 'I' for Inactive)
REMARK    1  A    between atoms: C_1  and  C_2
REMARK    2  A    between atoms: C_2  and  C_3
REMARK    3  A    between atoms: C_3  and  C_4
REMARK    4  A    between atoms: C_4  and  C_5
REMARK    5  A    between atoms: C_5  and  C_6
REMARK    6  A    between atoms: C_6  and  C_7
REMARK    7  A    between atoms: C_7  and  O_8
REMARK    8  A    between atoms: O_8  and  C_9
REMARK    9  A    between atoms: C_12  and  C_13
REMARK   10  A    between atoms: C_13  and  C_14
REMARK   11  A    between atoms: C_14  and  C_15
REMARK   12  A    between atoms: C_15  and  C_16
REMARK   13  A    between atoms: C_15  and  N_17
REMARK   14  A    between atoms: C_15  and  C_18
REMARK   15  A    between atoms: C_18  and  O_19
REMARK                            x       y       z     vdW  Elec       q    Type
REMARK                         _______ _______ _______ _____ _____    ______ ____
ROOT
ATOM      1  C   UNL     1       2.603   7.195  19.128  0.00  0.00    +0.000 A 
ATOM      2  C   UNL     1       1.910   7.649  20.251  0.00  0.00    +0.000 A 
ATOM      3  C   UNL     1       1.057   8.744  20.164  0.00  0.00    +0.000 A 
ATOM      4  C   UNL     1       0.896   9.428  18.958  0.00  0.00    +0.000 A 
ATOM      5  C   UNL     1       1.580   8.967  17.824  0.00  0.00    +0.000 A 
ATOM      6  C   UNL     1       2.428   7.857  17.911  0.00  0.00    +0.000 A 
ENDROOT
BRANCH   1   7
ATOM      7  O   UNL     1       3.464   6.124  19.121  0.00  0.00    +0.000 OA
BRANCH   7   8
ATOM      8  C   UNL     1       3.686   5.572  17.824  0.00  0.00    +0.000 C 
BRANCH   8   9
ATOM      9  C   UNL     1       4.125   4.119  17.910  0.00  0.00    +0.000 C 
BRANCH   9  10
ATOM     10  C   UNL     1       2.958   3.225  17.493  0.00  0.00    +0.000 C 
BRANCH  10  11
ATOM     11  C   UNL     1       2.262   2.613  18.699  0.00  0.00    +0.000 C 
BRANCH  11  12
ATOM     12  C   UNL     1       0.996   3.391  19.055  0.00  0.00    +0.000 C 
BRANCH  12  14
ATOM     13  C   UNL     1       2.305   3.392  21.204  0.00  0.00    +0.000 C 
ATOM     14  C   UNL     1       1.049   3.876  20.500  0.00  0.00    +0.000 C 
ENDBRANCH  12  14
ENDBRANCH  11  12
ENDBRANCH  10  11
ENDBRANCH   9  10
ENDBRANCH   8   9
ENDBRANCH   7   8
ENDBRANCH   1   7
BRANCH   4  15
ATOM     15  C   UNL     1      -0.027  10.622  18.905  0.00  0.00    +0.000 C 
BRANCH  15  16
ATOM     16  C   UNL     1      -1.451  10.235  18.464  0.00  0.00    +0.000 C 
BRANCH  16  17
ATOM     17  C   UNL     1      -2.195  11.283  17.602  0.00  0.00    +0.000 C 
ATOM     18  C   UNL     1      -3.506  11.723  18.265  0.00  0.00    +0.000 C 
BRANCH  17  19
ATOM     19  N   UNL     1      -1.321  12.459  17.386  0.00  0.00    +0.000 NA
ATOM     20  H   UNL     1      -0.559  12.212  16.757  0.00  0.00    +0.000 HD
ATOM     21  H   UNL     1      -0.866  12.711  18.267  0.00  0.00    +0.000 HD
ENDBRANCH  17  19
BRANCH  17  22
ATOM     22  C   UNL     1      -2.519  10.673  16.207  0.00  0.00    +0.000 C 
BRANCH  22  23
ATOM     23  O   UNL     1      -3.216  11.611  15.387  0.00  0.00    +0.000 OA
ATOM     24  H   UNL     1      -2.937  11.400  14.474  0.00  0.00    +0.000 HD
ENDBRANCH  22  23
ENDBRANCH  17  22
ENDBRANCH  16  17
ENDBRANCH  15  16
ENDBRANCH   4  15
TORSDOF 13
ENDMDL
MODEL 9
REMARK VINA RESULT:      -6.4      1.095      1.719
REMARK  Name = 
REMARK  15 active torsions:
REMARK  status: ('A' for Active; 'I' for Inactive)
REMARK    1  A    between atoms: C_1  and  C_2
REMARK    2  A    between atoms: C_2  and  C_3
REMARK    3  A    between atoms: C_3  and  C_4
REMARK    4  A    between atoms: C_4  and  C_5
REMARK    5  A    between atoms: C_5  and  C_6
REMARK    6  A    between atoms: C_6  and  C_7
REMARK    7  A    between atoms: C_7  and  O_8
REMARK    8  A    between atoms: O_8  and  C_9
REMARK    9  A    between atoms: C_12  and  C_13
REMARK   10  A    between atoms: C_13  and  C_14
REMARK   11  A    between atoms: C_14  and  C_15
REMARK   12  A    between atoms: C_15  and  C_16
REMARK   13  A    between atoms: C_15  and  N_17
REMARK   14  A    between atoms: C_15  and  C_18
REMARK   15  A    between atoms: C_18  and  O_19
REMARK                            x       y       z     vdW  Elec       q    Type
REMARK                         _______ _______ _______ _____ _____    ______ ____
ROOT
ATOM      1  C   UNL     1       5.983   5.531  15.962  0.00  0.00    +0.000 A 
ATOM      2  C   UNL     1       6.093   4.439  16.825  0.00  0.00    +0.000 A 
ATOM      3  C   UNL     1       5.256   4.319  17.928  0.00  0.00    +0.000 A 
ATOM      4  C   UNL     1       4.304   5.299  18.211  0.00  0.00    +0.000 A 
ATOM      5  C   UNL     1       4.180   6.391  17.341  0.00  0.00    +0.000 A 
ATOM      6  C   UNL     1       5.016   6.504  16.223  0.00  0.00    +0.000 A 
ENDROOT
BRANCH   1   7
ATOM      7  O   UNL     1       6.765   5.733  14.851  0.00  0.00    +0.000 OA
BRANCH   7   8
ATOM      8  C   UNL     1       7.127   4.529  14.175  0.00  0.00    +0.000 C 
BRANCH   8   9
ATOM      9  C   UNL     1       5.957   3.965  13.387  0.00  0.00    +0.000 C 
BRANCH   9  10
ATOM     10  C   UNL     1       6.498   3.202  12.178  0.00  0.00    +0.000 C 
BRANCH  10  11
ATOM     11  C   UNL     1       5.387   2.493  11.419  0.00  0.00    +0.000 C 
BRANCH  11  12
ATOM     12  C   UNL     1       4.049   3.204  11.613  0.00  0.00    +0.000 C 
BRANCH  12  14
ATOM     13  C   UNL     1       2.739   3.629   9.507  0.00  0.00    +0.000 C 
ATOM     14  C   UNL     1       3.783   4.174  10.466  0.00  0.00    +0.000 C 
ENDBRANCH  12  14
ENDBRANCH  11  12
ENDBRANCH  10  11
ENDBRANCH   9  10
ENDBRANCH   8   9
ENDBRANCH   7   8
ENDBRANCH   1   7
BRANCH   4  15
ATOM     15  C   UNL     1       3.423   5.141  19.427  0.00  0.00    +0.000 C 
BRANCH  15  16
ATOM     16  C   UNL     1       3.014   3.674  19.661  0.00  0.00    +0.000 C 
BRANCH  16  17
ATOM     17  C   UNL     1       1.871   3.144  18.761  0.00  0.00    +0.000 C 
ATOM     18  C   UNL     1       1.387   4.219  17.781  0.00  0.00    +0.000 C 
BRANCH  17  19
ATOM     19  N   UNL     1       2.340   1.955  18.013  0.00  0.00    +0.000 NA
ATOM     20  H   UNL     1       1.895   1.117  18.382  0.00  0.00    +0.000 HD
ATOM     21  H   UNL     1       3.341   1.820  18.182  0.00  0.00    +0.000 HD
ENDBRANCH  17  19
BRANCH  17  22
ATOM     22  C   UNL     1       0.674   2.700  19.650  0.00  0.00    +0.000 C 
BRANCH  22  23
ATOM     23  O   UNL     1       0.921   2.992  21.025  0.00  0.00    +0.000 OA
ATOM     24  H   UNL     1       0.519   2.247  21.515  0.00  0.00    +0.000 HD
ENDBRANCH  22  23
ENDBRANCH  17  22
ENDBRANCH  16  17
ENDBRANCH  15  16
ENDBRANCH   4  15
TORSDOF 13
ENDMDL
