MODEL 1
REMARK VINA RESULT:      -6.0      0.000      0.000
REMARK  Name = 
REMARK  8 active torsions:
REMARK  status: ('A' for Active; 'I' for Inactive)
REMARK    1  A    between atoms: C_1  and  C_2
REMARK    2  A    between atoms: C_4  and  C_5
REMARK    3  A    between atoms: N_7  and  C_8
REMARK    4  A    between atoms: C_8  and  C_9
REMARK    5  A    between atoms: N_11  and  C_12
REMARK    6  A    between atoms: N_11  and  C_13
REMARK    7  A    between atoms: C_13  and  C_14
REMARK    8  A    between atoms: C_19  and  C_20
REMARK                            x       y       z     vdW  Elec       q    Type
REMARK                         _______ _______ _______ _____ _____    ______ ____
ROOT
ATOM      1  C   UNL     1       3.287   3.838  18.708  0.00  0.00    +0.000 C 
ENDROOT
BRANCH   1   6
ATOM      2  C   UNL     1       1.447   8.132  20.550  0.00  0.00    +0.000 C 
ATOM      3  C   UNL     1       1.804   6.716  20.302  0.00  0.00    +0.000 A 
ATOM      4  N   UNL     1       1.528   5.748  21.231  0.00  0.00    +0.000 NA
ATOM      5  C   UNL     1       1.973   4.616  20.722  0.00  0.00    +0.000 A 
ATOM      6  N   UNL     1       2.597   4.837  19.513  0.00  0.00    +0.000 N 
ATOM      7  C   UNL     1       2.411   6.165  19.189  0.00  0.00    +0.000 A 
ATOM      8  C   UNL     1       2.829   6.805  17.916  0.00  0.00    +0.000 C 
BRANCH   5   9
ATOM      9  C   UNL     1       1.818   3.352  21.367  0.00  0.00    +0.000 C 
ATOM     10  N   UNL     1       1.684   2.365  21.964  0.00  0.00    +0.000 NA
ENDBRANCH   5   9
ENDBRANCH   1   6
BRANCH   1  11
ATOM     11  C   UNL     1       4.781   4.115  18.607  0.00  0.00    +0.000 C 
ATOM     12  O   UNL     1       5.455   4.143  19.642  0.00  0.00    +0.000 OA
ATOM     13  N   UNL     1       5.359   4.325  17.361  0.00  0.00    +0.000 N 
ATOM     14  C   UNL     1       4.633   4.373  16.099  0.00  0.00    +0.000 C 
BRANCH  13  15
ATOM     15  C   UNL     1       6.820   4.408  17.273  0.00  0.00    +0.000 C 
BRANCH  15  16
ATOM     16  C   UNL     1       7.313   5.781  17.637  0.00  0.00    +0.000 A 
ATOM     17  C   UNL     1       7.265   6.939  16.882  0.00  0.00    +0.000 A 
ATOM     18  C   UNL     1       7.905   8.038  17.526  0.00  0.00    +0.000 A 
ATOM     19  C   UNL     1       8.409   7.691  18.759  0.00  0.00    +0.000 A 
ATOM     20  S   UNL     1       8.124   6.047  19.128  0.00  0.00    +0.000 S 
ENDBRANCH  15  16
ENDBRANCH  13  15
ENDBRANCH   1  11
TORSDOF 5
ENDMDL
MODEL 2
REMARK VINA RESULT:      -5.8      3.182      6.689
REMARK  Name = 
REMARK  8 active torsions:
REMARK  status: ('A' for Active; 'I' for Inactive)
REMARK    1  A    between atoms: C_1  and  C_2
REMARK    2  A    between atoms: C_4  and  C_5
REMARK    3  A    between atoms: N_7  and  C_8
REMARK    4  A    between atoms: C_8  and  C_9
REMARK    5  A    between atoms: N_11  and  C_12
REMARK    6  A    between atoms: N_11  and  C_13
REMARK    7  A    between atoms: C_13  and  C_14
REMARK    8  A    between atoms: C_19  and  C_20
REMARK                            x       y       z     vdW  Elec       q    Type
REMARK                         _______ _______ _______ _____ _____    ______ ____
ROOT
ATOM      1  C   UNL     1       5.246   3.138  16.041  0.00  0.00    +0.000 C 
ENDROOT
BRANCH   1   6
ATOM      2  C   UNL     1       7.867   5.522  12.482  0.00  0.00    +0.000 C 
ATOM      3  C   UNL     1       7.317   5.021  13.763  0.00  0.00    +0.000 A 
ATOM      4  N   UNL     1       7.932   5.308  14.953  0.00  0.00    +0.000 NA
ATOM      5  C   UNL     1       7.214   4.717  15.888  0.00  0.00    +0.000 A 
ATOM      6  N   UNL     1       6.185   3.992  15.327  0.00  0.00    +0.000 N 
ATOM      7  C   UNL     1       6.185   4.256  13.972  0.00  0.00    +0.000 A 
ATOM      8  C   UNL     1       5.175   3.764  13.001  0.00  0.00    +0.000 C 
BRANCH   5   9
ATOM      9  C   UNL     1       7.497   4.830  17.282  0.00  0.00    +0.000 C 
ATOM     10  N   UNL     1       7.691   4.849  18.427  0.00  0.00    +0.000 NA
ENDBRANCH   5   9
ENDBRANCH   1   6
BRANCH   1  11
ATOM     11  C   UNL     1       4.191   3.944  16.787  0.00  0.00    +0.000 C 
ATOM     12  O   UNL     1       4.306   5.173  16.842  0.00  0.00    +0.000 OA
ATOM     13  N   UNL     1       3.121   3.290  17.384  0.00  0.00    +0.000 N 
ATOM     14  C   UNL     1       2.940   1.844  17.423  0.00  0.00    +0.000 C 
BRANCH  13  15
ATOM     15  C   UNL     1       2.028   4.096  17.936  0.00  0.00    +0.000 C 
BRANCH  15  16
ATOM     16  C   UNL     1       1.900   3.899  19.421  0.00  0.00    +0.000 A 
ATOM     17  C   UNL     1       2.597   4.532  20.435  0.00  0.00    +0.000 A 
ATOM     18  C   UNL     1       2.264   4.027  21.726  0.00  0.00    +0.000 A 
ATOM     19  C   UNL     1       1.311   3.036  21.661  0.00  0.00    +0.000 A 
ATOM     20  S   UNL     1       0.836   2.708  20.052  0.00  0.00    +0.000 S 
ENDBRANCH  15  16
ENDBRANCH  13  15
ENDBRANCH   1  11
TORSDOF 5
ENDMDL
MODEL 3
REMARK VINA RESULT:      -5.8      3.345      6.236
REMARK  Name = 
REMARK  8 active torsions:
REMARK  status: ('A' for Active; 'I' for Inactive)
REMARK    1  A    between atoms: C_1  and  C_2
REMARK    2  A    between atoms: C_4  and  C_5
REMARK    3  A    between atoms: N_7  and  C_8
REMARK    4  A    between atoms: C_8  and  C_9
REMARK    5  A    between atoms: N_11  and  C_12
REMARK    6  A    between atoms: N_11  and  C_13
REMARK    7  A    between atoms: C_13  and  C_14
REMARK    8  A    between atoms: C_19  and  C_20
REMARK                            x       y       z     vdW  Elec       q    Type
REMARK                         _______ _______ _______ _____ _____    ______ ____
ROOT
ATOM      1  C   UNL     1       3.461   6.528  18.299  0.00  0.00    +0.000 C 
ENDROOT
BRANCH   1   6
ATOM      2  C   UNL     1       2.640   1.589  18.678  0.00  0.00    +0.000 C 
ATOM      3  C   UNL     1       3.236   2.945  18.661  0.00  0.00    +0.000 A 
ATOM      4  N   UNL     1       4.501   3.164  19.138  0.00  0.00    +0.000 NA
ATOM      5  C   UNL     1       4.728   4.455  18.994  0.00  0.00    +0.000 A 
ATOM      6  N   UNL     1       3.611   5.094  18.500  0.00  0.00    +0.000 N 
ATOM      7  C   UNL     1       2.681   4.122  18.193  0.00  0.00    +0.000 A 
ATOM      8  C   UNL     1       1.372   4.362  17.535  0.00  0.00    +0.000 C 
BRANCH   5   9
ATOM      9  C   UNL     1       5.972   5.073  19.323  0.00  0.00    +0.000 C 
ATOM     10  N   UNL     1       6.953   5.592  19.665  0.00  0.00    +0.000 NA
ENDBRANCH   5   9
ENDBRANCH   1   6
BRANCH   1  11
ATOM     11  C   UNL     1       2.476   7.146  19.282  0.00  0.00    +0.000 C 
ATOM     12  O   UNL     1       2.192   6.527  20.312  0.00  0.00    +0.000 OA
ATOM     13  N   UNL     1       1.921   8.390  19.009  0.00  0.00    +0.000 N 
ATOM     14  C   UNL     1       2.150   9.161  17.793  0.00  0.00    +0.000 C 
BRANCH  13  15
ATOM     15  C   UNL     1       1.121   9.043  20.050  0.00  0.00    +0.000 C 
BRANCH  15  16
ATOM     16  C   UNL     1       0.329  10.191  19.491  0.00  0.00    +0.000 A 
ATOM     17  C   UNL     1      -0.815  10.147  18.714  0.00  0.00    +0.000 A 
ATOM     18  C   UNL     1      -1.244  11.442  18.299  0.00  0.00    +0.000 A 
ATOM     19  C   UNL     1      -0.424  12.436  18.783  0.00  0.00    +0.000 A 
ATOM     20  S   UNL     1       0.861  11.808  19.719  0.00  0.00    +0.000 S 
ENDBRANCH  15  16
ENDBRANCH  13  15
ENDBRANCH   1  11
TORSDOF 5
ENDMDL
MODEL 4
REMARK VINA RESULT:      -5.7      2.355      4.049
REMARK  Name = 
REMARK  8 active torsions:
REMARK  status: ('A' for Active; 'I' for Inactive)
REMARK    1  A    between atoms: C_1  and  C_2
REMARK    2  A    between atoms: C_4  and  C_5
REMARK    3  A    between atoms: N_7  and  C_8
REMARK    4  A    between atoms: C_8  and  C_9
REMARK    5  A    between atoms: N_11  and  C_12
REMARK    6  A    between atoms: N_11  and  C_13
REMARK    7  A    between atoms: C_13  and  C_14
REMARK    8  A    between atoms: C_19  and  C_20
REMARK                            x       y       z     vdW  Elec       q    Type
REMARK                         _______ _______ _______ _____ _____    ______ ____
ROOT
ATOM      1  C   UNL     1       4.797   5.421  19.259  0.00  0.00    +0.000 C 
ENDROOT
BRANCH   1   6
ATOM      2  C   UNL     1       0.982   2.176  18.894  0.00  0.00    +0.000 C 
ATOM      3  C   UNL     1       1.835   3.362  19.134  0.00  0.00    +0.000 A 
ATOM      4  N   UNL     1       1.282   4.575  19.447  0.00  0.00    +0.000 NA
ATOM      5  C   UNL     1       2.290   5.413  19.586  0.00  0.00    +0.000 A 
ATOM      6  N   UNL     1       3.485   4.789  19.300  0.00  0.00    +0.000 N 
ATOM      7  C   UNL     1       3.215   3.450  19.102  0.00  0.00    +0.000 A 
ATOM      8  C   UNL     1       4.232   2.393  18.874  0.00  0.00    +0.000 C 
BRANCH   5   9
ATOM      9  C   UNL     1       2.128   6.777  19.974  0.00  0.00    +0.000 C 
ATOM     10  N   UNL     1       1.932   7.890  20.240  0.00  0.00    +0.000 NA
ENDBRANCH   5   9
ENDBRANCH   1   6
BRANCH   1  11
ATOM     11  C   UNL     1       5.164   5.890  17.858  0.00  0.00    +0.000 C 
ATOM     12  O   UNL     1       4.391   6.643  17.257  0.00  0.00    +0.000 OA
ATOM     13  N   UNL     1       6.358   5.469  17.283  0.00  0.00    +0.000 N 
ATOM     14  C   UNL     1       7.296   4.534  17.891  0.00  0.00    +0.000 C 
BRANCH  13  15
ATOM     15  C   UNL     1       6.775   6.074  16.015  0.00  0.00    +0.000 C 
BRANCH  15  16
ATOM     16  C   UNL     1       6.464   5.174  14.852  0.00  0.00    +0.000 A 
ATOM     17  C   UNL     1       5.365   4.354  14.670  0.00  0.00    +0.000 A 
ATOM     18  C   UNL     1       5.452   3.581  13.475  0.00  0.00    +0.000 A 
ATOM     19  C   UNL     1       6.606   3.845  12.773  0.00  0.00    +0.000 A 
ATOM     20  S   UNL     1       7.583   5.006  13.559  0.00  0.00    +0.000 S 
ENDBRANCH  15  16
ENDBRANCH  13  15
ENDBRANCH   1  11
TORSDOF 5
ENDMDL
MODEL 5
REMARK VINA RESULT:      -5.7      2.648      6.176
REMARK  Name = 
REMARK  8 active torsions:
REMARK  status: ('A' for Active; 'I' for Inactive)
REMARK    1  A    between atoms: C_1  and  C_2
REMARK    2  A    between atoms: C_4  and  C_5
REMARK    3  A    between atoms: N_7  and  C_8
REMARK    4  A    between atoms: C_8  and  C_9
REMARK    5  A    between atoms: N_11  and  C_12
REMARK    6  A    between atoms: N_11  and  C_13
REMARK    7  A    between atoms: C_13  and  C_14
REMARK    8  A    between atoms: C_19  and  C_20
REMARK                            x       y       z     vdW  Elec       q    Type
REMARK                         _______ _______ _______ _____ _____    ______ ____
ROOT
ATOM      1  C   UNL     1       5.463   6.867  18.140  0.00  0.00    +0.000 C 
ENDROOT
BRANCH   1   6
ATOM      2  C   UNL     1       6.772   4.114  14.150  0.00  0.00    +0.000 C 
ATOM      3  C   UNL     1       6.704   4.778  15.472  0.00  0.00    +0.000 A 
ATOM      4  N   UNL     1       7.551   4.417  16.486  0.00  0.00    +0.000 NA
ATOM      5  C   UNL     1       7.233   5.174  17.517  0.00  0.00    +0.000 A 
ATOM      6  N   UNL     1       6.149   5.971  17.219  0.00  0.00    +0.000 N 
ATOM      7  C   UNL     1       5.860   5.795  15.881  0.00  0.00    +0.000 A 
ATOM      8  C   UNL     1       4.831   6.544  15.118  0.00  0.00    +0.000 C 
BRANCH   5   9
ATOM      9  C   UNL     1       7.934   5.142  18.759  0.00  0.00    +0.000 C 
ATOM     10  N   UNL     1       8.440   5.152  19.805  0.00  0.00    +0.000 NA
ENDBRANCH   5   9
ENDBRANCH   1   6
BRANCH   1  11
ATOM     11  C   UNL     1       4.415   6.142  18.974  0.00  0.00    +0.000 C 
ATOM     12  O   UNL     1       4.766   5.191  19.679  0.00  0.00    +0.000 OA
ATOM     13  N   UNL     1       3.092   6.563  18.931  0.00  0.00    +0.000 N 
ATOM     14  C   UNL     1       2.579   7.631  18.083  0.00  0.00    +0.000 C 
BRANCH  13  15
ATOM     15  C   UNL     1       2.139   5.970  19.875  0.00  0.00    +0.000 C 
BRANCH  15  16
ATOM     16  C   UNL     1       1.842   4.539  19.525  0.00  0.00    +0.000 A 
ATOM     17  C   UNL     1       1.530   4.004  18.287  0.00  0.00    +0.000 A 
ATOM     18  C   UNL     1       1.230   2.612  18.354  0.00  0.00    +0.000 A 
ATOM     19  C   UNL     1       1.336   2.122  19.635  0.00  0.00    +0.000 A 
ATOM     20  S   UNL     1       1.780   3.338  20.751  0.00  0.00    +0.000 S 
ENDBRANCH  15  16
ENDBRANCH  13  15
ENDBRANCH   1  11
TORSDOF 5
ENDMDL
MODEL 6
REMARK VINA RESULT:      -5.7      4.124      6.635
REMARK  Name = 
REMARK  8 active torsions:
REMARK  status: ('A' for Active; 'I' for Inactive)
REMARK    1  A    between atoms: C_1  and  C_2
REMARK    2  A    between atoms: C_4  and  C_5
REMARK    3  A    between atoms: N_7  and  C_8
REMARK    4  A    between atoms: C_8  and  C_9
REMARK    5  A    between atoms: N_11  and  C_12
REMARK    6  A    between atoms: N_11  and  C_13
REMARK    7  A    between atoms: C_13  and  C_14
REMARK    8  A    between atoms: C_19  and  C_20
REMARK                            x       y       z     vdW  Elec       q    Type
REMARK                         _______ _______ _______ _____ _____    ______ ____
ROOT
ATOM      1  C   UNL     1       0.385   9.687  19.753  0.00  0.00    +0.000 C 
ENDROOT
BRANCH   1   6
ATOM      2  C   UNL     1       2.551  14.193  20.231  0.00  0.00    +0.000 C 
ATOM      3  C   UNL     1       1.727  12.974  20.403  0.00  0.00    +0.000 A 
ATOM      4  N   UNL     1       0.992  12.775  21.541  0.00  0.00    +0.000 NA
ATOM      5  C   UNL     1       0.391  11.612  21.391  0.00  0.00    +0.000 A 
ATOM      6  N   UNL     1       0.774  11.015  20.209  0.00  0.00    +0.000 N 
ATOM      7  C   UNL     1       1.557  11.920  19.523  0.00  0.00    +0.000 A 
ATOM      8  C   UNL     1       2.094  11.727  18.153  0.00  0.00    +0.000 C 
BRANCH   5   9
ATOM      9  C   UNL     1      -0.522  11.073  22.346  0.00  0.00    +0.000 C 
ATOM     10  N   UNL     1      -1.202  10.594  23.157  0.00  0.00    +0.000 NA
ENDBRANCH   5   9
ENDBRANCH   1   6
BRANCH   1  11
ATOM     11  C   UNL     1       1.393   8.622  20.163  0.00  0.00    +0.000 C 
ATOM     12  O   UNL     1       1.540   8.368  21.363  0.00  0.00    +0.000 OA
ATOM     13  N   UNL     1       2.121   7.953  19.186  0.00  0.00    +0.000 N 
ATOM     14  C   UNL     1       2.058   8.231  17.758  0.00  0.00    +0.000 C 
BRANCH  13  15
ATOM     15  C   UNL     1       2.948   6.811  19.590  0.00  0.00    +0.000 C 
BRANCH  15  16
ATOM     16  C   UNL     1       2.169   5.526  19.532  0.00  0.00    +0.000 A 
ATOM     17  C   UNL     1       1.471   4.898  20.548  0.00  0.00    +0.000 A 
ATOM     18  C   UNL     1       0.921   3.648  20.141  0.00  0.00    +0.000 A 
ATOM     19  C   UNL     1       1.201   3.366  18.823  0.00  0.00    +0.000 A 
ATOM     20  S   UNL     1       2.134   4.595  18.089  0.00  0.00    +0.000 S 
ENDBRANCH  15  16
ENDBRANCH  13  15
ENDBRANCH   1  11
TORSDOF 5
ENDMDL
MODEL 7
REMARK VINA RESULT:      -5.6      2.875      6.739
REMARK  Name = 
REMARK  8 active torsions:
REMARK  status: ('A' for Active; 'I' for Inactive)
REMARK    1  A    between atoms: C_1  and  C_2
REMARK    2  A    between atoms: C_4  and  C_5
REMARK    3  A    between atoms: N_7  and  C_8
REMARK    4  A    between atoms: C_8  and  C_9
REMARK    5  A    between atoms: N_11  and  C_12
REMARK    6  A    between atoms: N_11  and  C_13
REMARK    7  A    between atoms: C_13  and  C_14
REMARK    8  A    between atoms: C_19  and  C_20
REMARK                            x       y       z     vdW  Elec       q    Type
REMARK                         _______ _______ _______ _____ _____    ______ ____
ROOT
ATOM      1  C   UNL     1       5.224   3.614  16.419  0.00  0.00    +0.000 C 
ENDROOT
BRANCH   1   6
ATOM      2  C   UNL     1       7.821   5.323  12.475  0.00  0.00    +0.000 C 
ATOM      3  C   UNL     1       7.266   5.073  13.825  0.00  0.00    +0.000 A 
ATOM      4  N   UNL     1       7.845   5.624  14.937  0.00  0.00    +0.000 NA
ATOM      5  C   UNL     1       7.132   5.208  15.965  0.00  0.00    +0.000 A 
ATOM      6  N   UNL     1       6.143   4.341  15.554  0.00  0.00    +0.000 N 
ATOM      7  C   UNL     1       6.159   4.320  14.174  0.00  0.00    +0.000 A 
ATOM      8  C   UNL     1       5.189   3.598  13.314  0.00  0.00    +0.000 C 
BRANCH   5   9
ATOM      9  C   UNL     1       7.383   5.618  17.309  0.00  0.00    +0.000 C 
ATOM     10  N   UNL     1       7.665   5.926  18.393  0.00  0.00    +0.000 NA
ENDBRANCH   5   9
ENDBRANCH   1   6
BRANCH   1  11
ATOM     11  C   UNL     1       4.468   4.542  17.361  0.00  0.00    +0.000 C 
ATOM     12  O   UNL     1       3.835   5.490  16.886  0.00  0.00    +0.000 OA
ATOM     13  N   UNL     1       4.500   4.304  18.730  0.00  0.00    +0.000 N 
ATOM     14  C   UNL     1       5.269   3.252  19.380  0.00  0.00    +0.000 C 
BRANCH  13  15
ATOM     15  C   UNL     1       3.622   5.097  19.597  0.00  0.00    +0.000 C 
BRANCH  15  16
ATOM     16  C   UNL     1       2.522   4.253  20.178  0.00  0.00    +0.000 A 
ATOM     17  C   UNL     1       2.355   3.841  21.488  0.00  0.00    +0.000 A 
ATOM     18  C   UNL     1       1.232   2.978  21.651  0.00  0.00    +0.000 A 
ATOM     19  C   UNL     1       0.565   2.771  20.465  0.00  0.00    +0.000 A 
ATOM     20  S   UNL     1       1.300   3.598  19.163  0.00  0.00    +0.000 S 
ENDBRANCH  15  16
ENDBRANCH  13  15
ENDBRANCH   1  11
TORSDOF 5
ENDMDL
MODEL 8
REMARK VINA RESULT:      -5.6      2.429      4.148
REMARK  Name = 
REMARK  8 active torsions:
REMARK  status: ('A' for Active; 'I' for Inactive)
REMARK    1  A    between atoms: C_1  and  C_2
REMARK    2  A    between atoms: C_4  and  C_5
REMARK    3  A    between atoms: N_7  and  C_8
REMARK    4  A    between atoms: C_8  and  C_9
REMARK    5  A    between atoms: N_11  and  C_12
REMARK    6  A    between atoms: N_11  and  C_13
REMARK    7  A    between atoms: C_13  and  C_14
REMARK    8  A    between atoms: C_19  and  C_20
REMARK                            x       y       z     vdW  Elec       q    Type
REMARK                         _______ _______ _______ _____ _____    ______ ____
ROOT
ATOM      1  C   UNL     1       4.835   5.595  19.399  0.00  0.00    +0.000 C 
ENDROOT
BRANCH   1   6
ATOM      2  C   UNL     1       1.101   2.354  18.521  0.00  0.00    +0.000 C 
ATOM      3  C   UNL     1       1.951   3.560  18.644  0.00  0.00    +0.000 A 
ATOM      4  N   UNL     1       1.568   4.752  18.087  0.00  0.00    +0.000 NA
ATOM      5  C   UNL     1       2.531   5.610  18.359  0.00  0.00    +0.000 A 
ATOM      6  N   UNL     1       3.567   4.986  19.020  0.00  0.00    +0.000 N 
ATOM      7  C   UNL     1       3.166   3.693  19.292  0.00  0.00    +0.000 A 
ATOM      8  C   UNL     1       3.936   2.703  20.085  0.00  0.00    +0.000 C 
BRANCH   5   9
ATOM      9  C   UNL     1       2.477   6.989  17.998  0.00  0.00    +0.000 C 
ATOM     10  N   UNL     1       2.387   8.125  17.772  0.00  0.00    +0.000 NA
ENDBRANCH   5   9
ENDBRANCH   1   6
BRANCH   1  11
ATOM     11  C   UNL     1       5.990   5.096  18.542  0.00  0.00    +0.000 C 
ATOM     12  O   UNL     1       6.568   4.053  18.866  0.00  0.00    +0.000 OA
ATOM     13  N   UNL     1       6.370   5.814  17.414  0.00  0.00    +0.000 N 
ATOM     14  C   UNL     1       5.788   7.082  16.994  0.00  0.00    +0.000 C 
BRANCH  13  15
ATOM     15  C   UNL     1       7.359   5.221  16.508  0.00  0.00    +0.000 C 
BRANCH  15  16
ATOM     16  C   UNL     1       6.715   4.733  15.241  0.00  0.00    +0.000 A 
ATOM     17  C   UNL     1       5.510   4.069  15.090  0.00  0.00    +0.000 A 
ATOM     18  C   UNL     1       5.261   3.689  13.738  0.00  0.00    +0.000 A 
ATOM     19  C   UNL     1       6.275   4.086  12.896  0.00  0.00    +0.000 A 
ATOM     20  S   UNL     1       7.523   4.898  13.734  0.00  0.00    +0.000 S 
ENDBRANCH  15  16
ENDBRANCH  13  15
ENDBRANCH   1  11
TORSDOF 5
ENDMDL
MODEL 9
REMARK VINA RESULT:      -5.6      2.782      6.255
REMARK  Name = 
REMARK  8 active torsions:
REMARK  status: ('A' for Active; 'I' for Inactive)
REMARK    1  A    between atoms: C_1  and  C_2
REMARK    2  A    between atoms: C_4  and  C_5
REMARK    3  A    between atoms: N_7  and  C_8
REMARK    4  A    between atoms: C_8  and  C_9
REMARK    5  A    between atoms: N_11  and  C_12
REMARK    6  A    between atoms: N_11  and  C_13
REMARK    7  A    between atoms: C_13  and  C_14
REMARK    8  A    between atoms: C_19  and  C_20
REMARK                            x       y       z     vdW  Elec       q    Type
REMARK                         _______ _______ _______ _____ _____    ______ ____
ROOT
ATOM      1  C   UNL     1       5.366   3.199  16.456  0.00  0.00    +0.000 C 
ENDROOT
BRANCH   1   6
ATOM      2  C   UNL     1       7.822   7.291  18.018  0.00  0.00    +0.000 C 
ATOM      3  C   UNL     1       7.272   6.165  17.230  0.00  0.00    +0.000 A 
ATOM      4  N   UNL     1       7.445   6.104  15.872  0.00  0.00    +0.000 NA
ATOM      5  C   UNL     1       6.836   5.005  15.474  0.00  0.00    +0.000 A 
ATOM      6  N   UNL     1       6.209   4.384  16.533  0.00  0.00    +0.000 N 
ATOM      7  C   UNL     1       6.560   5.067  17.679  0.00  0.00    +0.000 A 
ATOM      8  C   UNL     1       6.192   4.672  19.062  0.00  0.00    +0.000 C 
BRANCH   5   9
ATOM      9  C   UNL     1       6.842   4.552  14.120  0.00  0.00    +0.000 C 
ATOM     10  N   UNL     1       6.766   4.171  13.026  0.00  0.00    +0.000 NA
ENDBRANCH   5   9
ENDBRANCH   1   6
BRANCH   1  11
ATOM     11  C   UNL     1       3.985   3.437  17.051  0.00  0.00    +0.000 C 
ATOM     12  O   UNL     1       3.433   4.526  16.861  0.00  0.00    +0.000 OA
ATOM     13  N   UNL     1       3.370   2.432  17.786  0.00  0.00    +0.000 N 
ATOM     14  C   UNL     1       3.971   1.145  18.111  0.00  0.00    +0.000 C 
BRANCH  13  15
ATOM     15  C   UNL     1       1.973   2.617  18.191  0.00  0.00    +0.000 C 
BRANCH  15  16
ATOM     16  C   UNL     1       1.874   3.391  19.476  0.00  0.00    +0.000 A 
ATOM     17  C   UNL     1       1.525   4.718  19.654  0.00  0.00    +0.000 A 
ATOM     18  C   UNL     1       1.621   5.130  21.016  0.00  0.00    +0.000 A 
ATOM     19  C   UNL     1       2.024   4.102  21.838  0.00  0.00    +0.000 A 
ATOM     20  S   UNL     1       2.300   2.657  20.969  0.00  0.00    +0.000 S 
ENDBRANCH  15  16
ENDBRANCH  13  15
ENDBRANCH   1  11
TORSDOF 5
ENDMDL
