MODEL 1
REMARK VINA RESULT:      -8.2      0.000      0.000
REMARK  Name = 
REMARK  4 active torsions:
REMARK  status: ('A' for Active; 'I' for Inactive)
REMARK    1  A    between atoms: N_1  and  C_2
REMARK    2  A    between atoms: C_4  and  O_5
REMARK    3  A    between atoms: O_5  and  C_6
REMARK    4  A    between atoms: C_17  and  C_18
REMARK                            x       y       z     vdW  Elec       q    Type
REMARK                         _______ _______ _______ _____ _____    ______ ____
ROOT
ATOM      1  C   UNL     1       1.165   8.734  20.041  0.00  0.00    +0.000 A 
ATOM      2  C   UNL     1       1.999   7.614  20.165  0.00  0.00    +0.000 A 
ATOM      3  C   UNL     1       2.828   7.205  19.114  0.00  0.00    +0.000 A 
ATOM      4  C   UNL     1       2.827   7.923  17.919  0.00  0.00    +0.000 A 
ATOM      5  C   UNL     1       2.059   9.080  17.803  0.00  0.00    +0.000 A 
ATOM      6  C   UNL     1       1.243   9.506  18.863  0.00  0.00    +0.000 A 
ENDROOT
BRANCH   6   7
ATOM      7  C   UNL     1       0.455  10.738  18.677  0.00  0.00    +0.000 A 
ATOM      8  C   UNL     1       1.015  11.927  18.990  0.00  0.00    +0.000 A 
ATOM      9  C   UNL     1       0.241  13.147  18.829  0.00  0.00    +0.000 A 
ATOM     10  C   UNL     1      -1.027  13.123  18.377  0.00  0.00    +0.000 A 
ATOM     11  C   UNL     1      -1.633  11.880  18.039  0.00  0.00    +0.000 A 
ATOM     12  N   UNL     1      -2.839  11.606  17.586  0.00  0.00    +0.000 NA
ATOM     13  C   UNL     1      -2.868  10.243  17.443  0.00  0.00    +0.000 A 
ATOM     14  C   UNL     1      -1.671   9.679  17.816  0.00  0.00    +0.000 A 
ATOM     15  N   UNL     1      -0.867  10.726  18.201  0.00  0.00    +0.000 N 
ENDBRANCH   6   7
BRANCH   1  16
ATOM     16  N   UNL     1       0.451   9.176  21.170  0.00  0.00    +0.000 N 
ATOM     17  H   UNL     1       0.589  10.157  21.389  0.00  0.00    +0.000 HD
ATOM     18  H   UNL     1       0.556   8.581  21.987  0.00  0.00    +0.000 HD
ENDBRANCH   1  16
BRANCH   3  19
ATOM     19  O   UNL     1       3.541   6.046  19.321  0.00  0.00    +0.000 OA
BRANCH  19  20
ATOM     20  C   UNL     1       2.979   4.836  18.936  0.00  0.00    +0.000 A 
ATOM     21  N   UNL     1       3.034   4.433  17.635  0.00  0.00    +0.000 NA
ATOM     22  C   UNL     1       2.473   3.257  17.274  0.00  0.00    +0.000 A 
ATOM     23  C   UNL     1       1.843   2.379  18.139  0.00  0.00    +0.000 A 
ATOM     24  C   UNL     1       1.848   2.801  19.457  0.00  0.00    +0.000 A 
ATOM     25  O   UNL     1       1.315   2.115  20.506  0.00  0.00    +0.000 OA
ATOM     26  C   UNL     1       1.532   2.860  21.621  0.00  0.00    +0.000 A 
ATOM     27  C   UNL     1       2.194   4.024  21.302  0.00  0.00    +0.000 A 
ATOM     28  C   UNL     1       2.402   3.997  19.895  0.00  0.00    +0.000 A 
ENDBRANCH  19  20
ENDBRANCH   3  19
TORSDOF 4
ENDMDL
MODEL 2
REMARK VINA RESULT:      -8.1      1.211      1.611
REMARK  Name = 
REMARK  4 active torsions:
REMARK  status: ('A' for Active; 'I' for Inactive)
REMARK    1  A    between atoms: N_1  and  C_2
REMARK    2  A    between atoms: C_4  and  O_5
REMARK    3  A    between atoms: O_5  and  C_6
REMARK    4  A    between atoms: C_17  and  C_18
REMARK                            x       y       z     vdW  Elec       q    Type
REMARK                         _______ _______ _______ _____ _____    ______ ____
ROOT
ATOM      1  C   UNL     1       1.462   9.442  18.749  0.00  0.00    +0.000 A 
ATOM      2  C   UNL     1       2.271   8.298  18.719  0.00  0.00    +0.000 A 
ATOM      3  C   UNL     1       2.253   7.368  19.765  0.00  0.00    +0.000 A 
ATOM      4  C   UNL     1       1.417   7.580  20.860  0.00  0.00    +0.000 A 
ATOM      5  C   UNL     1       0.553   8.674  20.873  0.00  0.00    +0.000 A 
ATOM      6  C   UNL     1       0.552   9.597  19.815  0.00  0.00    +0.000 A 
ENDROOT
BRANCH   6   7
ATOM      7  C   UNL     1      -0.385  10.733  19.891  0.00  0.00    +0.000 A 
ATOM      8  C   UNL     1      -0.137  11.729  20.769  0.00  0.00    +0.000 A 
ATOM      9  C   UNL     1      -1.065  12.845  20.867  0.00  0.00    +0.000 A 
ATOM     10  C   UNL     1      -2.172  12.910  20.105  0.00  0.00    +0.000 A 
ATOM     11  C   UNL     1      -2.450  11.870  19.172  0.00  0.00    +0.000 A 
ATOM     12  N   UNL     1      -3.452  11.712  18.332  0.00  0.00    +0.000 NA
ATOM     13  C   UNL     1      -3.199  10.530  17.688  0.00  0.00    +0.000 A 
ATOM     14  C   UNL     1      -2.033   9.956  18.141  0.00  0.00    +0.000 A 
ATOM     15  N   UNL     1      -1.542  10.814  19.097  0.00  0.00    +0.000 N 
ENDBRANCH   6   7
BRANCH   1  16
ATOM     16  N   UNL     1       1.423  10.275  17.616  0.00  0.00    +0.000 N 
ATOM     17  H   UNL     1       2.275  10.805  17.462  0.00  0.00    +0.000 HD
ATOM     18  H   UNL     1       0.592  10.856  17.555  0.00  0.00    +0.000 HD
ENDBRANCH   1  16
BRANCH   3  19
ATOM     19  O   UNL     1       3.149   6.327  19.665  0.00  0.00    +0.000 OA
BRANCH  19  20
ATOM     20  C   UNL     1       2.710   5.112  19.155  0.00  0.00    +0.000 A 
ATOM     21  N   UNL     1       2.758   4.868  17.815  0.00  0.00    +0.000 NA
ATOM     22  C   UNL     1       2.318   3.683  17.334  0.00  0.00    +0.000 A 
ATOM     23  C   UNL     1       1.823   2.648  18.106  0.00  0.00    +0.000 A 
ATOM     24  C   UNL     1       1.831   2.915  19.464  0.00  0.00    +0.000 A 
ATOM     25  O   UNL     1       1.419   2.058  20.439  0.00  0.00    +0.000 OA
ATOM     26  C   UNL     1       1.594   2.692  21.627  0.00  0.00    +0.000 A 
ATOM     27  C   UNL     1       2.111   3.953  21.429  0.00  0.00    +0.000 A 
ATOM     28  C   UNL     1       2.266   4.109  20.024  0.00  0.00    +0.000 A 
ENDBRANCH  19  20
ENDBRANCH   3  19
TORSDOF 4
ENDMDL
MODEL 3
REMARK VINA RESULT:      -8.0      1.000      2.013
REMARK  Name = 
REMARK  4 active torsions:
REMARK  status: ('A' for Active; 'I' for Inactive)
REMARK    1  A    between atoms: N_1  and  C_2
REMARK    2  A    between atoms: C_4  and  O_5
REMARK    3  A    between atoms: O_5  and  C_6
REMARK    4  A    between atoms: C_17  and  C_18
REMARK                            x       y       z     vdW  Elec       q    Type
REMARK                         _______ _______ _______ _____ _____    ______ ____
ROOT
ATOM      1  C   UNL     1       1.173   8.659  20.098  0.00  0.00    +0.000 A 
ATOM      2  C   UNL     1       2.052   7.573  20.220  0.00  0.00    +0.000 A 
ATOM      3  C   UNL     1       2.820   7.135  19.135  0.00  0.00    +0.000 A 
ATOM      4  C   UNL     1       2.711   7.787  17.907  0.00  0.00    +0.000 A 
ATOM      5  C   UNL     1       1.897   8.912  17.787  0.00  0.00    +0.000 A 
ATOM      6  C   UNL     1       1.142   9.368  18.879  0.00  0.00    +0.000 A 
ENDROOT
BRANCH   6   7
ATOM      7  C   UNL     1       0.300  10.563  18.686  0.00  0.00    +0.000 A 
ATOM      8  C   UNL     1      -0.965  10.407  18.237  0.00  0.00    +0.000 A 
ATOM      9  C   UNL     1      -1.798  11.579  18.023  0.00  0.00    +0.000 A 
ATOM     10  C   UNL     1      -1.339  12.823  18.259  0.00  0.00    +0.000 A 
ATOM     11  C   UNL     1      -0.010  13.007  18.735  0.00  0.00    +0.000 A 
ATOM     12  N   UNL     1       0.653  14.105  19.032  0.00  0.00    +0.000 NA
ATOM     13  C   UNL     1       1.891  13.680  19.438  0.00  0.00    +0.000 A 
ATOM     14  C   UNL     1       1.987  12.308  19.384  0.00  0.00    +0.000 A 
ATOM     15  N   UNL     1       0.766  11.865  18.934  0.00  0.00    +0.000 N 
ENDBRANCH   6   7
BRANCH   1  16
ATOM     16  N   UNL     1       0.524   9.137  21.250  0.00  0.00    +0.000 N 
ATOM     17  H   UNL     1      -0.371   8.695  21.436  0.00  0.00    +0.000 HD
ATOM     18  H   UNL     1       0.471  10.150  21.307  0.00  0.00    +0.000 HD
ENDBRANCH   1  16
BRANCH   3  19
ATOM     19  O   UNL     1       3.586   6.011  19.349  0.00  0.00    +0.000 OA
BRANCH  19  20
ATOM     20  C   UNL     1       3.092   4.777  18.950  0.00  0.00    +0.000 A 
ATOM     21  N   UNL     1       3.248   4.355  17.664  0.00  0.00    +0.000 NA
ATOM     22  C   UNL     1       2.752   3.154  17.288  0.00  0.00    +0.000 A 
ATOM     23  C   UNL     1       2.093   2.271  18.125  0.00  0.00    +0.000 A 
ATOM     24  C   UNL     1       1.994   2.714  19.432  0.00  0.00    +0.000 A 
ATOM     25  O   UNL     1       1.413   2.028  20.455  0.00  0.00    +0.000 OA
ATOM     26  C   UNL     1       1.528   2.799  21.567  0.00  0.00    +0.000 A 
ATOM     27  C   UNL     1       2.173   3.979  21.272  0.00  0.00    +0.000 A 
ATOM     28  C   UNL     1       2.478   3.936  19.883  0.00  0.00    +0.000 A 
ENDBRANCH  19  20
ENDBRANCH   3  19
TORSDOF 4
ENDMDL
MODEL 4
REMARK VINA RESULT:      -8.0      2.636      7.682
REMARK  Name = 
REMARK  4 active torsions:
REMARK  status: ('A' for Active; 'I' for Inactive)
REMARK    1  A    between atoms: N_1  and  C_2
REMARK    2  A    between atoms: C_4  and  O_5
REMARK    3  A    between atoms: O_5  and  C_6
REMARK    4  A    between atoms: C_17  and  C_18
REMARK                            x       y       z     vdW  Elec       q    Type
REMARK                         _______ _______ _______ _____ _____    ______ ____
ROOT
ATOM      1  C   UNL     1       1.953   7.540  20.083  0.00  0.00    +0.000 A 
ATOM      2  C   UNL     1       1.227   8.733  19.967  0.00  0.00    +0.000 A 
ATOM      3  C   UNL     1       1.247   9.484  18.786  0.00  0.00    +0.000 A 
ATOM      4  C   UNL     1       2.003   9.040  17.702  0.00  0.00    +0.000 A 
ATOM      5  C   UNL     1       2.673   7.820  17.774  0.00  0.00    +0.000 A 
ATOM      6  C   UNL     1       2.637   7.053  18.949  0.00  0.00    +0.000 A 
ENDROOT
BRANCH   6   7
ATOM      7  C   UNL     1       3.367   5.773  18.961  0.00  0.00    +0.000 A 
ATOM      8  C   UNL     1       4.705   5.784  19.151  0.00  0.00    +0.000 A 
ATOM      9  C   UNL     1       5.440   4.529  19.143  0.00  0.00    +0.000 A 
ATOM     10  C   UNL     1       4.819   3.350  18.949  0.00  0.00    +0.000 A 
ATOM     11  C   UNL     1       3.410   3.318  18.750  0.00  0.00    +0.000 A 
ATOM     12  N   UNL     1       2.593   2.307  18.542  0.00  0.00    +0.000 NA
ATOM     13  C   UNL     1       1.349   2.867  18.419  0.00  0.00    +0.000 A 
ATOM     14  C   UNL     1       1.406   4.236  18.548  0.00  0.00    +0.000 A 
ATOM     15  N   UNL     1       2.731   4.536  18.764  0.00  0.00    +0.000 N 
ENDBRANCH   6   7
BRANCH   1  16
ATOM     16  N   UNL     1       1.795   6.760  21.243  0.00  0.00    +0.000 N 
ATOM     17  H   UNL     1       1.957   5.768  21.101  0.00  0.00    +0.000 HD
ATOM     18  H   UNL     1       0.933   6.941  21.751  0.00  0.00    +0.000 HD
ENDBRANCH   1  16
BRANCH   3  19
ATOM     19  O   UNL     1       0.562  10.678  18.815  0.00  0.00    +0.000 OA
BRANCH  19  20
ATOM     20  C   UNL     1      -0.771  10.696  18.428  0.00  0.00    +0.000 A 
ATOM     21  N   UNL     1      -1.205   9.899  17.411  0.00  0.00    +0.000 NA
ATOM     22  C   UNL     1      -2.504   9.935  17.039  0.00  0.00    +0.000 A 
ATOM     23  C   UNL     1      -3.478  10.720  17.631  0.00  0.00    +0.000 A 
ATOM     24  C   UNL     1      -3.009  11.481  18.688  0.00  0.00    +0.000 A 
ATOM     25  O   UNL     1      -3.764  12.320  19.451  0.00  0.00    +0.000 OA
ATOM     26  C   UNL     1      -2.937  12.867  20.379  0.00  0.00    +0.000 A 
ATOM     27  C   UNL     1      -1.654  12.395  20.219  0.00  0.00    +0.000 A 
ATOM     28  C   UNL     1      -1.689  11.494  19.119  0.00  0.00    +0.000 A 
ENDBRANCH  19  20
ENDBRANCH   3  19
TORSDOF 4
ENDMDL
MODEL 5
REMARK VINA RESULT:      -7.9      2.448      3.524
REMARK  Name = 
REMARK  4 active torsions:
REMARK  status: ('A' for Active; 'I' for Inactive)
REMARK    1  A    between atoms: N_1  and  C_2
REMARK    2  A    between atoms: C_4  and  O_5
REMARK    3  A    between atoms: O_5  and  C_6
REMARK    4  A    between atoms: C_17  and  C_18
REMARK                            x       y       z     vdW  Elec       q    Type
REMARK                         _______ _______ _______ _____ _____    ______ ____
ROOT
ATOM      1  C   UNL     1       1.563   8.096  19.930  0.00  0.00    +0.000 A 
ATOM      2  C   UNL     1       2.292   6.906  19.797  0.00  0.00    +0.000 A 
ATOM      3  C   UNL     1       2.993   6.611  18.622  0.00  0.00    +0.000 A 
ATOM      4  C   UNL     1       2.966   7.514  17.560  0.00  0.00    +0.000 A 
ATOM      5  C   UNL     1       2.307   8.734  17.701  0.00  0.00    +0.000 A 
ATOM      6  C   UNL     1       1.622   9.043  18.887  0.00  0.00    +0.000 A 
ENDROOT
BRANCH   6   7
ATOM      7  C   UNL     1       0.944  10.350  18.972  0.00  0.00    +0.000 A 
ATOM      8  C   UNL     1       1.542  11.354  19.650  0.00  0.00    +0.000 A 
ATOM      9  C   UNL     1       0.874  12.642  19.758  0.00  0.00    +0.000 A 
ATOM     10  C   UNL     1      -0.332  12.859  19.200  0.00  0.00    +0.000 A 
ATOM     11  C   UNL     1      -0.977  11.813  18.480  0.00  0.00    +0.000 A 
ATOM     12  N   UNL     1      -2.137  11.785  17.859  0.00  0.00    +0.000 NA
ATOM     13  C   UNL     1      -2.240  10.518  17.346  0.00  0.00    +0.000 A 
ATOM     14  C   UNL     1      -1.134   9.763  17.661  0.00  0.00    +0.000 A 
ATOM     15  N   UNL     1      -0.312  10.590  18.391  0.00  0.00    +0.000 N 
ENDBRANCH   6   7
BRANCH   1  16
ATOM     16  N   UNL     1       0.987   8.402  21.176  0.00  0.00    +0.000 N 
ATOM     17  H   UNL     1      -0.028   8.399  21.175  0.00  0.00    +0.000 HD
ATOM     18  H   UNL     1       1.369   9.232  21.619  0.00  0.00    +0.000 HD
ENDBRANCH   1  16
BRANCH   3  19
ATOM     19  O   UNL     1       3.605   5.378  18.575  0.00  0.00    +0.000 OA
BRANCH  19  20
ATOM     20  C   UNL     1       4.987   5.321  18.463  0.00  0.00    +0.000 A 
ATOM     21  N   UNL     1       5.778   5.585  19.541  0.00  0.00    +0.000 NA
ATOM     22  C   UNL     1       7.124   5.534  19.413  0.00  0.00    +0.000 A 
ATOM     23  C   UNL     1       7.798   5.205  18.251  0.00  0.00    +0.000 A 
ATOM     24  C   UNL     1       6.962   4.899  17.191  0.00  0.00    +0.000 A 
ATOM     25  O   UNL     1       7.371   4.524  15.948  0.00  0.00    +0.000 OA
ATOM     26  C   UNL     1       6.252   4.309  15.209  0.00  0.00    +0.000 A 
ATOM     27  C   UNL     1       5.124   4.547  15.961  0.00  0.00    +0.000 A 
ATOM     28  C   UNL     1       5.575   4.935  17.253  0.00  0.00    +0.000 A 
ENDBRANCH  19  20
ENDBRANCH   3  19
TORSDOF 4
ENDMDL
MODEL 6
REMARK VINA RESULT:      -7.9      1.060      1.325
REMARK  Name = 
REMARK  4 active torsions:
REMARK  status: ('A' for Active; 'I' for Inactive)
REMARK    1  A    between atoms: N_1  and  C_2
REMARK    2  A    between atoms: C_4  and  O_5
REMARK    3  A    between atoms: O_5  and  C_6
REMARK    4  A    between atoms: C_17  and  C_18
REMARK                            x       y       z     vdW  Elec       q    Type
REMARK                         _______ _______ _______ _____ _____    ______ ____
ROOT
ATOM      1  C   UNL     1       1.006   8.920  20.417  0.00  0.00    +0.000 A 
ATOM      2  C   UNL     1       1.721   7.747  20.697  0.00  0.00    +0.000 A 
ATOM      3  C   UNL     1       2.475   7.103  19.710  0.00  0.00    +0.000 A 
ATOM      4  C   UNL     1       2.517   7.634  18.421  0.00  0.00    +0.000 A 
ATOM      5  C   UNL     1       1.871   8.838  18.143  0.00  0.00    +0.000 A 
ATOM      6  C   UNL     1       1.132   9.498  19.138  0.00  0.00    +0.000 A 
ENDROOT
BRANCH   6   7
ATOM      7  C   UNL     1       0.472  10.767  18.779  0.00  0.00    +0.000 A 
ATOM      8  C   UNL     1       1.172  11.919  18.874  0.00  0.00    +0.000 A 
ATOM      9  C   UNL     1       0.526  13.179  18.543  0.00  0.00    +0.000 A 
ATOM     10  C   UNL     1      -0.759  13.228  18.144  0.00  0.00    +0.000 A 
ATOM     11  C   UNL     1      -1.512  12.024  18.035  0.00  0.00    +0.000 A 
ATOM     12  N   UNL     1      -2.762  11.821  17.674  0.00  0.00    +0.000 NA
ATOM     13  C   UNL     1      -2.945  10.465  17.757  0.00  0.00    +0.000 A 
ATOM     14  C   UNL     1      -1.797   9.834  18.177  0.00  0.00    +0.000 A 
ATOM     15  N   UNL     1      -0.866  10.831  18.357  0.00  0.00    +0.000 N 
ENDBRANCH   6   7
BRANCH   1  16
ATOM     16  N   UNL     1       0.372   9.596  21.476  0.00  0.00    +0.000 N 
ATOM     17  H   UNL     1       0.936  10.326  21.899  0.00  0.00    +0.000 HD
ATOM     18  H   UNL     1      -0.046   8.982  22.169  0.00  0.00    +0.000 HD
ENDBRANCH   1  16
BRANCH   3  19
ATOM     19  O   UNL     1       3.069   5.917  20.078  0.00  0.00    +0.000 OA
BRANCH  19  20
ATOM     20  C   UNL     1       3.346   4.974  19.098  0.00  0.00    +0.000 A 
ATOM     21  N   UNL     1       4.516   5.026  18.401  0.00  0.00    +0.000 NA
ATOM     22  C   UNL     1       4.767   4.105  17.442  0.00  0.00    +0.000 A 
ATOM     23  C   UNL     1       3.923   3.062  17.104  0.00  0.00    +0.000 A 
ATOM     24  C   UNL     1       2.766   3.015  17.863  0.00  0.00    +0.000 A 
ATOM     25  O   UNL     1       1.784   2.080  17.746  0.00  0.00    +0.000 OA
ATOM     26  C   UNL     1       0.835   2.381  18.670  0.00  0.00    +0.000 A 
ATOM     27  C   UNL     1       1.191   3.506  19.378  0.00  0.00    +0.000 A 
ATOM     28  C   UNL     1       2.446   3.929  18.859  0.00  0.00    +0.000 A 
ENDBRANCH  19  20
ENDBRANCH   3  19
TORSDOF 4
ENDMDL
MODEL 7
REMARK VINA RESULT:      -7.9      2.871      8.006
REMARK  Name = 
REMARK  4 active torsions:
REMARK  status: ('A' for Active; 'I' for Inactive)
REMARK    1  A    between atoms: N_1  and  C_2
REMARK    2  A    between atoms: C_4  and  O_5
REMARK    3  A    between atoms: O_5  and  C_6
REMARK    4  A    between atoms: C_17  and  C_18
REMARK                            x       y       z     vdW  Elec       q    Type
REMARK                         _______ _______ _______ _____ _____    ______ ____
ROOT
ATOM      1  C   UNL     1       2.699   6.664  19.684  0.00  0.00    +0.000 A 
ATOM      2  C   UNL     1       1.834   7.616  20.241  0.00  0.00    +0.000 A 
ATOM      3  C   UNL     1       1.434   8.746  19.518  0.00  0.00    +0.000 A 
ATOM      4  C   UNL     1       1.904   8.933  18.219  0.00  0.00    +0.000 A 
ATOM      5  C   UNL     1       2.707   7.962  17.623  0.00  0.00    +0.000 A 
ATOM      6  C   UNL     1       3.092   6.816  18.338  0.00  0.00    +0.000 A 
ENDROOT
BRANCH   6   7
ATOM      7  C   UNL     1       3.942   5.827  17.650  0.00  0.00    +0.000 A 
ATOM      8  C   UNL     1       3.402   4.647  17.276  0.00  0.00    +0.000 A 
ATOM      9  C   UNL     1       4.235   3.655  16.615  0.00  0.00    +0.000 A 
ATOM     10  C   UNL     1       5.539   3.882  16.368  0.00  0.00    +0.000 A 
ATOM     11  C   UNL     1       6.126   5.121  16.753  0.00  0.00    +0.000 A 
ATOM     12  N   UNL     1       7.358   5.567  16.622  0.00  0.00    +0.000 NA
ATOM     13  C   UNL     1       7.347   6.822  17.174  0.00  0.00    +0.000 A 
ATOM     14  C   UNL     1       6.098   7.144  17.651  0.00  0.00    +0.000 A 
ATOM     15  N   UNL     1       5.302   6.054  17.382  0.00  0.00    +0.000 N 
ENDBRANCH   6   7
BRANCH   1  16
ATOM     16  N   UNL     1       2.965   5.486  20.404  0.00  0.00    +0.000 N 
ATOM     17  H   UNL     1       3.029   5.620  21.408  0.00  0.00    +0.000 HD
ATOM     18  H   UNL     1       3.740   4.941  20.038  0.00  0.00    +0.000 HD
ENDBRANCH   1  16
BRANCH   3  19
ATOM     19  O   UNL     1       0.649   9.652  20.196  0.00  0.00    +0.000 OA
BRANCH  19  20
ATOM     20  C   UNL     1       0.276  10.826  19.555  0.00  0.00    +0.000 A 
ATOM     21  N   UNL     1       1.033  11.952  19.684  0.00  0.00    +0.000 NA
ATOM     22  C   UNL     1       0.650  13.091  19.061  0.00  0.00    +0.000 A 
ATOM     23  C   UNL     1      -0.468  13.218  18.257  0.00  0.00    +0.000 A 
ATOM     24  C   UNL     1      -1.185  12.043  18.114  0.00  0.00    +0.000 A 
ATOM     25  O   UNL     1      -2.311  11.893  17.362  0.00  0.00    +0.000 OA
ATOM     26  C   UNL     1      -2.699  10.597  17.480  0.00  0.00    +0.000 A 
ATOM     27  C   UNL     1      -1.839   9.909  18.306  0.00  0.00    +0.000 A 
ATOM     28  C   UNL     1      -0.851  10.842  18.727  0.00  0.00    +0.000 A 
ENDBRANCH  19  20
ENDBRANCH   3  19
TORSDOF 4
ENDMDL
MODEL 8
REMARK VINA RESULT:      -7.8      1.208      1.813
REMARK  Name = 
REMARK  4 active torsions:
REMARK  status: ('A' for Active; 'I' for Inactive)
REMARK    1  A    between atoms: N_1  and  C_2
REMARK    2  A    between atoms: C_4  and  O_5
REMARK    3  A    between atoms: O_5  and  C_6
REMARK    4  A    between atoms: C_17  and  C_18
REMARK                            x       y       z     vdW  Elec       q    Type
REMARK                         _______ _______ _______ _____ _____    ______ ____
ROOT
ATOM      1  C   UNL     1       1.031   8.921  20.426  0.00  0.00    +0.000 A 
ATOM      2  C   UNL     1       1.724   7.733  20.699  0.00  0.00    +0.000 A 
ATOM      3  C   UNL     1       2.442   7.064  19.701  0.00  0.00    +0.000 A 
ATOM      4  C   UNL     1       2.469   7.585  18.408  0.00  0.00    +0.000 A 
ATOM      5  C   UNL     1       1.846   8.802  18.134  0.00  0.00    +0.000 A 
ATOM      6  C   UNL     1       1.144   9.487  19.139  0.00  0.00    +0.000 A 
ENDROOT
BRANCH   6   7
ATOM      7  C   UNL     1       0.507  10.768  18.785  0.00  0.00    +0.000 A 
ATOM      8  C   UNL     1       1.233  11.905  18.867  0.00  0.00    +0.000 A 
ATOM      9  C   UNL     1       0.610  13.177  18.540  0.00  0.00    +0.000 A 
ATOM     10  C   UNL     1      -0.679  13.254  18.158  0.00  0.00    +0.000 A 
ATOM     11  C   UNL     1      -1.460  12.066  18.063  0.00  0.00    +0.000 A 
ATOM     12  N   UNL     1      -2.718  11.889  17.720  0.00  0.00    +0.000 NA
ATOM     13  C   UNL     1      -2.929  10.538  17.810  0.00  0.00    +0.000 A 
ATOM     14  C   UNL     1      -1.789   9.883  18.217  0.00  0.00    +0.000 A 
ATOM     15  N   UNL     1      -0.835  10.860  18.381  0.00  0.00    +0.000 N 
ENDBRANCH   6   7
BRANCH   1  16
ATOM     16  N   UNL     1       0.436   9.618  21.492  0.00  0.00    +0.000 N 
ATOM     17  H   UNL     1      -0.317   9.113  21.949  0.00  0.00    +0.000 HD
ATOM     18  H   UNL     1       0.177  10.575  21.270  0.00  0.00    +0.000 HD
ENDBRANCH   1  16
BRANCH   3  19
ATOM     19  O   UNL     1       3.015   5.867  20.065  0.00  0.00    +0.000 OA
BRANCH  19  20
ATOM     20  C   UNL     1       2.373   4.685  19.723  0.00  0.00    +0.000 A 
ATOM     21  N   UNL     1       1.215   4.323  20.344  0.00  0.00    +0.000 NA
ATOM     22  C   UNL     1       0.606   3.164  20.005  0.00  0.00    +0.000 A 
ATOM     23  C   UNL     1       1.055   2.287  19.034  0.00  0.00    +0.000 A 
ATOM     24  C   UNL     1       2.207   2.710  18.394  0.00  0.00    +0.000 A 
ATOM     25  O   UNL     1       2.840   2.043  17.389  0.00  0.00    +0.000 OA
ATOM     26  C   UNL     1       3.918   2.789  17.033  0.00  0.00    +0.000 A 
ATOM     27  C   UNL     1       3.991   3.928  17.803  0.00  0.00    +0.000 A 
ATOM     28  C   UNL     1       2.883   3.885  18.694  0.00  0.00    +0.000 A 
ENDBRANCH  19  20
ENDBRANCH   3  19
TORSDOF 4
ENDMDL
MODEL 9
REMARK VINA RESULT:      -7.8      1.329      2.098
REMARK  Name = 
REMARK  4 active torsions:
REMARK  status: ('A' for Active; 'I' for Inactive)
REMARK    1  A    between atoms: N_1  and  C_2
REMARK    2  A    between atoms: C_4  and  O_5
REMARK    3  A    between atoms: O_5  and  C_6
REMARK    4  A    between atoms: C_17  and  C_18
REMARK                            x       y       z     vdW  Elec       q    Type
REMARK                         _______ _______ _______ _____ _____    ______ ____
ROOT
ATOM      1  C   UNL     1       0.944   8.886  20.448  0.00  0.00    +0.000 A 
ATOM      2  C   UNL     1       1.639   7.698  20.713  0.00  0.00    +0.000 A 
ATOM      3  C   UNL     1       2.382   7.052  19.718  0.00  0.00    +0.000 A 
ATOM      4  C   UNL     1       2.432   7.597  18.435  0.00  0.00    +0.000 A 
ATOM      5  C   UNL     1       1.807   8.815  18.172  0.00  0.00    +0.000 A 
ATOM      6  C   UNL     1       1.080   9.477  19.175  0.00  0.00    +0.000 A 
ENDROOT
BRANCH   6   7
ATOM      7  C   UNL     1       0.442  10.760  18.831  0.00  0.00    +0.000 A 
ATOM      8  C   UNL     1       1.159  11.900  18.949  0.00  0.00    +0.000 A 
ATOM      9  C   UNL     1       0.534  13.175  18.633  0.00  0.00    +0.000 A 
ATOM     10  C   UNL     1      -0.747  13.250  18.226  0.00  0.00    +0.000 A 
ATOM     11  C   UNL     1      -1.517  12.060  18.093  0.00  0.00    +0.000 A 
ATOM     12  N   UNL     1      -2.768  11.881  17.720  0.00  0.00    +0.000 NA
ATOM     13  C   UNL     1      -2.972  10.527  17.781  0.00  0.00    +0.000 A 
ATOM     14  C   UNL     1      -1.836   9.872  18.199  0.00  0.00    +0.000 A 
ATOM     15  N   UNL     1      -0.892  10.852  18.401  0.00  0.00    +0.000 N 
ENDBRANCH   6   7
BRANCH   1  16
ATOM     16  N   UNL     1       0.323   9.560  21.514  0.00  0.00    +0.000 N 
ATOM     17  H   UNL     1      -0.588   9.189  21.765  0.00  0.00    +0.000 HD
ATOM     18  H   UNL     1       0.313  10.571  21.418  0.00  0.00    +0.000 HD
ENDBRANCH   1  16
BRANCH   3  19
ATOM     19  O   UNL     1       2.955   5.851  20.072  0.00  0.00    +0.000 OA
BRANCH  19  20
ATOM     20  C   UNL     1       2.838   4.772  19.206  0.00  0.00    +0.000 A 
ATOM     21  N   UNL     1       1.708   4.011  19.200  0.00  0.00    +0.000 NA
ATOM     22  C   UNL     1       1.614   2.958  18.357  0.00  0.00    +0.000 A 
ATOM     23  C   UNL     1       2.587   2.578  17.450  0.00  0.00    +0.000 A 
ATOM     24  C   UNL     1       3.700   3.401  17.453  0.00  0.00    +0.000 A 
ATOM     25  O   UNL     1       4.787   3.260  16.645  0.00  0.00    +0.000 OA
ATOM     26  C   UNL     1       5.646   4.266  16.954  0.00  0.00    +0.000 A 
ATOM     27  C   UNL     1       5.128   5.051  17.959  0.00  0.00    +0.000 A 
ATOM     28  C   UNL     1       3.862   4.495  18.294  0.00  0.00    +0.000 A 
ENDBRANCH  19  20
ENDBRANCH   3  19
TORSDOF 4
ENDMDL
