MODEL 1
REMARK VINA RESULT:      -7.5      0.000      0.000
REMARK  Name = 
REMARK  11 active torsions:
REMARK  status: ('A' for Active; 'I' for Inactive)
REMARK    1  A    between atoms: C_1  and  C_2
REMARK    2  A    between atoms: C_2  and  C_3
REMARK    3  A    between atoms: C_4  and  C_5
REMARK    4  A    between atoms: N_7  and  O_8
REMARK    5  A    between atoms: C_9  and  C_10
REMARK    6  A    between atoms: C_10  and  C_11
REMARK    7  A    between atoms: C_10  and  C_12
REMARK    8  A    between atoms: C_12  and  C_14
REMARK    9  A    between atoms: C_17  and  N_18
REMARK   10  A    between atoms: N_18  and  C_19
REMARK   11  A    between atoms: N_18  and  C_20
REMARK                            x       y       z     vdW  Elec       q    Type
REMARK                         _______ _______ _______ _____ _____    ______ ____
ROOT
ATOM      1  C   UNL     1       6.923   6.578  17.809  0.00  0.00    +0.000 C 
ATOM      2  C   UNL     1       8.046   7.544  18.193  0.00  0.00    +0.000 C 
ENDROOT
BRANCH   1   5
ATOM      3  C   UNL     1       4.777   5.651  15.822  0.00  0.00    +0.000 C 
ATOM      4  C   UNL     1       6.261   5.488  15.591  0.00  0.00    +0.000 C 
ATOM      5  C   UNL     1       7.193   5.934  16.463  0.00  0.00    +0.000 C 
BRANCH   4   6
ATOM      6  C   UNL     1       6.681   4.803  14.362  0.00  0.00    +0.000 C 
ATOM      7  C   UNL     1       5.878   4.089  13.554  0.00  0.00    +0.000 C 
BRANCH   7   8
ATOM      8  C   UNL     1       6.421   3.345  12.390  0.00  0.00    +0.000 C 
ATOM      9  O   UNL     1       7.331   3.757  11.679  0.00  0.00    +0.000 OA
ATOM     10  N   UNL     1       5.827   2.124  12.208  0.00  0.00    +0.000 N 
ATOM     11  H   UNL     1       5.099   1.723  12.788  0.00  0.00    +0.000 HD
BRANCH  10  12
ATOM     12  O   UNL     1       6.337   1.310  11.174  0.00  0.00    +0.000 OA
ATOM     13  H   UNL     1       7.265   1.165  11.460  0.00  0.00    +0.000 HD
ENDBRANCH  10  12
ENDBRANCH   7   8
ENDBRANCH   4   6
ENDBRANCH   1   5
BRANCH   1  14
ATOM     14  C   UNL     1       6.773   5.504  18.901  0.00  0.00    +0.000 C 
ATOM     15  O   UNL     1       7.741   5.063  19.529  0.00  0.00    +0.000 OA
BRANCH  14  16
ATOM     16  C   UNL     1       5.416   4.967  19.220  0.00  0.00    +0.000 A 
ATOM     17  C   UNL     1       4.314   5.787  19.455  0.00  0.00    +0.000 A 
ATOM     18  C   UNL     1       3.044   5.223  19.667  0.00  0.00    +0.000 A 
ATOM     19  C   UNL     1       2.826   3.835  19.659  0.00  0.00    +0.000 A 
ATOM     20  C   UNL     1       3.969   3.036  19.484  0.00  0.00    +0.000 A 
ATOM     21  C   UNL     1       5.240   3.584  19.253  0.00  0.00    +0.000 A 
BRANCH  19  22
ATOM     22  N   UNL     1       1.575   3.255  19.874  0.00  0.00    +0.000 N 
ATOM     23  C   UNL     1       1.262   2.749  21.217  0.00  0.00    +0.000 C 
ATOM     24  C   UNL     1       0.902   2.519  18.805  0.00  0.00    +0.000 C 
ENDBRANCH  19  22
ENDBRANCH  14  16
ENDBRANCH   1  14
TORSDOF 7
ENDMDL
MODEL 2
REMARK VINA RESULT:      -7.4      3.567      5.974
REMARK  Name = 
REMARK  11 active torsions:
REMARK  status: ('A' for Active; 'I' for Inactive)
REMARK    1  A    between atoms: C_1  and  C_2
REMARK    2  A    between atoms: C_2  and  C_3
REMARK    3  A    between atoms: C_4  and  C_5
REMARK    4  A    between atoms: N_7  and  O_8
REMARK    5  A    between atoms: C_9  and  C_10
REMARK    6  A    between atoms: C_10  and  C_11
REMARK    7  A    between atoms: C_10  and  C_12
REMARK    8  A    between atoms: C_12  and  C_14
REMARK    9  A    between atoms: C_17  and  N_18
REMARK   10  A    between atoms: N_18  and  C_19
REMARK   11  A    between atoms: N_18  and  C_20
REMARK                            x       y       z     vdW  Elec       q    Type
REMARK                         _______ _______ _______ _____ _____    ______ ____
ROOT
ATOM      1  C   UNL     1       6.765   5.603  16.481  0.00  0.00    +0.000 C 
ATOM      2  C   UNL     1       7.451   5.127  15.197  0.00  0.00    +0.000 C 
ENDROOT
BRANCH   1   5
ATOM      3  C   UNL     1       7.774   5.792  19.371  0.00  0.00    +0.000 C 
ATOM      4  C   UNL     1       7.913   6.905  18.359  0.00  0.00    +0.000 C 
ATOM      5  C   UNL     1       7.492   6.791  17.079  0.00  0.00    +0.000 C 
BRANCH   4   6
ATOM      6  C   UNL     1       8.526   8.159  18.816  0.00  0.00    +0.000 C 
ATOM      7  C   UNL     1       8.448   9.342  18.181  0.00  0.00    +0.000 C 
BRANCH   7   8
ATOM      8  C   UNL     1       9.192  10.529  18.670  0.00  0.00    +0.000 C 
ATOM      9  O   UNL     1       9.387  11.537  18.001  0.00  0.00    +0.000 OA
ATOM     10  N   UNL     1       9.610  10.403  19.970  0.00  0.00    +0.000 N 
ATOM     11  H   UNL     1       9.442   9.608  20.575  0.00  0.00    +0.000 HD
BRANCH  10  12
ATOM     12  O   UNL     1      10.254  11.519  20.547  0.00  0.00    +0.000 OA
ATOM     13  H   UNL     1       9.558  11.879  21.138  0.00  0.00    +0.000 HD
ENDBRANCH  10  12
ENDBRANCH   7   8
ENDBRANCH   4   6
ENDBRANCH   1   5
BRANCH   1  14
ATOM     14  C   UNL     1       5.300   5.964  16.176  0.00  0.00    +0.000 C 
ATOM     15  O   UNL     1       4.992   6.811  15.331  0.00  0.00    +0.000 OA
BRANCH  14  16
ATOM     16  C   UNL     1       4.205   5.276  16.923  0.00  0.00    +0.000 A 
ATOM     17  C   UNL     1       4.024   3.894  16.896  0.00  0.00    +0.000 A 
ATOM     18  C   UNL     1       3.028   3.295  17.687  0.00  0.00    +0.000 A 
ATOM     19  C   UNL     1       2.178   4.042  18.521  0.00  0.00    +0.000 A 
ATOM     20  C   UNL     1       2.345   5.437  18.474  0.00  0.00    +0.000 A 
ATOM     21  C   UNL     1       3.346   6.047  17.704  0.00  0.00    +0.000 A 
BRANCH  19  22
ATOM     22  N   UNL     1       1.179   3.467  19.307  0.00  0.00    +0.000 N 
ATOM     23  C   UNL     1       1.186   3.734  20.751  0.00  0.00    +0.000 C 
ATOM     24  C   UNL     1       0.620   2.161  18.962  0.00  0.00    +0.000 C 
ENDBRANCH  19  22
ENDBRANCH  14  16
ENDBRANCH   1  14
TORSDOF 7
ENDMDL
MODEL 3
REMARK VINA RESULT:      -7.3      0.331      1.272
REMARK  Name = 
REMARK  11 active torsions:
REMARK  status: ('A' for Active; 'I' for Inactive)
REMARK    1  A    between atoms: C_1  and  C_2
REMARK    2  A    between atoms: C_2  and  C_3
REMARK    3  A    between atoms: C_4  and  C_5
REMARK    4  A    between atoms: N_7  and  O_8
REMARK    5  A    between atoms: C_9  and  C_10
REMARK    6  A    between atoms: C_10  and  C_11
REMARK    7  A    between atoms: C_10  and  C_12
REMARK    8  A    between atoms: C_12  and  C_14
REMARK    9  A    between atoms: C_17  and  N_18
REMARK   10  A    between atoms: N_18  and  C_19
REMARK   11  A    between atoms: N_18  and  C_20
REMARK                            x       y       z     vdW  Elec       q    Type
REMARK                         _______ _______ _______ _____ _____    ______ ____
ROOT
ATOM      1  C   UNL     1       6.850   6.536  17.713  0.00  0.00    +0.000 C 
ATOM      2  C   UNL     1       7.947   7.547  18.061  0.00  0.00    +0.000 C 
ENDROOT
BRANCH   1   5
ATOM      3  C   UNL     1       4.779   5.802  15.573  0.00  0.00    +0.000 C 
ATOM      4  C   UNL     1       6.248   5.468  15.468  0.00  0.00    +0.000 C 
ATOM      5  C   UNL     1       7.153   5.830  16.406  0.00  0.00    +0.000 C 
BRANCH   4   6
ATOM      6  C   UNL     1       6.685   4.708  14.290  0.00  0.00    +0.000 C 
ATOM      7  C   UNL     1       5.872   4.078  13.423  0.00  0.00    +0.000 C 
BRANCH   7   8
ATOM      8  C   UNL     1       6.417   3.246  12.321  0.00  0.00    +0.000 C 
ATOM      9  O   UNL     1       7.369   3.575  11.623  0.00  0.00    +0.000 OA
ATOM     10  N   UNL     1       5.770   2.046  12.184  0.00  0.00    +0.000 N 
ATOM     11  H   UNL     1       5.005   1.713  12.759  0.00  0.00    +0.000 HD
BRANCH  10  12
ATOM     12  O   UNL     1       6.275   1.153  11.215  0.00  0.00    +0.000 OA
ATOM     13  H   UNL     1       5.544   1.119  10.561  0.00  0.00    +0.000 HD
ENDBRANCH  10  12
ENDBRANCH   7   8
ENDBRANCH   4   6
ENDBRANCH   1   5
BRANCH   1  14
ATOM     14  C   UNL     1       6.710   5.517  18.858  0.00  0.00    +0.000 C 
ATOM     15  O   UNL     1       7.630   5.281  19.647  0.00  0.00    +0.000 OA
BRANCH  14  16
ATOM     16  C   UNL     1       5.423   4.779  19.028  0.00  0.00    +0.000 A 
ATOM     17  C   UNL     1       5.244   3.463  18.604  0.00  0.00    +0.000 A 
ATOM     18  C   UNL     1       4.037   2.792  18.868  0.00  0.00    +0.000 A 
ATOM     19  C   UNL     1       2.971   3.401  19.552  0.00  0.00    +0.000 A 
ATOM     20  C   UNL     1       3.161   4.748  19.908  0.00  0.00    +0.000 A 
ATOM     21  C   UNL     1       4.366   5.425  19.668  0.00  0.00    +0.000 A 
BRANCH  19  22
ATOM     22  N   UNL     1       1.763   2.755  19.817  0.00  0.00    +0.000 N 
ATOM     23  C   UNL     1       0.846   2.503  18.698  0.00  0.00    +0.000 C 
ATOM     24  C   UNL     1       1.078   2.952  21.094  0.00  0.00    +0.000 C 
ENDBRANCH  19  22
ENDBRANCH  14  16
ENDBRANCH   1  14
TORSDOF 7
ENDMDL
MODEL 4
REMARK VINA RESULT:      -7.2      3.075      4.581
REMARK  Name = 
REMARK  11 active torsions:
REMARK  status: ('A' for Active; 'I' for Inactive)
REMARK    1  A    between atoms: C_1  and  C_2
REMARK    2  A    between atoms: C_2  and  C_3
REMARK    3  A    between atoms: C_4  and  C_5
REMARK    4  A    between atoms: N_7  and  O_8
REMARK    5  A    between atoms: C_9  and  C_10
REMARK    6  A    between atoms: C_10  and  C_11
REMARK    7  A    between atoms: C_10  and  C_12
REMARK    8  A    between atoms: C_12  and  C_14
REMARK    9  A    between atoms: C_17  and  N_18
REMARK   10  A    between atoms: N_18  and  C_19
REMARK   11  A    between atoms: N_18  and  C_20
REMARK                            x       y       z     vdW  Elec       q    Type
REMARK                         _______ _______ _______ _____ _____    ______ ____
ROOT
ATOM      1  C   UNL     1       3.671   3.117  18.654  0.00  0.00    +0.000 C 
ATOM      2  C   UNL     1       3.444   1.608  18.787  0.00  0.00    +0.000 C 
ENDROOT
BRANCH   1   5
ATOM      3  C   UNL     1       5.891   5.229  18.796  0.00  0.00    +0.000 C 
ATOM      4  C   UNL     1       5.623   4.375  17.579  0.00  0.00    +0.000 C 
ATOM      5  C   UNL     1       4.661   3.424  17.547  0.00  0.00    +0.000 C 
BRANCH   4   6
ATOM      6  C   UNL     1       6.449   4.615  16.390  0.00  0.00    +0.000 C 
ATOM      7  C   UNL     1       6.014   4.588  15.118  0.00  0.00    +0.000 C 
BRANCH   7   8
ATOM      8  C   UNL     1       6.952   4.741  13.979  0.00  0.00    +0.000 C 
ATOM      9  O   UNL     1       6.815   4.175  12.900  0.00  0.00    +0.000 OA
ATOM     10  N   UNL     1       7.976   5.614  14.239  0.00  0.00    +0.000 N 
ATOM     11  H   UNL     1       8.112   6.133  15.099  0.00  0.00    +0.000 HD
BRANCH  10  12
ATOM     12  O   UNL     1       8.871   5.886  13.182  0.00  0.00    +0.000 OA
ATOM     13  H   UNL     1       8.607   6.792  12.913  0.00  0.00    +0.000 HD
ENDBRANCH  10  12
ENDBRANCH   7   8
ENDBRANCH   4   6
ENDBRANCH   1   5
BRANCH   1  14
ATOM     14  C   UNL     1       2.327   3.817  18.387  0.00  0.00    +0.000 C 
ATOM     15  O   UNL     1       1.460   3.323  17.659  0.00  0.00    +0.000 OA
BRANCH  14  16
ATOM     16  C   UNL     1       2.051   5.141  19.021  0.00  0.00    +0.000 A 
ATOM     17  C   UNL     1       1.592   5.271  20.331  0.00  0.00    +0.000 A 
ATOM     18  C   UNL     1       1.431   6.546  20.902  0.00  0.00    +0.000 A 
ATOM     19  C   UNL     1       1.713   7.728  20.195  0.00  0.00    +0.000 A 
ATOM     20  C   UNL     1       2.111   7.561  18.858  0.00  0.00    +0.000 A 
ATOM     21  C   UNL     1       2.294   6.296  18.280  0.00  0.00    +0.000 A 
BRANCH  19  22
ATOM     22  N   UNL     1       1.552   9.002  20.741  0.00  0.00    +0.000 N 
ATOM     23  C   UNL     1       1.421   9.126  22.198  0.00  0.00    +0.000 C 
ATOM     24  C   UNL     1       0.837  10.042  20.003  0.00  0.00    +0.000 C 
ENDBRANCH  19  22
ENDBRANCH  14  16
ENDBRANCH   1  14
TORSDOF 7
ENDMDL
MODEL 5
REMARK VINA RESULT:      -7.1      0.741      1.093
REMARK  Name = 
REMARK  11 active torsions:
REMARK  status: ('A' for Active; 'I' for Inactive)
REMARK    1  A    between atoms: C_1  and  C_2
REMARK    2  A    between atoms: C_2  and  C_3
REMARK    3  A    between atoms: C_4  and  C_5
REMARK    4  A    between atoms: N_7  and  O_8
REMARK    5  A    between atoms: C_9  and  C_10
REMARK    6  A    between atoms: C_10  and  C_11
REMARK    7  A    between atoms: C_10  and  C_12
REMARK    8  A    between atoms: C_12  and  C_14
REMARK    9  A    between atoms: C_17  and  N_18
REMARK   10  A    between atoms: N_18  and  C_19
REMARK   11  A    between atoms: N_18  and  C_20
REMARK                            x       y       z     vdW  Elec       q    Type
REMARK                         _______ _______ _______ _____ _____    ______ ____
ROOT
ATOM      1  C   UNL     1       6.792   6.450  17.718  0.00  0.00    +0.000 C 
ATOM      2  C   UNL     1       7.972   7.414  17.875  0.00  0.00    +0.000 C 
ENDROOT
BRANCH   1   5
ATOM      3  C   UNL     1       4.830   6.542  15.362  0.00  0.00    +0.000 C 
ATOM      4  C   UNL     1       6.043   5.642  15.409  0.00  0.00    +0.000 C 
ATOM      5  C   UNL     1       6.916   5.640  16.442  0.00  0.00    +0.000 C 
BRANCH   4   6
ATOM      6  C   UNL     1       6.253   4.733  14.276  0.00  0.00    +0.000 C 
ATOM      7  C   UNL     1       5.289   4.261  13.466  0.00  0.00    +0.000 C 
BRANCH   7   8
ATOM      8  C   UNL     1       5.590   3.262  12.410  0.00  0.00    +0.000 C 
ATOM      9  O   UNL     1       4.772   2.869  11.587  0.00  0.00    +0.000 OA
ATOM     10  N   UNL     1       6.896   2.846  12.421  0.00  0.00    +0.000 N 
ATOM     11  H   UNL     1       7.618   3.167  13.056  0.00  0.00    +0.000 HD
BRANCH  10  12
ATOM     12  O   UNL     1       7.295   1.958  11.399  0.00  0.00    +0.000 OA
ATOM     13  H   UNL     1       7.656   2.569  10.721  0.00  0.00    +0.000 HD
ENDBRANCH  10  12
ENDBRANCH   7   8
ENDBRANCH   4   6
ENDBRANCH   1   5
BRANCH   1  14
ATOM     14  C   UNL     1       6.723   5.520  18.943  0.00  0.00    +0.000 C 
ATOM     15  O   UNL     1       7.705   5.295  19.656  0.00  0.00    +0.000 OA
BRANCH  14  16
ATOM     16  C   UNL     1       5.429   4.859  19.289  0.00  0.00    +0.000 A 
ATOM     17  C   UNL     1       4.224   5.556  19.379  0.00  0.00    +0.000 A 
ATOM     18  C   UNL     1       3.024   4.866  19.625  0.00  0.00    +0.000 A 
ATOM     19  C   UNL     1       2.978   3.471  19.794  0.00  0.00    +0.000 A 
ATOM     20  C   UNL     1       4.218   2.809  19.761  0.00  0.00    +0.000 A 
ATOM     21  C   UNL     1       5.421   3.481  19.499  0.00  0.00    +0.000 A 
BRANCH  19  22
ATOM     22  N   UNL     1       1.800   2.769  20.046  0.00  0.00    +0.000 N 
ATOM     23  C   UNL     1       0.769   2.737  19.001  0.00  0.00    +0.000 C 
ATOM     24  C   UNL     1       1.254   2.694  21.401  0.00  0.00    +0.000 C 
ENDBRANCH  19  22
ENDBRANCH  14  16
ENDBRANCH   1  14
TORSDOF 7
ENDMDL
MODEL 6
REMARK VINA RESULT:      -7.0      3.064      4.508
REMARK  Name = 
REMARK  11 active torsions:
REMARK  status: ('A' for Active; 'I' for Inactive)
REMARK    1  A    between atoms: C_1  and  C_2
REMARK    2  A    between atoms: C_2  and  C_3
REMARK    3  A    between atoms: C_4  and  C_5
REMARK    4  A    between atoms: N_7  and  O_8
REMARK    5  A    between atoms: C_9  and  C_10
REMARK    6  A    between atoms: C_10  and  C_11
REMARK    7  A    between atoms: C_10  and  C_12
REMARK    8  A    between atoms: C_12  and  C_14
REMARK    9  A    between atoms: C_17  and  N_18
REMARK   10  A    between atoms: N_18  and  C_19
REMARK   11  A    between atoms: N_18  and  C_20
REMARK                            x       y       z     vdW  Elec       q    Type
REMARK                         _______ _______ _______ _____ _____    ______ ____
ROOT
ATOM      1  C   UNL     1       4.182   3.805  19.538  0.00  0.00    +0.000 C 
ATOM      2  C   UNL     1       4.174   2.413  20.176  0.00  0.00    +0.000 C 
ENDROOT
BRANCH   1   5
ATOM      3  C   UNL     1       6.635   5.542  18.924  0.00  0.00    +0.000 C 
ATOM      4  C   UNL     1       6.015   4.585  17.932  0.00  0.00    +0.000 C 
ATOM      5  C   UNL     1       4.954   3.802  18.232  0.00  0.00    +0.000 C 
BRANCH   4   6
ATOM      6  C   UNL     1       6.604   4.531  16.589  0.00  0.00    +0.000 C 
ATOM      7  C   UNL     1       5.934   4.709  15.436  0.00  0.00    +0.000 C 
BRANCH   7   8
ATOM      8  C   UNL     1       6.601   4.530  14.122  0.00  0.00    +0.000 C 
ATOM      9  O   UNL     1       7.466   5.281  13.686  0.00  0.00    +0.000 OA
ATOM     10  N   UNL     1       6.179   3.411  13.453  0.00  0.00    +0.000 N 
ATOM     11  H   UNL     1       5.496   2.741  13.786  0.00  0.00    +0.000 HD
BRANCH  10  12
ATOM     12  O   UNL     1       6.819   3.115  12.231  0.00  0.00    +0.000 OA
ATOM     13  H   UNL     1       7.023   4.008  11.879  0.00  0.00    +0.000 HD
ENDBRANCH  10  12
ENDBRANCH   7   8
ENDBRANCH   4   6
ENDBRANCH   1   5
BRANCH   1  14
ATOM     14  C   UNL     1       2.734   4.272  19.308  0.00  0.00    +0.000 C 
ATOM     15  O   UNL     1       1.803   3.478  19.144  0.00  0.00    +0.000 OA
BRANCH  14  16
ATOM     16  C   UNL     1       2.433   5.735  19.276  0.00  0.00    +0.000 A 
ATOM     17  C   UNL     1       2.546   6.506  18.120  0.00  0.00    +0.000 A 
ATOM     18  C   UNL     1       2.167   7.860  18.132  0.00  0.00    +0.000 A 
ATOM     19  C   UNL     1       1.672   8.493  19.285  0.00  0.00    +0.000 A 
ATOM     20  C   UNL     1       1.632   7.704  20.448  0.00  0.00    +0.000 A 
ATOM     21  C   UNL     1       1.990   6.348  20.447  0.00  0.00    +0.000 A 
BRANCH  19  22
ATOM     22  N   UNL     1       1.298   9.837  19.319  0.00  0.00    +0.000 N 
ATOM     23  C   UNL     1      -0.049  10.175  19.796  0.00  0.00    +0.000 C 
ATOM     24  C   UNL     1       1.815  10.779  18.327  0.00  0.00    +0.000 C 
ENDBRANCH  19  22
ENDBRANCH  14  16
ENDBRANCH   1  14
TORSDOF 7
ENDMDL
MODEL 7
REMARK VINA RESULT:      -6.9      3.435      4.470
REMARK  Name = 
REMARK  11 active torsions:
REMARK  status: ('A' for Active; 'I' for Inactive)
REMARK    1  A    between atoms: C_1  and  C_2
REMARK    2  A    between atoms: C_2  and  C_3
REMARK    3  A    between atoms: C_4  and  C_5
REMARK    4  A    between atoms: N_7  and  O_8
REMARK    5  A    between atoms: C_9  and  C_10
REMARK    6  A    between atoms: C_10  and  C_11
REMARK    7  A    between atoms: C_10  and  C_12
REMARK    8  A    between atoms: C_12  and  C_14
REMARK    9  A    between atoms: C_17  and  N_18
REMARK   10  A    between atoms: N_18  and  C_19
REMARK   11  A    between atoms: N_18  and  C_20
REMARK                            x       y       z     vdW  Elec       q    Type
REMARK                         _______ _______ _______ _____ _____    ______ ____
ROOT
ATOM      1  C   UNL     1       4.564   5.335  17.877  0.00  0.00    +0.000 C 
ATOM      2  C   UNL     1       5.178   4.671  19.113  0.00  0.00    +0.000 C 
ENDROOT
BRANCH   1   5
ATOM      3  C   UNL     1       7.072   5.564  16.125  0.00  0.00    +0.000 C 
ATOM      4  C   UNL     1       5.920   4.633  15.824  0.00  0.00    +0.000 C 
ATOM      5  C   UNL     1       4.838   4.521  16.627  0.00  0.00    +0.000 C 
BRANCH   4   6
ATOM      6  C   UNL     1       6.002   3.835  14.595  0.00  0.00    +0.000 C 
ATOM      7  C   UNL     1       5.374   4.116  13.439  0.00  0.00    +0.000 C 
BRANCH   7   8
ATOM      8  C   UNL     1       5.436   3.188  12.283  0.00  0.00    +0.000 C 
ATOM      9  O   UNL     1       4.531   3.048  11.469  0.00  0.00    +0.000 OA
ATOM     10  N   UNL     1       6.632   2.524  12.191  0.00  0.00    +0.000 N 
ATOM     11  H   UNL     1       7.423   2.632  12.815  0.00  0.00    +0.000 HD
BRANCH  10  12
ATOM     12  O   UNL     1       6.813   1.682  11.073  0.00  0.00    +0.000 OA
ATOM     13  H   UNL     1       6.213   2.084  10.408  0.00  0.00    +0.000 HD
ENDBRANCH  10  12
ENDBRANCH   7   8
ENDBRANCH   4   6
ENDBRANCH   1   5
BRANCH   1  14
ATOM     14  C   UNL     1       3.050   5.509  18.087  0.00  0.00    +0.000 C 
ATOM     15  O   UNL     1       2.249   4.586  17.909  0.00  0.00    +0.000 OA
BRANCH  14  16
ATOM     16  C   UNL     1       2.517   6.837  18.518  0.00  0.00    +0.000 A 
ATOM     17  C   UNL     1       2.384   7.917  17.646  0.00  0.00    +0.000 A 
ATOM     18  C   UNL     1       1.798   9.116  18.088  0.00  0.00    +0.000 A 
ATOM     19  C   UNL     1       1.331   9.286  19.404  0.00  0.00    +0.000 A 
ATOM     20  C   UNL     1       1.540   8.200  20.272  0.00  0.00    +0.000 A 
ATOM     21  C   UNL     1       2.107   6.992  19.841  0.00  0.00    +0.000 A 
BRANCH  19  22
ATOM     22  N   UNL     1       0.754  10.469  19.864  0.00  0.00    +0.000 N 
ATOM     23  C   UNL     1       0.877  11.675  19.035  0.00  0.00    +0.000 C 
ATOM     24  C   UNL     1       0.685  10.755  21.297  0.00  0.00    +0.000 C 
ENDBRANCH  19  22
ENDBRANCH  14  16
ENDBRANCH   1  14
TORSDOF 7
ENDMDL
MODEL 8
REMARK VINA RESULT:      -6.9      3.141      4.289
REMARK  Name = 
REMARK  11 active torsions:
REMARK  status: ('A' for Active; 'I' for Inactive)
REMARK    1  A    between atoms: C_1  and  C_2
REMARK    2  A    between atoms: C_2  and  C_3
REMARK    3  A    between atoms: C_4  and  C_5
REMARK    4  A    between atoms: N_7  and  O_8
REMARK    5  A    between atoms: C_9  and  C_10
REMARK    6  A    between atoms: C_10  and  C_11
REMARK    7  A    between atoms: C_10  and  C_12
REMARK    8  A    between atoms: C_12  and  C_14
REMARK    9  A    between atoms: C_17  and  N_18
REMARK   10  A    between atoms: N_18  and  C_19
REMARK   11  A    between atoms: N_18  and  C_20
REMARK                            x       y       z     vdW  Elec       q    Type
REMARK                         _______ _______ _______ _____ _____    ______ ____
ROOT
ATOM      1  C   UNL     1       4.259   4.393  18.408  0.00  0.00    +0.000 C 
ATOM      2  C   UNL     1       4.381   3.336  19.509  0.00  0.00    +0.000 C 
ENDROOT
BRANCH   1   5
ATOM      3  C   UNL     1       5.334   6.117  16.110  0.00  0.00    +0.000 C 
ATOM      4  C   UNL     1       5.222   4.611  16.048  0.00  0.00    +0.000 C 
ATOM      5  C   UNL     1       4.778   3.865  17.085  0.00  0.00    +0.000 C 
BRANCH   4   6
ATOM      6  C   UNL     1       5.610   3.957  14.793  0.00  0.00    +0.000 C 
ATOM      7  C   UNL     1       6.424   4.480  13.859  0.00  0.00    +0.000 C 
BRANCH   7   8
ATOM      8  C   UNL     1       6.672   3.781  12.573  0.00  0.00    +0.000 C 
ATOM      9  O   UNL     1       7.383   4.226  11.680  0.00  0.00    +0.000 OA
ATOM     10  N   UNL     1       6.054   2.560  12.498  0.00  0.00    +0.000 N 
ATOM     11  H   UNL     1       5.488   2.133  13.222  0.00  0.00    +0.000 HD
BRANCH  10  12
ATOM     12  O   UNL     1       6.302   1.787  11.344  0.00  0.00    +0.000 OA
ATOM     13  H   UNL     1       6.749   2.431  10.752  0.00  0.00    +0.000 HD
ENDBRANCH  10  12
ENDBRANCH   7   8
ENDBRANCH   4   6
ENDBRANCH   1   5
BRANCH   1  14
ATOM     14  C   UNL     1       2.789   4.829  18.277  0.00  0.00    +0.000 C 
ATOM     15  O   UNL     1       1.929   4.104  17.767  0.00  0.00    +0.000 OA
BRANCH  14  16
ATOM     16  C   UNL     1       2.376   6.176  18.776  0.00  0.00    +0.000 A 
ATOM     17  C   UNL     1       2.365   7.311  17.967  0.00  0.00    +0.000 A 
ATOM     18  C   UNL     1       1.886   8.534  18.470  0.00  0.00    +0.000 A 
ATOM     19  C   UNL     1       1.410   8.672  19.785  0.00  0.00    +0.000 A 
ATOM     20  C   UNL     1       1.496   7.524  20.592  0.00  0.00    +0.000 A 
ATOM     21  C   UNL     1       1.954   6.293  20.099  0.00  0.00    +0.000 A 
BRANCH  19  22
ATOM     22  N   UNL     1       0.938   9.878  20.305  0.00  0.00    +0.000 N 
ATOM     23  C   UNL     1       1.127  11.101  19.515  0.00  0.00    +0.000 C 
ATOM     24  C   UNL     1       0.934  10.115  21.748  0.00  0.00    +0.000 C 
ENDBRANCH  19  22
ENDBRANCH  14  16
ENDBRANCH   1  14
TORSDOF 7
ENDMDL
MODEL 9
REMARK VINA RESULT:      -6.9      3.483      4.496
REMARK  Name = 
REMARK  11 active torsions:
REMARK  status: ('A' for Active; 'I' for Inactive)
REMARK    1  A    between atoms: C_1  and  C_2
REMARK    2  A    between atoms: C_2  and  C_3
REMARK    3  A    between atoms: C_4  and  C_5
REMARK    4  A    between atoms: N_7  and  O_8
REMARK    5  A    between atoms: C_9  and  C_10
REMARK    6  A    between atoms: C_10  and  C_11
REMARK    7  A    between atoms: C_10  and  C_12
REMARK    8  A    between atoms: C_12  and  C_14
REMARK    9  A    between atoms: C_17  and  N_18
REMARK   10  A    between atoms: N_18  and  C_19
REMARK   11  A    between atoms: N_18  and  C_20
REMARK                            x       y       z     vdW  Elec       q    Type
REMARK                         _______ _______ _______ _____ _____    ______ ____
ROOT
ATOM      1  C   UNL     1       4.558   5.650  18.222  0.00  0.00    +0.000 C 
ATOM      2  C   UNL     1       4.825   4.677  19.374  0.00  0.00    +0.000 C 
ENDROOT
BRANCH   1   5
ATOM      3  C   UNL     1       7.288   6.439  17.067  0.00  0.00    +0.000 C 
ATOM      4  C   UNL     1       6.329   5.494  16.382  0.00  0.00    +0.000 C 
ATOM      5  C   UNL     1       5.144   5.132  16.923  0.00  0.00    +0.000 C 
BRANCH   4   6
ATOM      6  C   UNL     1       6.721   4.971  15.067  0.00  0.00    +0.000 C 
ATOM      7  C   UNL     1       5.890   4.403  14.174  0.00  0.00    +0.000 C 
BRANCH   7   8
ATOM      8  C   UNL     1       6.403   3.809  12.915  0.00  0.00    +0.000 C 
ATOM      9  O   UNL     1       7.238   4.346  12.196  0.00  0.00    +0.000 OA
ATOM     10  N   UNL     1       5.876   2.572  12.651  0.00  0.00    +0.000 N 
ATOM     11  H   UNL     1       5.213   2.071  13.231  0.00  0.00    +0.000 HD
BRANCH  10  12
ATOM     12  O   UNL     1       6.369   1.893  11.516  0.00  0.00    +0.000 OA
ATOM     13  H   UNL     1       5.828   1.075  11.510  0.00  0.00    +0.000 HD
ENDBRANCH  10  12
ENDBRANCH   7   8
ENDBRANCH   4   6
ENDBRANCH   1   5
BRANCH   1  14
ATOM     14  C   UNL     1       3.042   5.873  18.080  0.00  0.00    +0.000 C 
ATOM     15  O   UNL     1       2.302   5.048  17.536  0.00  0.00    +0.000 OA
BRANCH  14  16
ATOM     16  C   UNL     1       2.433   7.129  18.612  0.00  0.00    +0.000 A 
ATOM     17  C   UNL     1       2.171   8.241  17.812  0.00  0.00    +0.000 A 
ATOM     18  C   UNL     1       1.518   9.363  18.352  0.00  0.00    +0.000 A 
ATOM     19  C   UNL     1       1.112   9.424  19.696  0.00  0.00    +0.000 A 
ATOM     20  C   UNL     1       1.450   8.314  20.488  0.00  0.00    +0.000 A 
ATOM     21  C   UNL     1       2.084   7.179  19.961  0.00  0.00    +0.000 A 
BRANCH  19  22
ATOM     22  N   UNL     1       0.471  10.531  20.252  0.00  0.00    +0.000 N 
ATOM     23  C   UNL     1       0.944  11.871  19.881  0.00  0.00    +0.000 C 
ATOM     24  C   UNL     1      -0.090  10.467  21.601  0.00  0.00    +0.000 C 
ENDBRANCH  19  22
ENDBRANCH  14  16
ENDBRANCH   1  14
TORSDOF 7
ENDMDL
