MODEL 1
REMARK VINA RESULT:      -6.8      0.000      0.000
REMARK  Name = 
REMARK  4 active torsions:
REMARK  status: ('A' for Active; 'I' for Inactive)
REMARK    1  A    between atoms: C_1  and  C_2
REMARK    2  A    between atoms: C_3  and  C_4
REMARK    3  A    between atoms: N_8  and  C_9
REMARK    4  A    between atoms: N_15  and  C_16
REMARK                            x       y       z     vdW  Elec       q    Type
REMARK                         _______ _______ _______ _____ _____    ______ ____
ROOT
ATOM      1  C   UNL     1       1.520   6.315  20.703  0.00  0.00    +0.000 C 
ATOM      2  C   UNL     1       2.406   5.286  20.069  0.00  0.00    +0.000 A 
ATOM      3  C   UNL     1       2.365   3.955  20.248  0.00  0.00    +0.000 A 
ATOM      4  C   UNL     1       3.290   3.383  19.239  0.00  0.00    +0.000 A 
ATOM      5  O   UNL     1       3.512   2.188  19.126  0.00  0.00    +0.000 OA
ATOM      6  N   UNL     1       3.825   4.467  18.534  0.00  0.00    +0.000 N 
ATOM      7  N   UNL     1       3.381   5.668  19.131  0.00  0.00    +0.000 N 
ATOM      8  C   UNL     1       3.190   6.831  18.263  0.00  0.00    +0.000 C 
ENDROOT
BRANCH   6   9
ATOM      9  C   UNL     1       4.946   4.397  17.684  0.00  0.00    +0.000 A 
ATOM     10  C   UNL     1       4.763   4.103  16.328  0.00  0.00    +0.000 A 
ATOM     11  C   UNL     1       5.844   4.139  15.444  0.00  0.00    +0.000 A 
ATOM     12  C   UNL     1       7.123   4.423  15.919  0.00  0.00    +0.000 A 
ATOM     13  C   UNL     1       7.324   4.668  17.275  0.00  0.00    +0.000 A 
ATOM     14  C   UNL     1       6.238   4.666  18.153  0.00  0.00    +0.000 A 
ENDBRANCH   6   9
BRANCH   3  15
ATOM     15  C   UNL     1       1.572   3.128  21.165  0.00  0.00    +0.000 C 
ATOM     16  O   UNL     1       1.949   2.782  22.279  0.00  0.00    +0.000 OA
ENDBRANCH   3  15
TORSDOF 2
ENDMDL
MODEL 2
REMARK VINA RESULT:      -6.8      2.030      4.946
REMARK  Name = 
REMARK  4 active torsions:
REMARK  status: ('A' for Active; 'I' for Inactive)
REMARK    1  A    between atoms: C_1  and  C_2
REMARK    2  A    between atoms: C_3  and  C_4
REMARK    3  A    between atoms: N_8  and  C_9
REMARK    4  A    between atoms: N_15  and  C_16
REMARK                            x       y       z     vdW  Elec       q    Type
REMARK                         _______ _______ _______ _____ _____    ______ ____
ROOT
ATOM      1  C   UNL     1       5.916   7.320  16.837  0.00  0.00    +0.000 C 
ATOM      2  C   UNL     1       5.427   6.114  17.580  0.00  0.00    +0.000 A 
ATOM      3  C   UNL     1       6.171   5.125  18.105  0.00  0.00    +0.000 A 
ATOM      4  C   UNL     1       5.236   4.304  18.914  0.00  0.00    +0.000 A 
ATOM      5  O   UNL     1       5.572   3.303  19.525  0.00  0.00    +0.000 OA
ATOM      6  N   UNL     1       3.974   4.895  18.781  0.00  0.00    +0.000 N 
ATOM      7  N   UNL     1       4.057   5.949  17.844  0.00  0.00    +0.000 N 
ATOM      8  C   UNL     1       3.172   7.100  18.032  0.00  0.00    +0.000 C 
ENDROOT
BRANCH   6   9
ATOM      9  C   UNL     1       2.759   4.285  19.151  0.00  0.00    +0.000 A 
ATOM     10  C   UNL     1       2.060   3.520  18.210  0.00  0.00    +0.000 A 
ATOM     11  C   UNL     1       0.914   2.814  18.584  0.00  0.00    +0.000 A 
ATOM     12  C   UNL     1       0.433   2.907  19.889  0.00  0.00    +0.000 A 
ATOM     13  C   UNL     1       1.094   3.705  20.819  0.00  0.00    +0.000 A 
ATOM     14  C   UNL     1       2.259   4.384  20.456  0.00  0.00    +0.000 A 
ENDBRANCH   6   9
BRANCH   3  15
ATOM     15  C   UNL     1       7.609   4.849  18.020  0.00  0.00    +0.000 C 
ATOM     16  O   UNL     1       8.134   4.212  17.115  0.00  0.00    +0.000 OA
ENDBRANCH   3  15
TORSDOF 2
ENDMDL
MODEL 3
REMARK VINA RESULT:      -6.8      0.239      1.230
REMARK  Name = 
REMARK  4 active torsions:
REMARK  status: ('A' for Active; 'I' for Inactive)
REMARK    1  A    between atoms: C_1  and  C_2
REMARK    2  A    between atoms: C_3  and  C_4
REMARK    3  A    between atoms: N_8  and  C_9
REMARK    4  A    between atoms: N_15  and  C_16
REMARK                            x       y       z     vdW  Elec       q    Type
REMARK                         _______ _______ _______ _____ _____    ______ ____
ROOT
ATOM      1  C   UNL     1       1.508   6.125  20.783  0.00  0.00    +0.000 C 
ATOM      2  C   UNL     1       2.464   5.175  20.127  0.00  0.00    +0.000 A 
ATOM      3  C   UNL     1       2.567   3.851  20.336  0.00  0.00    +0.000 A 
ATOM      4  C   UNL     1       3.498   3.351  19.294  0.00  0.00    +0.000 A 
ATOM      5  O   UNL     1       3.836   2.182  19.196  0.00  0.00    +0.000 OA
ATOM      6  N   UNL     1       3.887   4.465  18.542  0.00  0.00    +0.000 N 
ATOM      7  N   UNL     1       3.350   5.630  19.135  0.00  0.00    +0.000 N 
ATOM      8  C   UNL     1       3.001   6.745  18.254  0.00  0.00    +0.000 C 
ENDROOT
BRANCH   6   9
ATOM      9  C   UNL     1       4.968   4.487  17.640  0.00  0.00    +0.000 A 
ATOM     10  C   UNL     1       6.253   4.780  18.114  0.00  0.00    +0.000 A 
ATOM     11  C   UNL     1       7.356   4.698  17.262  0.00  0.00    +0.000 A 
ATOM     12  C   UNL     1       7.178   4.369  15.920  0.00  0.00    +0.000 A 
ATOM     13  C   UNL     1       5.898   4.124  15.427  0.00  0.00    +0.000 A 
ATOM     14  C   UNL     1       4.798   4.172  16.286  0.00  0.00    +0.000 A 
ENDBRANCH   6   9
BRANCH   3  15
ATOM     15  C   UNL     1       1.907   2.972  21.307  0.00  0.00    +0.000 C 
ATOM     16  O   UNL     1       2.475   2.451  22.260  0.00  0.00    +0.000 OA
ENDBRANCH   3  15
TORSDOF 2
ENDMDL
MODEL 4
REMARK VINA RESULT:      -6.5      2.002      5.079
REMARK  Name = 
REMARK  4 active torsions:
REMARK  status: ('A' for Active; 'I' for Inactive)
REMARK    1  A    between atoms: C_1  and  C_2
REMARK    2  A    between atoms: C_3  and  C_4
REMARK    3  A    between atoms: N_8  and  C_9
REMARK    4  A    between atoms: N_15  and  C_16
REMARK                            x       y       z     vdW  Elec       q    Type
REMARK                         _______ _______ _______ _____ _____    ______ ____
ROOT
ATOM      1  C   UNL     1       5.699   7.260  16.830  0.00  0.00    +0.000 C 
ATOM      2  C   UNL     1       5.299   6.026  17.581  0.00  0.00    +0.000 A 
ATOM      3  C   UNL     1       6.113   5.085  18.090  0.00  0.00    +0.000 A 
ATOM      4  C   UNL     1       5.246   4.209  18.917  0.00  0.00    +0.000 A 
ATOM      5  O   UNL     1       5.656   3.230  19.520  0.00  0.00    +0.000 OA
ATOM      6  N   UNL     1       3.949   4.721  18.810  0.00  0.00    +0.000 N 
ATOM      7  N   UNL     1       3.947   5.778  17.873  0.00  0.00    +0.000 N 
ATOM      8  C   UNL     1       2.999   6.874  18.081  0.00  0.00    +0.000 C 
ENDROOT
BRANCH   6   9
ATOM      9  C   UNL     1       2.781   4.039  19.204  0.00  0.00    +0.000 A 
ATOM     10  C   UNL     1       2.344   4.134  20.531  0.00  0.00    +0.000 A 
ATOM     11  C   UNL     1       1.132   3.560  20.919  0.00  0.00    +0.000 A 
ATOM     12  C   UNL     1       0.371   2.847  19.995  0.00  0.00    +0.000 A 
ATOM     13  C   UNL     1       0.821   2.705  18.685  0.00  0.00    +0.000 A 
ATOM     14  C   UNL     1       2.016   3.307  18.287  0.00  0.00    +0.000 A 
ENDBRANCH   6   9
BRANCH   3  15
ATOM     15  C   UNL     1       7.563   4.897  17.975  0.00  0.00    +0.000 C 
ATOM     16  O   UNL     1       8.103   4.226  17.103  0.00  0.00    +0.000 OA
ENDBRANCH   3  15
TORSDOF 2
ENDMDL
MODEL 5
REMARK VINA RESULT:      -6.3      2.184      5.459
REMARK  Name = 
REMARK  4 active torsions:
REMARK  status: ('A' for Active; 'I' for Inactive)
REMARK    1  A    between atoms: C_1  and  C_2
REMARK    2  A    between atoms: C_3  and  C_4
REMARK    3  A    between atoms: N_8  and  C_9
REMARK    4  A    between atoms: N_15  and  C_16
REMARK                            x       y       z     vdW  Elec       q    Type
REMARK                         _______ _______ _______ _____ _____    ______ ____
ROOT
ATOM      1  C   UNL     1       5.461   4.035  15.119  0.00  0.00    +0.000 C 
ATOM      2  C   UNL     1       5.325   4.236  16.599  0.00  0.00    +0.000 A 
ATOM      3  C   UNL     1       6.145   4.934  17.403  0.00  0.00    +0.000 A 
ATOM      4  C   UNL     1       5.454   5.008  18.715  0.00  0.00    +0.000 A 
ATOM      5  O   UNL     1       5.925   5.561  19.695  0.00  0.00    +0.000 OA
ATOM      6  N   UNL     1       4.249   4.312  18.567  0.00  0.00    +0.000 N 
ATOM      7  N   UNL     1       4.218   3.713  17.288  0.00  0.00    +0.000 N 
ATOM      8  C   UNL     1       2.916   3.562  16.637  0.00  0.00    +0.000 C 
ENDROOT
BRANCH   6   9
ATOM      9  C   UNL     1       3.425   3.899  19.633  0.00  0.00    +0.000 A 
ATOM     10  C   UNL     1       2.289   4.652  19.954  0.00  0.00    +0.000 A 
ATOM     11  C   UNL     1       1.397   4.202  20.930  0.00  0.00    +0.000 A 
ATOM     12  C   UNL     1       1.659   3.023  21.625  0.00  0.00    +0.000 A 
ATOM     13  C   UNL     1       2.812   2.292  21.346  0.00  0.00    +0.000 A 
ATOM     14  C   UNL     1       3.687   2.722  20.346  0.00  0.00    +0.000 A 
ENDBRANCH   6   9
BRANCH   3  15
ATOM     15  C   UNL     1       7.434   5.583  17.140  0.00  0.00    +0.000 C 
ATOM     16  O   UNL     1       7.555   6.685  16.616  0.00  0.00    +0.000 OA
ENDBRANCH   3  15
TORSDOF 2
ENDMDL
MODEL 6
REMARK VINA RESULT:      -6.3      2.153      5.501
REMARK  Name = 
REMARK  4 active torsions:
REMARK  status: ('A' for Active; 'I' for Inactive)
REMARK    1  A    between atoms: C_1  and  C_2
REMARK    2  A    between atoms: C_3  and  C_4
REMARK    3  A    between atoms: N_8  and  C_9
REMARK    4  A    between atoms: N_15  and  C_16
REMARK                            x       y       z     vdW  Elec       q    Type
REMARK                         _______ _______ _______ _____ _____    ______ ____
ROOT
ATOM      1  C   UNL     1       5.574   4.030  15.140  0.00  0.00    +0.000 C 
ATOM      2  C   UNL     1       5.352   4.210  16.612  0.00  0.00    +0.000 A 
ATOM      3  C   UNL     1       6.120   4.899  17.472  0.00  0.00    +0.000 A 
ATOM      4  C   UNL     1       5.355   4.951  18.742  0.00  0.00    +0.000 A 
ATOM      5  O   UNL     1       5.766   5.493  19.756  0.00  0.00    +0.000 OA
ATOM      6  N   UNL     1       4.164   4.253  18.516  0.00  0.00    +0.000 N 
ATOM      7  N   UNL     1       4.209   3.672  17.229  0.00  0.00    +0.000 N 
ATOM      8  C   UNL     1       2.947   3.526  16.501  0.00  0.00    +0.000 C 
ENDROOT
BRANCH   6   9
ATOM      9  C   UNL     1       3.281   3.821  19.525  0.00  0.00    +0.000 A 
ATOM     10  C   UNL     1       3.631   2.723  20.321  0.00  0.00    +0.000 A 
ATOM     11  C   UNL     1       2.827   2.347  21.399  0.00  0.00    +0.000 A 
ATOM     12  C   UNL     1       1.645   3.036  21.661  0.00  0.00    +0.000 A 
ATOM     13  C   UNL     1       1.263   4.099  20.846  0.00  0.00    +0.000 A 
ATOM     14  C   UNL     1       2.083   4.498  19.788  0.00  0.00    +0.000 A 
ENDBRANCH   6   9
BRANCH   3  15
ATOM     15  C   UNL     1       7.419   5.557  17.293  0.00  0.00    +0.000 C 
ATOM     16  O   UNL     1       7.589   6.577  16.635  0.00  0.00    +0.000 OA
ENDBRANCH   3  15
TORSDOF 2
ENDMDL
MODEL 7
REMARK VINA RESULT:      -6.3      2.015      2.253
REMARK  Name = 
REMARK  4 active torsions:
REMARK  status: ('A' for Active; 'I' for Inactive)
REMARK    1  A    between atoms: C_1  and  C_2
REMARK    2  A    between atoms: C_3  and  C_4
REMARK    3  A    between atoms: N_8  and  C_9
REMARK    4  A    between atoms: N_15  and  C_16
REMARK                            x       y       z     vdW  Elec       q    Type
REMARK                         _______ _______ _______ _____ _____    ______ ____
ROOT
ATOM      1  C   UNL     1       0.853   4.572  20.388  0.00  0.00    +0.000 C 
ATOM      2  C   UNL     1       2.099   4.356  19.584  0.00  0.00    +0.000 A 
ATOM      3  C   UNL     1       2.371   3.326  18.765  0.00  0.00    +0.000 A 
ATOM      4  C   UNL     1       3.618   3.696  18.052  0.00  0.00    +0.000 A 
ATOM      5  O   UNL     1       4.167   2.976  17.234  0.00  0.00    +0.000 OA
ATOM      6  N   UNL     1       3.994   4.953  18.539  0.00  0.00    +0.000 N 
ATOM      7  N   UNL     1       3.125   5.317  19.592  0.00  0.00    +0.000 N 
ATOM      8  C   UNL     1       2.836   6.740  19.777  0.00  0.00    +0.000 C 
ENDROOT
BRANCH   6   9
ATOM      9  C   UNL     1       5.256   5.546  18.341  0.00  0.00    +0.000 A 
ATOM     10  C   UNL     1       5.423   6.481  17.312  0.00  0.00    +0.000 A 
ATOM     11  C   UNL     1       6.632   7.164  17.167  0.00  0.00    +0.000 A 
ATOM     12  C   UNL     1       7.698   6.885  18.021  0.00  0.00    +0.000 A 
ATOM     13  C   UNL     1       7.557   5.922  19.017  0.00  0.00    +0.000 A 
ATOM     14  C   UNL     1       6.338   5.262  19.184  0.00  0.00    +0.000 A 
ENDBRANCH   6   9
BRANCH   3  15
ATOM     15  C   UNL     1       1.637   2.083  18.501  0.00  0.00    +0.000 C 
ATOM     16  O   UNL     1       0.416   2.007  18.432  0.00  0.00    +0.000 OA
ENDBRANCH   3  15
TORSDOF 2
ENDMDL
MODEL 8
REMARK VINA RESULT:      -6.3      2.035      2.482
REMARK  Name = 
REMARK  4 active torsions:
REMARK  status: ('A' for Active; 'I' for Inactive)
REMARK    1  A    between atoms: C_1  and  C_2
REMARK    2  A    between atoms: C_3  and  C_4
REMARK    3  A    between atoms: N_8  and  C_9
REMARK    4  A    between atoms: N_15  and  C_16
REMARK                            x       y       z     vdW  Elec       q    Type
REMARK                         _______ _______ _______ _____ _____    ______ ____
ROOT
ATOM      1  C   UNL     1       0.880   4.434  20.487  0.00  0.00    +0.000 C 
ATOM      2  C   UNL     1       2.130   4.293  19.671  0.00  0.00    +0.000 A 
ATOM      3  C   UNL     1       2.453   3.283  18.846  0.00  0.00    +0.000 A 
ATOM      4  C   UNL     1       3.671   3.727  18.123  0.00  0.00    +0.000 A 
ATOM      5  O   UNL     1       4.253   3.043  17.297  0.00  0.00    +0.000 OA
ATOM      6  N   UNL     1       3.977   5.002  18.611  0.00  0.00    +0.000 N 
ATOM      7  N   UNL     1       3.098   5.312  19.672  0.00  0.00    +0.000 N 
ATOM      8  C   UNL     1       2.729   6.715  19.865  0.00  0.00    +0.000 C 
ENDROOT
BRANCH   6   9
ATOM      9  C   UNL     1       5.201   5.668  18.404  0.00  0.00    +0.000 A 
ATOM     10  C   UNL     1       6.302   5.348  19.208  0.00  0.00    +0.000 A 
ATOM     11  C   UNL     1       7.553   5.912  18.949  0.00  0.00    +0.000 A 
ATOM     12  C   UNL     1       7.703   6.834  17.915  0.00  0.00    +0.000 A 
ATOM     13  C   UNL     1       6.603   7.196  17.141  0.00  0.00    +0.000 A 
ATOM     14  C   UNL     1       5.359   6.607  17.376  0.00  0.00    +0.000 A 
ENDBRANCH   6   9
BRANCH   3  15
ATOM     15  C   UNL     1       1.791   2.000  18.584  0.00  0.00    +0.000 C 
ATOM     16  O   UNL     1       0.598   1.882  18.328  0.00  0.00    +0.000 OA
ENDBRANCH   3  15
TORSDOF 2
ENDMDL
MODEL 9
REMARK VINA RESULT:      -6.2      1.801      2.545
REMARK  Name = 
REMARK  4 active torsions:
REMARK  status: ('A' for Active; 'I' for Inactive)
REMARK    1  A    between atoms: C_1  and  C_2
REMARK    2  A    between atoms: C_3  and  C_4
REMARK    3  A    between atoms: N_8  and  C_9
REMARK    4  A    between atoms: N_15  and  C_16
REMARK                            x       y       z     vdW  Elec       q    Type
REMARK                         _______ _______ _______ _____ _____    ______ ____
ROOT
ATOM      1  C   UNL     1       1.832   3.129  21.391  0.00  0.00    +0.000 C 
ATOM      2  C   UNL     1       2.500   3.980  20.354  0.00  0.00    +0.000 A 
ATOM      3  C   UNL     1       2.271   5.279  20.097  0.00  0.00    +0.000 A 
ATOM      4  C   UNL     1       3.332   5.695  19.147  0.00  0.00    +0.000 A 
ATOM      5  O   UNL     1       3.420   6.821  18.684  0.00  0.00    +0.000 OA
ATOM      6  N   UNL     1       4.116   4.561  18.908  0.00  0.00    +0.000 N 
ATOM      7  N   UNL     1       3.527   3.451  19.554  0.00  0.00    +0.000 N 
ATOM      8  C   UNL     1       4.417   2.400  20.052  0.00  0.00    +0.000 C 
ENDROOT
BRANCH   6   9
ATOM      9  C   UNL     1       5.053   4.438  17.863  0.00  0.00    +0.000 A 
ATOM     10  C   UNL     1       4.605   4.130  16.573  0.00  0.00    +0.000 A 
ATOM     11  C   UNL     1       5.499   4.114  15.500  0.00  0.00    +0.000 A 
ATOM     12  C   UNL     1       6.854   4.357  15.718  0.00  0.00    +0.000 A 
ATOM     13  C   UNL     1       7.317   4.616  17.006  0.00  0.00    +0.000 A 
ATOM     14  C   UNL     1       6.418   4.666  18.074  0.00  0.00    +0.000 A 
ENDBRANCH   6   9
BRANCH   3  15
ATOM     15  C   UNL     1       1.263   6.205  20.626  0.00  0.00    +0.000 C 
ATOM     16  O   UNL     1       1.517   7.324  21.057  0.00  0.00    +0.000 OA
ENDBRANCH   3  15
TORSDOF 2
ENDMDL
