MODEL 1
REMARK VINA RESULT:      -7.4      0.000      0.000
REMARK  Name = 
REMARK  11 active torsions:
REMARK  status: ('A' for Active; 'I' for Inactive)
REMARK    1  A    between atoms: C_2  and  C_3
REMARK    2  A    between atoms: C_3  and  O_4
REMARK    3  A    between atoms: O_4  and  C_5
REMARK    4  A    between atoms: C_6  and  C_7
REMARK    5  A    between atoms: C_7  and  N_8
REMARK    6  A    between atoms: N_8  and  C_9
REMARK    7  A    between atoms: C_13  and  C_14
REMARK    8  A    between atoms: C_14  and  O_16
REMARK    9  A    between atoms: C_21  and  O_22
REMARK   10  A    between atoms: O_22  and  C_23
REMARK   11  A    between atoms: C_23  and  C_24
REMARK                            x       y       z     vdW  Elec       q    Type
REMARK                         _______ _______ _______ _____ _____    ______ ____
ROOT
ATOM      1  C   UNL     1       4.313   4.579  19.116  0.00  0.00    +0.000 A 
ATOM      2  C   UNL     1       4.763   5.177  17.918  0.00  0.00    +0.000 A 
ATOM      3  C   UNL     1       4.201   6.407  17.510  0.00  0.00    +0.000 A 
ATOM      4  C   UNL     1       3.179   7.010  18.227  0.00  0.00    +0.000 A 
ATOM      5  C   UNL     1       2.681   6.376  19.356  0.00  0.00    +0.000 A 
ATOM      6  C   UNL     1       3.214   5.157  19.796  0.00  0.00    +0.000 A 
ENDROOT
BRANCH   1   7
ATOM      7  O   UNL     1       4.855   3.451  19.670  0.00  0.00    +0.000 OA
BRANCH   7   8
ATOM      8  C   UNL     1       4.215   2.177  19.514  0.00  0.00    +0.000 C 
BRANCH   8  10
ATOM      9  C   UNL     1       2.318   2.074  17.880  0.00  0.00    +0.000 C 
ATOM     10  C   UNL     1       3.621   1.916  18.155  0.00  0.00    +0.000 C 
ENDBRANCH   8  10
ENDBRANCH   7   8
ENDBRANCH   1   7
BRANCH   2  11
ATOM     11  C   UNL     1       5.834   4.620  17.007  0.00  0.00    +0.000 C 
BRANCH  11  12
ATOM     12  N   UNL     1       5.818   5.350  15.752  0.00  0.00    +0.000 N 
ATOM     13  H   UNL     1       5.055   6.023  15.681  0.00  0.00    +0.000 HD
BRANCH  12  14
ATOM     14  C   UNL     1       6.222   4.889  14.517  0.00  0.00    +0.000 A 
ATOM     15  C   UNL     1       7.426   5.393  13.996  0.00  0.00    +0.000 A 
ATOM     16  C   UNL     1       7.903   5.006  12.745  0.00  0.00    +0.000 A 
ATOM     17  C   UNL     1       7.181   4.089  11.992  0.00  0.00    +0.000 A 
ATOM     18  C   UNL     1       6.013   3.530  12.516  0.00  0.00    +0.000 A 
ATOM     19  C   UNL     1       5.548   3.914  13.783  0.00  0.00    +0.000 A 
BRANCH  18  20
ATOM     20  C   UNL     1       5.244   2.596  11.650  0.00  0.00    +0.000 C 
ATOM     21  O   UNL     1       5.658   1.500  11.325  0.00  0.00    +0.000 OA
BRANCH  20  22
ATOM     22  O   UNL     1       4.033   3.060  11.272  0.00  0.00    +0.000 OA
ATOM     23  H   UNL     1       3.867   3.999  11.468  0.00  0.00    +0.000 HD
ENDBRANCH  20  22
ENDBRANCH  18  20
ENDBRANCH  12  14
ENDBRANCH  11  12
ENDBRANCH   2  11
BRANCH   6  24
ATOM     24  O   UNL     1       2.574   4.698  20.920  0.00  0.00    +0.000 OA
BRANCH  24  25
ATOM     25  C   UNL     1       1.305   4.071  20.770  0.00  0.00    +0.000 C 
ATOM     26  C   UNL     1       1.337   2.740  21.509  0.00  0.00    +0.000 C 
ENDBRANCH  24  25
ENDBRANCH   6  24
TORSDOF 10
ENDMDL
MODEL 2
REMARK VINA RESULT:      -7.0      3.646      8.328
REMARK  Name = 
REMARK  11 active torsions:
REMARK  status: ('A' for Active; 'I' for Inactive)
REMARK    1  A    between atoms: C_2  and  C_3
REMARK    2  A    between atoms: C_3  and  O_4
REMARK    3  A    between atoms: O_4  and  C_5
REMARK    4  A    between atoms: C_6  and  C_7
REMARK    5  A    between atoms: C_7  and  N_8
REMARK    6  A    between atoms: N_8  and  C_9
REMARK    7  A    between atoms: C_13  and  C_14
REMARK    8  A    between atoms: C_14  and  O_16
REMARK    9  A    between atoms: C_21  and  O_22
REMARK   10  A    between atoms: O_22  and  C_23
REMARK   11  A    between atoms: C_23  and  C_24
REMARK                            x       y       z     vdW  Elec       q    Type
REMARK                         _______ _______ _______ _____ _____    ______ ____
ROOT
ATOM      1  C   UNL     1       3.171   5.593  18.394  0.00  0.00    +0.000 A 
ATOM      2  C   UNL     1       3.446   6.844  17.800  0.00  0.00    +0.000 A 
ATOM      3  C   UNL     1       4.570   6.973  16.956  0.00  0.00    +0.000 A 
ATOM      4  C   UNL     1       5.442   5.916  16.744  0.00  0.00    +0.000 A 
ATOM      5  C   UNL     1       5.215   4.713  17.397  0.00  0.00    +0.000 A 
ATOM      6  C   UNL     1       4.109   4.544  18.239  0.00  0.00    +0.000 A 
ENDROOT
BRANCH   1   7
ATOM      7  O   UNL     1       2.055   5.316  19.138  0.00  0.00    +0.000 OA
BRANCH   7   8
ATOM      8  C   UNL     1       2.173   4.829  20.483  0.00  0.00    +0.000 C 
BRANCH   8  10
ATOM      9  C   UNL     1       1.633   2.687  21.664  0.00  0.00    +0.000 C 
ATOM     10  C   UNL     1       1.271   3.677  20.833  0.00  0.00    +0.000 C 
ENDBRANCH   8  10
ENDBRANCH   7   8
ENDBRANCH   1   7
BRANCH   2  11
ATOM     11  C   UNL     1       2.617   8.098  17.972  0.00  0.00    +0.000 C 
BRANCH  11  12
ATOM     12  N   UNL     1       2.071   8.127  19.317  0.00  0.00    +0.000 N 
ATOM     13  H   UNL     1       1.974   7.204  19.737  0.00  0.00    +0.000 HD
BRANCH  12  14
ATOM     14  C   UNL     1       1.162   9.031  19.825  0.00  0.00    +0.000 A 
ATOM     15  C   UNL     1       0.557   9.923  18.923  0.00  0.00    +0.000 A 
ATOM     16  C   UNL     1      -0.354  10.888  19.346  0.00  0.00    +0.000 A 
ATOM     17  C   UNL     1      -0.690  10.969  20.692  0.00  0.00    +0.000 A 
ATOM     18  C   UNL     1      -0.145  10.054  21.596  0.00  0.00    +0.000 A 
ATOM     19  C   UNL     1       0.760   9.076  21.159  0.00  0.00    +0.000 A 
BRANCH  18  20
ATOM     20  C   UNL     1      -0.489  10.216  23.035  0.00  0.00    +0.000 C 
ATOM     21  O   UNL     1       0.164   9.721  23.933  0.00  0.00    +0.000 OA
BRANCH  20  22
ATOM     22  O   UNL     1      -1.579  10.982  23.262  0.00  0.00    +0.000 OA
ATOM     23  H   UNL     1      -1.494  11.622  23.990  0.00  0.00    +0.000 HD
ENDBRANCH  20  22
ENDBRANCH  18  20
ENDBRANCH  12  14
ENDBRANCH  11  12
ENDBRANCH   2  11
BRANCH   6  24
ATOM     24  O   UNL     1       4.077   3.288  18.792  0.00  0.00    +0.000 OA
BRANCH  24  25
ATOM     25  C   UNL     1       3.792   2.181  17.944  0.00  0.00    +0.000 C 
ATOM     26  C   UNL     1       2.288   2.131  17.710  0.00  0.00    +0.000 C 
ENDBRANCH  24  25
ENDBRANCH   6  24
TORSDOF 10
ENDMDL
MODEL 3
REMARK VINA RESULT:      -7.0      3.511      8.545
REMARK  Name = 
REMARK  11 active torsions:
REMARK  status: ('A' for Active; 'I' for Inactive)
REMARK    1  A    between atoms: C_2  and  C_3
REMARK    2  A    between atoms: C_3  and  O_4
REMARK    3  A    between atoms: O_4  and  C_5
REMARK    4  A    between atoms: C_6  and  C_7
REMARK    5  A    between atoms: C_7  and  N_8
REMARK    6  A    between atoms: N_8  and  C_9
REMARK    7  A    between atoms: C_13  and  C_14
REMARK    8  A    between atoms: C_14  and  O_16
REMARK    9  A    between atoms: C_21  and  O_22
REMARK   10  A    between atoms: O_22  and  C_23
REMARK   11  A    between atoms: C_23  and  C_24
REMARK                            x       y       z     vdW  Elec       q    Type
REMARK                         _______ _______ _______ _____ _____    ______ ____
ROOT
ATOM      1  C   UNL     1       4.134   4.977  18.397  0.00  0.00    +0.000 A 
ATOM      2  C   UNL     1       2.859   4.942  19.004  0.00  0.00    +0.000 A 
ATOM      3  C   UNL     1       1.941   3.940  18.618  0.00  0.00    +0.000 A 
ATOM      4  C   UNL     1       2.242   3.028  17.618  0.00  0.00    +0.000 A 
ATOM      5  C   UNL     1       3.462   3.120  16.965  0.00  0.00    +0.000 A 
ATOM      6  C   UNL     1       4.401   4.097  17.321  0.00  0.00    +0.000 A 
ENDROOT
BRANCH   1   7
ATOM      7  O   UNL     1       5.144   5.826  18.763  0.00  0.00    +0.000 OA
BRANCH   7   8
ATOM      8  C   UNL     1       6.378   5.314  19.284  0.00  0.00    +0.000 C 
BRANCH   8  10
ATOM      9  C   UNL     1       7.611   6.949  17.840  0.00  0.00    +0.000 C 
ATOM     10  C   UNL     1       7.622   6.007  18.795  0.00  0.00    +0.000 C 
ENDBRANCH   8  10
ENDBRANCH   7   8
ENDBRANCH   1   7
BRANCH   2  11
ATOM     11  C   UNL     1       2.369   5.893  20.073  0.00  0.00    +0.000 C 
BRANCH  11  12
ATOM     12  N   UNL     1       2.292   7.233  19.519  0.00  0.00    +0.000 N 
ATOM     13  H   UNL     1       3.149   7.532  19.055  0.00  0.00    +0.000 HD
BRANCH  12  14
ATOM     14  C   UNL     1       1.569   8.297  20.016  0.00  0.00    +0.000 A 
ATOM     15  C   UNL     1       1.252   9.338  19.127  0.00  0.00    +0.000 A 
ATOM     16  C   UNL     1       0.547  10.467  19.543  0.00  0.00    +0.000 A 
ATOM     17  C   UNL     1       0.134  10.567  20.865  0.00  0.00    +0.000 A 
ATOM     18  C   UNL     1       0.388   9.517  21.751  0.00  0.00    +0.000 A 
ATOM     19  C   UNL     1       1.085   8.378  21.320  0.00  0.00    +0.000 A 
BRANCH  18  20
ATOM     20  C   UNL     1      -0.023   9.694  23.170  0.00  0.00    +0.000 C 
ATOM     21  O   UNL     1       0.750   9.583  24.103  0.00  0.00    +0.000 OA
BRANCH  20  22
ATOM     22  O   UNL     1      -1.325  10.013  23.334  0.00  0.00    +0.000 OA
ATOM     23  H   UNL     1      -1.940   9.259  23.356  0.00  0.00    +0.000 HD
ENDBRANCH  20  22
ENDBRANCH  18  20
ENDBRANCH  12  14
ENDBRANCH  11  12
ENDBRANCH   2  11
BRANCH   6  24
ATOM     24  O   UNL     1       5.533   4.021  16.548  0.00  0.00    +0.000 OA
BRANCH  24  25
ATOM     25  C   UNL     1       5.612   4.831  15.380  0.00  0.00    +0.000 C 
ATOM     26  C   UNL     1       6.022   3.947  14.210  0.00  0.00    +0.000 C 
ENDBRANCH  24  25
ENDBRANCH   6  24
TORSDOF 10
ENDMDL
MODEL 4
REMARK VINA RESULT:      -6.9      1.271      2.882
REMARK  Name = 
REMARK  11 active torsions:
REMARK  status: ('A' for Active; 'I' for Inactive)
REMARK    1  A    between atoms: C_2  and  C_3
REMARK    2  A    between atoms: C_3  and  O_4
REMARK    3  A    between atoms: O_4  and  C_5
REMARK    4  A    between atoms: C_6  and  C_7
REMARK    5  A    between atoms: C_7  and  N_8
REMARK    6  A    between atoms: N_8  and  C_9
REMARK    7  A    between atoms: C_13  and  C_14
REMARK    8  A    between atoms: C_14  and  O_16
REMARK    9  A    between atoms: C_21  and  O_22
REMARK   10  A    between atoms: O_22  and  C_23
REMARK   11  A    between atoms: C_23  and  C_24
REMARK                            x       y       z     vdW  Elec       q    Type
REMARK                         _______ _______ _______ _____ _____    ______ ____
ROOT
ATOM      1  C   UNL     1       3.171   5.244  18.545  0.00  0.00    +0.000 A 
ATOM      2  C   UNL     1       3.825   4.846  17.358  0.00  0.00    +0.000 A 
ATOM      3  C   UNL     1       3.437   3.643  16.729  0.00  0.00    +0.000 A 
ATOM      4  C   UNL     1       2.470   2.816  17.281  0.00  0.00    +0.000 A 
ATOM      5  C   UNL     1       1.891   3.169  18.491  0.00  0.00    +0.000 A 
ATOM      6  C   UNL     1       2.246   4.356  19.144  0.00  0.00    +0.000 A 
ENDROOT
BRANCH   1   7
ATOM      7  O   UNL     1       3.381   6.437  19.183  0.00  0.00    +0.000 OA
BRANCH   7   8
ATOM      8  C   UNL     1       2.339   7.422  19.256  0.00  0.00    +0.000 C 
BRANCH   8  10
ATOM      9  C   UNL     1       2.015   9.442  17.810  0.00  0.00    +0.000 C 
ATOM     10  C   UNL     1       2.009   8.109  17.958  0.00  0.00    +0.000 C 
ENDBRANCH   8  10
ENDBRANCH   7   8
ENDBRANCH   1   7
BRANCH   2  11
ATOM     11  C   UNL     1       4.926   5.615  16.662  0.00  0.00    +0.000 C 
BRANCH  11  12
ATOM     12  N   UNL     1       5.904   4.678  16.140  0.00  0.00    +0.000 N 
ATOM     13  H   UNL     1       6.685   4.509  16.773  0.00  0.00    +0.000 HD
BRANCH  12  14
ATOM     14  C   UNL     1       6.254   4.491  14.820  0.00  0.00    +0.000 A 
ATOM     15  C   UNL     1       7.328   5.246  14.318  0.00  0.00    +0.000 A 
ATOM     16  C   UNL     1       7.738   5.144  12.990  0.00  0.00    +0.000 A 
ATOM     17  C   UNL     1       7.082   4.267  12.136  0.00  0.00    +0.000 A 
ATOM     18  C   UNL     1       6.050   3.464  12.629  0.00  0.00    +0.000 A 
ATOM     19  C   UNL     1       5.653   3.562  13.971  0.00  0.00    +0.000 A 
BRANCH  18  20
ATOM     20  C   UNL     1       5.339   2.582  11.664  0.00  0.00    +0.000 C 
ATOM     21  O   UNL     1       4.288   2.890  11.134  0.00  0.00    +0.000 OA
BRANCH  20  22
ATOM     22  O   UNL     1       5.972   1.417  11.408  0.00  0.00    +0.000 OA
ATOM     23  H   UNL     1       5.890   1.090  10.494  0.00  0.00    +0.000 HD
ENDBRANCH  20  22
ENDBRANCH  18  20
ENDBRANCH  12  14
ENDBRANCH  11  12
ENDBRANCH   2  11
BRANCH   6  24
ATOM     24  O   UNL     1       1.567   4.509  20.327  0.00  0.00    +0.000 OA
BRANCH  24  25
ATOM     25  C   UNL     1       1.135   3.341  21.018  0.00  0.00    +0.000 C 
ATOM     26  C   UNL     1       2.309   2.797  21.821  0.00  0.00    +0.000 C 
ENDBRANCH  24  25
ENDBRANCH   6  24
TORSDOF 10
ENDMDL
MODEL 5
REMARK VINA RESULT:      -6.9      2.732      7.564
REMARK  Name = 
REMARK  11 active torsions:
REMARK  status: ('A' for Active; 'I' for Inactive)
REMARK    1  A    between atoms: C_2  and  C_3
REMARK    2  A    between atoms: C_3  and  O_4
REMARK    3  A    between atoms: O_4  and  C_5
REMARK    4  A    between atoms: C_6  and  C_7
REMARK    5  A    between atoms: C_7  and  N_8
REMARK    6  A    between atoms: N_8  and  C_9
REMARK    7  A    between atoms: C_13  and  C_14
REMARK    8  A    between atoms: C_14  and  O_16
REMARK    9  A    between atoms: C_21  and  O_22
REMARK   10  A    between atoms: O_22  and  C_23
REMARK   11  A    between atoms: C_23  and  C_24
REMARK                            x       y       z     vdW  Elec       q    Type
REMARK                         _______ _______ _______ _____ _____    ______ ____
ROOT
ATOM      1  C   UNL     1       4.646   4.799  16.995  0.00  0.00    +0.000 A 
ATOM      2  C   UNL     1       5.119   5.461  18.149  0.00  0.00    +0.000 A 
ATOM      3  C   UNL     1       6.316   6.207  18.073  0.00  0.00    +0.000 A 
ATOM      4  C   UNL     1       7.065   6.256  16.907  0.00  0.00    +0.000 A 
ATOM      5  C   UNL     1       6.641   5.534  15.801  0.00  0.00    +0.000 A 
ATOM      6  C   UNL     1       5.458   4.786  15.836  0.00  0.00    +0.000 A 
ENDROOT
BRANCH   1   7
ATOM      7  O   UNL     1       3.448   4.141  16.915  0.00  0.00    +0.000 OA
BRANCH   7   8
ATOM      8  C   UNL     1       3.304   2.815  17.444  0.00  0.00    +0.000 C 
BRANCH   8  10
ATOM      9  C   UNL     1       1.809   2.231  19.368  0.00  0.00    +0.000 C 
ATOM     10  C   UNL     1       1.967   2.510  18.065  0.00  0.00    +0.000 C 
ENDBRANCH   8  10
ENDBRANCH   7   8
ENDBRANCH   1   7
BRANCH   2  11
ATOM     11  C   UNL     1       4.439   5.464  19.500  0.00  0.00    +0.000 C 
BRANCH  11  12
ATOM     12  N   UNL     1       3.023   5.726  19.320  0.00  0.00    +0.000 N 
ATOM     13  H   UNL     1       2.559   5.057  18.708  0.00  0.00    +0.000 HD
BRANCH  12  14
ATOM     14  C   UNL     1       2.399   6.956  19.314  0.00  0.00    +0.000 A 
ATOM     15  C   UNL     1       2.357   7.659  18.098  0.00  0.00    +0.000 A 
ATOM     16  C   UNL     1       1.772   8.920  18.000  0.00  0.00    +0.000 A 
ATOM     17  C   UNL     1       1.202   9.499  19.126  0.00  0.00    +0.000 A 
ATOM     18  C   UNL     1       1.181   8.793  20.332  0.00  0.00    +0.000 A 
ATOM     19  C   UNL     1       1.759   7.518  20.418  0.00  0.00    +0.000 A 
BRANCH  18  20
ATOM     20  C   UNL     1       0.611   9.477  21.524  0.00  0.00    +0.000 C 
ATOM     21  O   UNL     1      -0.234   8.972  22.238  0.00  0.00    +0.000 OA
BRANCH  20  22
ATOM     22  O   UNL     1       1.130  10.702  21.761  0.00  0.00    +0.000 OA
ATOM     23  H   UNL     1       2.016  10.708  22.164  0.00  0.00    +0.000 HD
ENDBRANCH  20  22
ENDBRANCH  18  20
ENDBRANCH  12  14
ENDBRANCH  11  12
ENDBRANCH   2  11
BRANCH   6  24
ATOM     24  O   UNL     1       5.228   4.142  14.645  0.00  0.00    +0.000 OA
BRANCH  24  25
ATOM     25  C   UNL     1       6.340   3.847  13.807  0.00  0.00    +0.000 C 
ATOM     26  C   UNL     1       5.813   3.401  12.450  0.00  0.00    +0.000 C 
ENDBRANCH  24  25
ENDBRANCH   6  24
TORSDOF 10
ENDMDL
MODEL 6
REMARK VINA RESULT:      -6.9      3.845      8.784
REMARK  Name = 
REMARK  11 active torsions:
REMARK  status: ('A' for Active; 'I' for Inactive)
REMARK    1  A    between atoms: C_2  and  C_3
REMARK    2  A    between atoms: C_3  and  O_4
REMARK    3  A    between atoms: O_4  and  C_5
REMARK    4  A    between atoms: C_6  and  C_7
REMARK    5  A    between atoms: C_7  and  N_8
REMARK    6  A    between atoms: N_8  and  C_9
REMARK    7  A    between atoms: C_13  and  C_14
REMARK    8  A    between atoms: C_14  and  O_16
REMARK    9  A    between atoms: C_21  and  O_22
REMARK   10  A    between atoms: O_22  and  C_23
REMARK   11  A    between atoms: C_23  and  C_24
REMARK                            x       y       z     vdW  Elec       q    Type
REMARK                         _______ _______ _______ _____ _____    ______ ____
ROOT
ATOM      1  C   UNL     1       4.361   5.988  17.089  0.00  0.00    +0.000 A 
ATOM      2  C   UNL     1       3.187   6.394  17.761  0.00  0.00    +0.000 A 
ATOM      3  C   UNL     1       2.304   5.411  18.259  0.00  0.00    +0.000 A 
ATOM      4  C   UNL     1       2.534   4.059  18.051  0.00  0.00    +0.000 A 
ATOM      5  C   UNL     1       3.644   3.668  17.317  0.00  0.00    +0.000 A 
ATOM      6  C   UNL     1       4.545   4.612  16.810  0.00  0.00    +0.000 A 
ENDROOT
BRANCH   1   7
ATOM      7  O   UNL     1       5.344   6.840  16.662  0.00  0.00    +0.000 OA
BRANCH   7   8
ATOM      8  C   UNL     1       6.348   7.313  17.571  0.00  0.00    +0.000 C 
BRANCH   8  10
ATOM      9  C   UNL     1       7.691   5.654  18.883  0.00  0.00    +0.000 C 
ATOM     10  C   UNL     1       7.520   6.390  17.775  0.00  0.00    +0.000 C 
ENDBRANCH   8  10
ENDBRANCH   7   8
ENDBRANCH   1   7
BRANCH   2  11
ATOM     11  C   UNL     1       2.776   7.826  18.024  0.00  0.00    +0.000 C 
BRANCH  11  12
ATOM     12  N   UNL     1       2.166   7.912  19.339  0.00  0.00    +0.000 N 
ATOM     13  H   UNL     1       2.030   7.006  19.786  0.00  0.00    +0.000 HD
BRANCH  12  14
ATOM     14  C   UNL     1       1.250   8.848  19.770  0.00  0.00    +0.000 A 
ATOM     15  C   UNL     1       0.665   9.680  18.801  0.00  0.00    +0.000 A 
ATOM     16  C   UNL     1      -0.252  10.673  19.143  0.00  0.00    +0.000 A 
ATOM     17  C   UNL     1      -0.612  10.841  20.474  0.00  0.00    +0.000 A 
ATOM     18  C   UNL     1      -0.087   9.986  21.446  0.00  0.00    +0.000 A 
ATOM     19  C   UNL     1       0.823   8.980  21.091  0.00  0.00    +0.000 A 
BRANCH  18  20
ATOM     20  C   UNL     1      -0.457  10.242  22.865  0.00  0.00    +0.000 C 
ATOM     21  O   UNL     1      -1.404  10.934  23.189  0.00  0.00    +0.000 OA
BRANCH  20  22
ATOM     22  O   UNL     1       0.335   9.620  23.765  0.00  0.00    +0.000 OA
ATOM     23  H   UNL     1       0.833   8.856  23.424  0.00  0.00    +0.000 HD
ENDBRANCH  20  22
ENDBRANCH  18  20
ENDBRANCH  12  14
ENDBRANCH  11  12
ENDBRANCH   2  11
BRANCH   6  24
ATOM     24  O   UNL     1       5.564   4.018  16.107  0.00  0.00    +0.000 OA
BRANCH  24  25
ATOM     25  C   UNL     1       5.579   4.155  14.690  0.00  0.00    +0.000 C 
ATOM     26  C   UNL     1       6.879   4.836  14.288  0.00  0.00    +0.000 C 
ENDBRANCH  24  25
ENDBRANCH   6  24
TORSDOF 10
ENDMDL
MODEL 7
REMARK VINA RESULT:      -6.9      3.299      5.188
REMARK  Name = 
REMARK  11 active torsions:
REMARK  status: ('A' for Active; 'I' for Inactive)
REMARK    1  A    between atoms: C_2  and  C_3
REMARK    2  A    between atoms: C_3  and  O_4
REMARK    3  A    between atoms: O_4  and  C_5
REMARK    4  A    between atoms: C_6  and  C_7
REMARK    5  A    between atoms: C_7  and  N_8
REMARK    6  A    between atoms: N_8  and  C_9
REMARK    7  A    between atoms: C_13  and  C_14
REMARK    8  A    between atoms: C_14  and  O_16
REMARK    9  A    between atoms: C_21  and  O_22
REMARK   10  A    between atoms: O_22  and  C_23
REMARK   11  A    between atoms: C_23  and  C_24
REMARK                            x       y       z     vdW  Elec       q    Type
REMARK                         _______ _______ _______ _____ _____    ______ ____
ROOT
ATOM      1  C   UNL     1       2.321   4.842  19.176  0.00  0.00    +0.000 A 
ATOM      2  C   UNL     1       2.570   3.485  18.873  0.00  0.00    +0.000 A 
ATOM      3  C   UNL     1       2.512   2.527  19.909  0.00  0.00    +0.000 A 
ATOM      4  C   UNL     1       2.274   2.897  21.224  0.00  0.00    +0.000 A 
ATOM      5  C   UNL     1       2.114   4.241  21.530  0.00  0.00    +0.000 A 
ATOM      6  C   UNL     1       2.162   5.220  20.530  0.00  0.00    +0.000 A 
ENDROOT
BRANCH   1   7
ATOM      7  O   UNL     1       2.240   5.842  18.244  0.00  0.00    +0.000 OA
BRANCH   7   8
ATOM      8  C   UNL     1       3.242   6.866  18.178  0.00  0.00    +0.000 C 
BRANCH   8  10
ATOM      9  C   UNL     1       1.790   8.895  17.953  0.00  0.00    +0.000 C 
ATOM     10  C   UNL     1       2.814   8.147  17.515  0.00  0.00    +0.000 C 
ENDBRANCH   8  10
ENDBRANCH   7   8
ENDBRANCH   1   7
BRANCH   2  11
ATOM     11  C   UNL     1       2.887   2.936  17.500  0.00  0.00    +0.000 C 
BRANCH  11  12
ATOM     12  N   UNL     1       4.328   2.900  17.323  0.00  0.00    +0.000 N 
ATOM     13  H   UNL     1       4.778   2.121  17.803  0.00  0.00    +0.000 HD
BRANCH  12  14
ATOM     14  C   UNL     1       5.174   3.978  17.173  0.00  0.00    +0.000 A 
ATOM     15  C   UNL     1       5.215   4.602  15.914  0.00  0.00    +0.000 A 
ATOM     16  C   UNL     1       6.058   5.682  15.658  0.00  0.00    +0.000 A 
ATOM     17  C   UNL     1       6.872   6.169  16.672  0.00  0.00    +0.000 A 
ATOM     18  C   UNL     1       6.804   5.602  17.947  0.00  0.00    +0.000 A 
ATOM     19  C   UNL     1       5.942   4.524  18.200  0.00  0.00    +0.000 A 
BRANCH  18  20
ATOM     20  C   UNL     1       7.737   6.119  18.985  0.00  0.00    +0.000 C 
ATOM     21  O   UNL     1       8.439   7.097  18.817  0.00  0.00    +0.000 OA
BRANCH  20  22
ATOM     22  O   UNL     1       7.720   5.422  20.142  0.00  0.00    +0.000 OA
ATOM     23  H   UNL     1       7.491   5.938  20.936  0.00  0.00    +0.000 HD
ENDBRANCH  20  22
ENDBRANCH  18  20
ENDBRANCH  12  14
ENDBRANCH  11  12
ENDBRANCH   2  11
BRANCH   6  24
ATOM     24  O   UNL     1       1.993   6.482  21.045  0.00  0.00    +0.000 OA
BRANCH  24  25
ATOM     25  C   UNL     1       0.694   7.063  21.002  0.00  0.00    +0.000 C 
ATOM     26  C   UNL     1       0.801   8.510  21.464  0.00  0.00    +0.000 C 
ENDBRANCH  24  25
ENDBRANCH   6  24
TORSDOF 10
ENDMDL
MODEL 8
REMARK VINA RESULT:      -6.9      2.944      4.482
REMARK  Name = 
REMARK  11 active torsions:
REMARK  status: ('A' for Active; 'I' for Inactive)
REMARK    1  A    between atoms: C_2  and  C_3
REMARK    2  A    between atoms: C_3  and  O_4
REMARK    3  A    between atoms: O_4  and  C_5
REMARK    4  A    between atoms: C_6  and  C_7
REMARK    5  A    between atoms: C_7  and  N_8
REMARK    6  A    between atoms: N_8  and  C_9
REMARK    7  A    between atoms: C_13  and  C_14
REMARK    8  A    between atoms: C_14  and  O_16
REMARK    9  A    between atoms: C_21  and  O_22
REMARK   10  A    between atoms: O_22  and  C_23
REMARK   11  A    between atoms: C_23  and  C_24
REMARK                            x       y       z     vdW  Elec       q    Type
REMARK                         _______ _______ _______ _____ _____    ______ ____
ROOT
ATOM      1  C   UNL     1       1.743   7.506  20.019  0.00  0.00    +0.000 A 
ATOM      2  C   UNL     1       2.210   7.464  18.687  0.00  0.00    +0.000 A 
ATOM      3  C   UNL     1       2.092   8.615  17.879  0.00  0.00    +0.000 A 
ATOM      4  C   UNL     1       1.477   9.767  18.345  0.00  0.00    +0.000 A 
ATOM      5  C   UNL     1       0.943   9.777  19.626  0.00  0.00    +0.000 A 
ATOM      6  C   UNL     1       1.043   8.655  20.459  0.00  0.00    +0.000 A 
ENDROOT
BRANCH   1   7
ATOM      7  O   UNL     1       1.902   6.496  20.929  0.00  0.00    +0.000 OA
BRANCH   7   8
ATOM      8  C   UNL     1       1.351   5.194  20.682  0.00  0.00    +0.000 C 
BRANCH   8  10
ATOM      9  C   UNL     1       1.611   2.830  21.468  0.00  0.00    +0.000 C 
ATOM     10  C   UNL     1       2.139   4.043  21.246  0.00  0.00    +0.000 C 
ENDBRANCH   8  10
ENDBRANCH   7   8
ENDBRANCH   1   7
BRANCH   2  11
ATOM     11  C   UNL     1       2.861   6.270  18.023  0.00  0.00    +0.000 C 
BRANCH  11  12
ATOM     12  N   UNL     1       4.109   5.970  18.701  0.00  0.00    +0.000 N 
ATOM     13  H   UNL     1       4.283   6.559  19.514  0.00  0.00    +0.000 HD
BRANCH  12  14
ATOM     14  C   UNL     1       5.278   5.515  18.128  0.00  0.00    +0.000 A 
ATOM     15  C   UNL     1       6.378   5.302  18.976  0.00  0.00    +0.000 A 
ATOM     16  C   UNL     1       7.608   4.868  18.485  0.00  0.00    +0.000 A 
ATOM     17  C   UNL     1       7.755   4.624  17.125  0.00  0.00    +0.000 A 
ATOM     18  C   UNL     1       6.657   4.772  16.273  0.00  0.00    +0.000 A 
ATOM     19  C   UNL     1       5.419   5.196  16.778  0.00  0.00    +0.000 A 
BRANCH  18  20
ATOM     20  C   UNL     1       6.878   4.556  14.818  0.00  0.00    +0.000 C 
ATOM     21  O   UNL     1       7.563   5.291  14.134  0.00  0.00    +0.000 OA
BRANCH  20  22
ATOM     22  O   UNL     1       6.269   3.456  14.323  0.00  0.00    +0.000 OA
ATOM     23  H   UNL     1       5.408   3.240  14.724  0.00  0.00    +0.000 HD
ENDBRANCH  20  22
ENDBRANCH  18  20
ENDBRANCH  12  14
ENDBRANCH  11  12
ENDBRANCH   2  11
BRANCH   6  24
ATOM     24  O   UNL     1       0.443   8.870  21.675  0.00  0.00    +0.000 OA
BRANCH  24  25
ATOM     25  C   UNL     1      -0.136  10.145  21.931  0.00  0.00    +0.000 C 
ATOM     26  C   UNL     1      -0.759  10.119  23.319  0.00  0.00    +0.000 C 
ENDBRANCH  24  25
ENDBRANCH   6  24
TORSDOF 10
ENDMDL
MODEL 9
REMARK VINA RESULT:      -6.8      2.443      3.894
REMARK  Name = 
REMARK  11 active torsions:
REMARK  status: ('A' for Active; 'I' for Inactive)
REMARK    1  A    between atoms: C_2  and  C_3
REMARK    2  A    between atoms: C_3  and  O_4
REMARK    3  A    between atoms: O_4  and  C_5
REMARK    4  A    between atoms: C_6  and  C_7
REMARK    5  A    between atoms: C_7  and  N_8
REMARK    6  A    between atoms: N_8  and  C_9
REMARK    7  A    between atoms: C_13  and  C_14
REMARK    8  A    between atoms: C_14  and  O_16
REMARK    9  A    between atoms: C_21  and  O_22
REMARK   10  A    between atoms: O_22  and  C_23
REMARK   11  A    between atoms: C_23  and  C_24
REMARK                            x       y       z     vdW  Elec       q    Type
REMARK                         _______ _______ _______ _____ _____    ______ ____
ROOT
ATOM      1  C   UNL     1       1.770   6.015  19.769  0.00  0.00    +0.000 A 
ATOM      2  C   UNL     1       2.191   5.729  18.452  0.00  0.00    +0.000 A 
ATOM      3  C   UNL     1       2.645   6.784  17.630  0.00  0.00    +0.000 A 
ATOM      4  C   UNL     1       2.633   8.100  18.068  0.00  0.00    +0.000 A 
ATOM      5  C   UNL     1       2.139   8.386  19.332  0.00  0.00    +0.000 A 
ATOM      6  C   UNL     1       1.683   7.367  20.178  0.00  0.00    +0.000 A 
ENDROOT
BRANCH   1   7
ATOM      7  O   UNL     1       1.416   5.068  20.693  0.00  0.00    +0.000 OA
BRANCH   7   8
ATOM      8  C   UNL     1       2.416   4.385  21.462  0.00  0.00    +0.000 C 
BRANCH   8  10
ATOM      9  C   UNL     1       1.540   2.182  20.652  0.00  0.00    +0.000 C 
ATOM     10  C   UNL     1       2.267   2.889  21.530  0.00  0.00    +0.000 C 
ENDBRANCH   8  10
ENDBRANCH   7   8
ENDBRANCH   1   7
BRANCH   2  11
ATOM     11  C   UNL     1       2.219   4.356  17.818  0.00  0.00    +0.000 C 
BRANCH  11  12
ATOM     12  N   UNL     1       3.490   3.720  18.116  0.00  0.00    +0.000 N 
ATOM     13  H   UNL     1       3.532   3.309  19.047  0.00  0.00    +0.000 HD
BRANCH  12  14
ATOM     14  C   UNL     1       4.735   4.095  17.655  0.00  0.00    +0.000 A 
ATOM     15  C   UNL     1       5.688   4.493  18.608  0.00  0.00    +0.000 A 
ATOM     16  C   UNL     1       6.964   4.913  18.237  0.00  0.00    +0.000 A 
ATOM     17  C   UNL     1       7.315   4.929  16.893  0.00  0.00    +0.000 A 
ATOM     18  C   UNL     1       6.402   4.482  15.934  0.00  0.00    +0.000 A 
ATOM     19  C   UNL     1       5.125   4.047  16.317  0.00  0.00    +0.000 A 
BRANCH  18  20
ATOM     20  C   UNL     1       6.802   4.573  14.503  0.00  0.00    +0.000 C 
ATOM     21  O   UNL     1       6.273   3.920  13.624  0.00  0.00    +0.000 OA
BRANCH  20  22
ATOM     22  O   UNL     1       7.790   5.462  14.259  0.00  0.00    +0.000 OA
ATOM     23  H   UNL     1       8.058   5.541  13.327  0.00  0.00    +0.000 HD
ENDBRANCH  20  22
ENDBRANCH  18  20
ENDBRANCH  12  14
ENDBRANCH  11  12
ENDBRANCH   2  11
BRANCH   6  24
ATOM     24  O   UNL     1       1.227   7.865  21.374  0.00  0.00    +0.000 OA
BRANCH  24  25
ATOM     25  C   UNL     1       0.621   9.153  21.387  0.00  0.00    +0.000 C 
ATOM     26  C   UNL     1       0.182   9.462  22.811  0.00  0.00    +0.000 C 
ENDBRANCH  24  25
ENDBRANCH   6  24
TORSDOF 10
ENDMDL
