MODEL 1
REMARK VINA RESULT:      -7.6      0.000      0.000
REMARK  Name = 
REMARK  10 active torsions:
REMARK  status: ('A' for Active; 'I' for Inactive)
REMARK    1  A    between atoms: C_1  and  C_2
REMARK    2  A    between atoms: C_2  and  C_3
REMARK    3  A    between atoms: C_2  and  N_4
REMARK    4  A    between atoms: N_4  and  C_28
REMARK    5  A    between atoms: N_7  and  C_8
REMARK    6  A    between atoms: N_15  and  C_16
REMARK    7  A    between atoms: C_16  and  C_17
REMARK    8  A    between atoms: C_16  and  C_18
REMARK    9  A    between atoms: C_28  and  C_29
REMARK   10  A    between atoms: C_28  and  C_30
REMARK                            x       y       z     vdW  Elec       q    Type
REMARK                         _______ _______ _______ _____ _____    ______ ____
ROOT
ATOM      1  C   UNL     1      -4.988  12.319  18.999  0.00  0.00    +0.000 A 
ATOM      2  C   UNL     1      -6.112  12.065  18.181  0.00  0.00    +0.000 A 
ATOM      3  N   UNL     1      -5.802  11.443  17.043  0.00  0.00    +0.000 NA
ATOM      4  N   UNL     1      -4.460  11.275  17.108  0.00  0.00    +0.000 N 
ATOM      5  C   UNL     1      -3.643  10.698  16.153  0.00  0.00    +0.000 A 
ATOM      6  C   UNL     1      -2.330  10.571  16.378  0.00  0.00    +0.000 A 
ATOM      7  C   UNL     1      -1.816  11.050  17.720  0.00  0.00    +0.000 A 
ATOM      8  N   UNL     1      -0.492  10.787  17.988  0.00  0.00    +0.000 N 
ATOM      9  N   UNL     1      -2.583  11.654  18.587  0.00  0.00    +0.000 NA
ATOM     10  C   UNL     1      -3.924  11.776  18.295  0.00  0.00    +0.000 A 
ATOM     11  H   UNL     1       0.052  10.328  17.264  0.00  0.00    +0.000 HD
ENDROOT
BRANCH   1  15
ATOM     12  N   UNL     1      -5.436  13.336  22.523  0.00  0.00    +0.000 N 
ATOM     13  C   UNL     1      -5.625  12.598  21.336  0.00  0.00    +0.000 C 
ATOM     14  O   UNL     1      -6.410  11.645  21.304  0.00  0.00    +0.000 OA
ATOM     15  N   UNL     1      -4.882  12.941  20.240  0.00  0.00    +0.000 N 
ATOM     16  H   UNL     1      -3.992  13.395  20.359  0.00  0.00    +0.000 HD
BRANCH  12  18
ATOM     17  C   UNL     1      -3.279  14.792  22.398  0.00  0.00    +0.000 C 
ATOM     18  C   UNL     1      -4.773  14.668  22.706  0.00  0.00    +0.000 C 
ATOM     19  C   UNL     1      -5.516  15.802  21.987  0.00  0.00    +0.000 C 
ENDBRANCH  12  18
BRANCH  12  20
ATOM     20  C   UNL     1      -6.038  12.687  23.733  0.00  0.00    +0.000 C 
ATOM     21  C   UNL     1      -4.954  12.456  24.792  0.00  0.00    +0.000 C 
ATOM     22  C   UNL     1      -7.249  13.369  24.381  0.00  0.00    +0.000 C 
ENDBRANCH  12  20
ENDBRANCH   1  15
BRANCH   8  23
ATOM     23  C   UNL     1       0.329  11.406  19.012  0.00  0.00    +0.000 C 
ATOM     24  C   UNL     1       1.773  11.625  18.559  0.00  0.00    +0.000 C 
BRANCH  23  25
ATOM     25  C   UNL     1       0.148  10.713  20.348  0.00  0.00    +0.000 A 
ATOM     26  C   UNL     1      -0.504  11.309  21.435  0.00  0.00    +0.000 A 
ATOM     27  C   UNL     1      -0.723  10.585  22.608  0.00  0.00    +0.000 A 
ATOM     28  F   UNL     1      -1.392  11.158  23.615  0.00  0.00    +0.000 F 
ATOM     29  C   UNL     1      -0.274   9.276  22.739  0.00  0.00    +0.000 A 
ATOM     30  C   UNL     1       0.429   8.690  21.690  0.00  0.00    +0.000 A 
ATOM     31  C   UNL     1       0.636   9.409  20.512  0.00  0.00    +0.000 A 
ATOM     32  F   UNL     1       1.306   8.815  19.513  0.00  0.00    +0.000 F 
ENDBRANCH  23  25
ENDBRANCH   8  23
TORSDOF 5
ENDMDL
MODEL 2
REMARK VINA RESULT:      -7.4      1.314      2.516
REMARK  Name = 
REMARK  10 active torsions:
REMARK  status: ('A' for Active; 'I' for Inactive)
REMARK    1  A    between atoms: C_1  and  C_2
REMARK    2  A    between atoms: C_2  and  C_3
REMARK    3  A    between atoms: C_2  and  N_4
REMARK    4  A    between atoms: N_4  and  C_28
REMARK    5  A    between atoms: N_7  and  C_8
REMARK    6  A    between atoms: N_15  and  C_16
REMARK    7  A    between atoms: C_16  and  C_17
REMARK    8  A    between atoms: C_16  and  C_18
REMARK    9  A    between atoms: C_28  and  C_29
REMARK   10  A    between atoms: C_28  and  C_30
REMARK                            x       y       z     vdW  Elec       q    Type
REMARK                         _______ _______ _______ _____ _____    ______ ____
ROOT
ATOM      1  C   UNL     1      -5.635  12.301  19.690  0.00  0.00    +0.000 A 
ATOM      2  C   UNL     1      -6.794  12.069  18.915  0.00  0.00    +0.000 A 
ATOM      3  N   UNL     1      -6.522  11.649  17.678  0.00  0.00    +0.000 NA
ATOM      4  N   UNL     1      -5.170  11.595  17.633  0.00  0.00    +0.000 N 
ATOM      5  C   UNL     1      -4.384  11.239  16.552  0.00  0.00    +0.000 A 
ATOM      6  C   UNL     1      -3.052  11.200  16.672  0.00  0.00    +0.000 A 
ATOM      7  C   UNL     1      -2.478  11.523  18.036  0.00  0.00    +0.000 A 
ATOM      8  N   UNL     1      -1.120  11.345  18.177  0.00  0.00    +0.000 N 
ATOM      9  N   UNL     1      -3.223  11.924  19.030  0.00  0.00    +0.000 NA
ATOM     10  C   UNL     1      -4.587  11.965  18.846  0.00  0.00    +0.000 A 
ATOM     11  H   UNL     1      -0.598  11.047  17.359  0.00  0.00    +0.000 HD
ENDROOT
BRANCH   1  15
ATOM     12  N   UNL     1      -4.912  14.297  22.713  0.00  0.00    +0.000 N 
ATOM     13  C   UNL     1      -5.047  13.994  21.342  0.00  0.00    +0.000 C 
ATOM     14  O   UNL     1      -4.816  14.849  20.482  0.00  0.00    +0.000 OA
ATOM     15  N   UNL     1      -5.485  12.744  21.001  0.00  0.00    +0.000 N 
ATOM     16  H   UNL     1      -6.051  12.217  21.644  0.00  0.00    +0.000 HD
BRANCH  12  18
ATOM     17  C   UNL     1      -6.100  12.523  24.206  0.00  0.00    +0.000 C 
ATOM     18  C   UNL     1      -4.860  13.361  23.883  0.00  0.00    +0.000 C 
ATOM     19  C   UNL     1      -3.639  12.432  23.843  0.00  0.00    +0.000 C 
ENDBRANCH  12  18
BRANCH  12  20
ATOM     20  C   UNL     1      -4.750  15.763  22.988  0.00  0.00    +0.000 C 
ATOM     21  C   UNL     1      -5.988  16.293  23.722  0.00  0.00    +0.000 C 
ATOM     22  C   UNL     1      -3.485  16.215  23.726  0.00  0.00    +0.000 C 
ENDBRANCH  12  20
ENDBRANCH   1  15
BRANCH   8  23
ATOM     23  C   UNL     1      -0.277  11.880  19.230  0.00  0.00    +0.000 C 
ATOM     24  C   UNL     1       1.063  12.399  18.705  0.00  0.00    +0.000 C 
BRANCH  23  25
ATOM     25  C   UNL     1      -0.208  10.931  20.408  0.00  0.00    +0.000 A 
ATOM     26  C   UNL     1       0.325   9.638  20.317  0.00  0.00    +0.000 A 
ATOM     27  C   UNL     1       0.450   8.846  21.458  0.00  0.00    +0.000 A 
ATOM     28  F   UNL     1       1.008   7.633  21.356  0.00  0.00    +0.000 F 
ATOM     29  C   UNL     1       0.019   9.300  22.699  0.00  0.00    +0.000 A 
ATOM     30  C   UNL     1      -0.569  10.558  22.796  0.00  0.00    +0.000 A 
ATOM     31  C   UNL     1      -0.680  11.357  21.658  0.00  0.00    +0.000 A 
ATOM     32  F   UNL     1      -1.240  12.570  21.782  0.00  0.00    +0.000 F 
ENDBRANCH  23  25
ENDBRANCH   8  23
TORSDOF 5
ENDMDL
MODEL 3
REMARK VINA RESULT:      -7.4      1.204      1.821
REMARK  Name = 
REMARK  10 active torsions:
REMARK  status: ('A' for Active; 'I' for Inactive)
REMARK    1  A    between atoms: C_1  and  C_2
REMARK    2  A    between atoms: C_2  and  C_3
REMARK    3  A    between atoms: C_2  and  N_4
REMARK    4  A    between atoms: N_4  and  C_28
REMARK    5  A    between atoms: N_7  and  C_8
REMARK    6  A    between atoms: N_15  and  C_16
REMARK    7  A    between atoms: C_16  and  C_17
REMARK    8  A    between atoms: C_16  and  C_18
REMARK    9  A    between atoms: C_28  and  C_29
REMARK   10  A    between atoms: C_28  and  C_30
REMARK                            x       y       z     vdW  Elec       q    Type
REMARK                         _______ _______ _______ _____ _____    ______ ____
ROOT
ATOM      1  C   UNL     1      -5.124  12.212  19.670  0.00  0.00    +0.000 A 
ATOM      2  C   UNL     1      -6.314  12.040  18.929  0.00  0.00    +0.000 A 
ATOM      3  N   UNL     1      -6.096  11.649  17.672  0.00  0.00    +0.000 NA
ATOM      4  N   UNL     1      -4.749  11.554  17.579  0.00  0.00    +0.000 N 
ATOM      5  C   UNL     1      -4.011  11.205  16.463  0.00  0.00    +0.000 A 
ATOM      6  C   UNL     1      -2.677  11.121  16.537  0.00  0.00    +0.000 A 
ATOM      7  C   UNL     1      -2.049  11.385  17.890  0.00  0.00    +0.000 A 
ATOM      8  N   UNL     1      -0.694  11.160  17.980  0.00  0.00    +0.000 N 
ATOM      9  N   UNL     1      -2.748  11.779  18.920  0.00  0.00    +0.000 NA
ATOM     10  C   UNL     1      -4.115  11.869  18.782  0.00  0.00    +0.000 A 
ATOM     11  H   UNL     1      -0.209  10.870  17.137  0.00  0.00    +0.000 HD
ENDROOT
BRANCH   1  15
ATOM     12  N   UNL     1      -4.794  14.163  22.791  0.00  0.00    +0.000 N 
ATOM     13  C   UNL     1      -5.068  13.895  21.433  0.00  0.00    +0.000 C 
ATOM     14  O   UNL     1      -5.474  14.789  20.684  0.00  0.00    +0.000 OA
ATOM     15  N   UNL     1      -4.916  12.611  20.988  0.00  0.00    +0.000 N 
ATOM     16  H   UNL     1      -5.001  11.843  21.632  0.00  0.00    +0.000 HD
BRANCH  12  18
ATOM     17  C   UNL     1      -4.807  12.270  24.580  0.00  0.00    +0.000 C 
ATOM     18  C   UNL     1      -4.040  13.326  23.780  0.00  0.00    +0.000 C 
ATOM     19  C   UNL     1      -2.794  12.670  23.172  0.00  0.00    +0.000 C 
ENDBRANCH  12  18
BRANCH  12  20
ATOM     20  C   UNL     1      -5.298  15.498  23.250  0.00  0.00    +0.000 C 
ATOM     21  C   UNL     1      -6.723  15.354  23.799  0.00  0.00    +0.000 C 
ATOM     22  C   UNL     1      -4.440  16.279  24.254  0.00  0.00    +0.000 C 
ENDBRANCH  12  20
ENDBRANCH   1  15
BRANCH   8  23
ATOM     23  C   UNL     1       0.200  11.636  19.018  0.00  0.00    +0.000 C 
ATOM     24  C   UNL     1       1.515  12.185  18.459  0.00  0.00    +0.000 C 
BRANCH  23  25
ATOM     25  C   UNL     1       0.325  10.623  20.138  0.00  0.00    +0.000 A 
ATOM     26  C   UNL     1      -0.231  10.819  21.410  0.00  0.00    +0.000 A 
ATOM     27  C   UNL     1      -0.166   9.808  22.369  0.00  0.00    +0.000 A 
ATOM     28  F   UNL     1      -0.747   9.997  23.560  0.00  0.00    +0.000 F 
ATOM     29  C   UNL     1       0.478   8.604  22.103  0.00  0.00    +0.000 A 
ATOM     30  C   UNL     1       1.088   8.419  20.866  0.00  0.00    +0.000 A 
ATOM     31  C   UNL     1       1.009   9.423  19.901  0.00  0.00    +0.000 A 
ATOM     32  F   UNL     1       1.596   9.212  18.713  0.00  0.00    +0.000 F 
ENDBRANCH  23  25
ENDBRANCH   8  23
TORSDOF 5
ENDMDL
MODEL 4
REMARK VINA RESULT:      -7.4      0.947      1.475
REMARK  Name = 
REMARK  10 active torsions:
REMARK  status: ('A' for Active; 'I' for Inactive)
REMARK    1  A    between atoms: C_1  and  C_2
REMARK    2  A    between atoms: C_2  and  C_3
REMARK    3  A    between atoms: C_2  and  N_4
REMARK    4  A    between atoms: N_4  and  C_28
REMARK    5  A    between atoms: N_7  and  C_8
REMARK    6  A    between atoms: N_15  and  C_16
REMARK    7  A    between atoms: C_16  and  C_17
REMARK    8  A    between atoms: C_16  and  C_18
REMARK    9  A    between atoms: C_28  and  C_29
REMARK   10  A    between atoms: C_28  and  C_30
REMARK                            x       y       z     vdW  Elec       q    Type
REMARK                         _______ _______ _______ _____ _____    ______ ____
ROOT
ATOM      1  C   UNL     1      -5.141  12.422  18.978  0.00  0.00    +0.000 A 
ATOM      2  C   UNL     1      -6.267  12.169  18.161  0.00  0.00    +0.000 A 
ATOM      3  N   UNL     1      -5.956  11.567  17.012  0.00  0.00    +0.000 NA
ATOM      4  N   UNL     1      -4.612  11.412  17.068  0.00  0.00    +0.000 N 
ATOM      5  C   UNL     1      -3.794  10.858  16.100  0.00  0.00    +0.000 A 
ATOM      6  C   UNL     1      -2.478  10.742  16.316  0.00  0.00    +0.000 A 
ATOM      7  C   UNL     1      -1.963  11.205  17.663  0.00  0.00    +0.000 A 
ATOM      8  N   UNL     1      -0.634  10.952  17.920  0.00  0.00    +0.000 N 
ATOM      9  N   UNL     1      -2.731  11.789  18.542  0.00  0.00    +0.000 NA
ATOM     10  C   UNL     1      -4.075  11.901  18.260  0.00  0.00    +0.000 A 
ATOM     11  H   UNL     1      -0.090  10.510  17.187  0.00  0.00    +0.000 HD
ENDROOT
BRANCH   1  15
ATOM     12  N   UNL     1      -5.569  13.369  22.523  0.00  0.00    +0.000 N 
ATOM     13  C   UNL     1      -5.754  12.646  21.326  0.00  0.00    +0.000 C 
ATOM     14  O   UNL     1      -6.515  11.674  21.289  0.00  0.00    +0.000 OA
ATOM     15  N   UNL     1      -5.034  13.026  20.227  0.00  0.00    +0.000 N 
ATOM     16  H   UNL     1      -4.156  13.502  20.342  0.00  0.00    +0.000 HD
BRANCH  12  18
ATOM     17  C   UNL     1      -3.448  14.878  22.413  0.00  0.00    +0.000 C 
ATOM     18  C   UNL     1      -4.939  14.715  22.720  0.00  0.00    +0.000 C 
ATOM     19  C   UNL     1      -5.709  15.838  22.013  0.00  0.00    +0.000 C 
ENDBRANCH  12  18
BRANCH  12  20
ATOM     20  C   UNL     1      -6.138  12.685  23.729  0.00  0.00    +0.000 C 
ATOM     21  C   UNL     1      -5.028  12.438  24.759  0.00  0.00    +0.000 C 
ATOM     22  C   UNL     1      -7.340  13.339  24.421  0.00  0.00    +0.000 C 
ENDBRANCH  12  20
ENDBRANCH   1  15
BRANCH   8  23
ATOM     23  C   UNL     1       0.185  11.564  18.950  0.00  0.00    +0.000 C 
ATOM     24  C   UNL     1       1.675  11.556  18.601  0.00  0.00    +0.000 C 
BRANCH  23  25
ATOM     25  C   UNL     1      -0.180  11.036  20.322  0.00  0.00    +0.000 A 
ATOM     26  C   UNL     1      -0.197   9.670  20.634  0.00  0.00    +0.000 A 
ATOM     27  C   UNL     1      -0.448   9.249  21.941  0.00  0.00    +0.000 A 
ATOM     28  F   UNL     1      -0.410   7.942  22.227  0.00  0.00    +0.000 F 
ATOM     29  C   UNL     1      -0.720  10.165  22.951  0.00  0.00    +0.000 A 
ATOM     30  C   UNL     1      -0.767  11.522  22.644  0.00  0.00    +0.000 A 
ATOM     31  C   UNL     1      -0.501  11.944  21.340  0.00  0.00    +0.000 A 
ATOM     32  F   UNL     1      -0.542  13.258  21.076  0.00  0.00    +0.000 F 
ENDBRANCH  23  25
ENDBRANCH   8  23
TORSDOF 5
ENDMDL
MODEL 5
REMARK VINA RESULT:      -7.3      1.971      3.408
REMARK  Name = 
REMARK  10 active torsions:
REMARK  status: ('A' for Active; 'I' for Inactive)
REMARK    1  A    between atoms: C_1  and  C_2
REMARK    2  A    between atoms: C_2  and  C_3
REMARK    3  A    between atoms: C_2  and  N_4
REMARK    4  A    between atoms: N_4  and  C_28
REMARK    5  A    between atoms: N_7  and  C_8
REMARK    6  A    between atoms: N_15  and  C_16
REMARK    7  A    between atoms: C_16  and  C_17
REMARK    8  A    between atoms: C_16  and  C_18
REMARK    9  A    between atoms: C_28  and  C_29
REMARK   10  A    between atoms: C_28  and  C_30
REMARK                            x       y       z     vdW  Elec       q    Type
REMARK                         _______ _______ _______ _____ _____    ______ ____
ROOT
ATOM      1  C   UNL     1      -4.540  12.434  19.685  0.00  0.00    +0.000 A 
ATOM      2  C   UNL     1      -5.766  12.622  19.006  0.00  0.00    +0.000 A 
ATOM      3  N   UNL     1      -5.719  12.246  17.727  0.00  0.00    +0.000 NA
ATOM      4  N   UNL     1      -4.453  11.797  17.556  0.00  0.00    +0.000 N 
ATOM      5  C   UNL     1      -3.888  11.316  16.389  0.00  0.00    +0.000 A 
ATOM      6  C   UNL     1      -2.625  10.874  16.385  0.00  0.00    +0.000 A 
ATOM      7  C   UNL     1      -1.888  10.897  17.709  0.00  0.00    +0.000 A 
ATOM      8  N   UNL     1      -0.641  10.312  17.715  0.00  0.00    +0.000 N 
ATOM      9  N   UNL     1      -2.407  11.415  18.788  0.00  0.00    +0.000 NA
ATOM     10  C   UNL     1      -3.704  11.875  18.731  0.00  0.00    +0.000 A 
ATOM     11  H   UNL     1      -0.291   9.943  16.837  0.00  0.00    +0.000 HD
ENDROOT
BRANCH   1  15
ATOM     12  N   UNL     1      -3.252  13.995  22.777  0.00  0.00    +0.000 N 
ATOM     13  C   UNL     1      -3.603  13.873  21.416  0.00  0.00    +0.000 C 
ATOM     14  O   UNL     1      -3.437  14.816  20.635  0.00  0.00    +0.000 OA
ATOM     15  N   UNL     1      -4.174  12.701  21.001  0.00  0.00    +0.000 N 
ATOM     16  H   UNL     1      -4.678  12.129  21.657  0.00  0.00    +0.000 HD
BRANCH  12  18
ATOM     17  C   UNL     1      -4.363  12.357  24.470  0.00  0.00    +0.000 C 
ATOM     18  C   UNL     1      -3.102  12.918  23.809  0.00  0.00    +0.000 C 
ATOM     19  C   UNL     1      -2.243  11.745  23.318  0.00  0.00    +0.000 C 
ENDBRANCH  12  18
BRANCH  12  20
ATOM     20  C   UNL     1      -2.949  15.403  23.192  0.00  0.00    +0.000 C 
ATOM     21  C   UNL     1      -4.063  15.926  24.107  0.00  0.00    +0.000 C 
ATOM     22  C   UNL     1      -1.586  15.680  23.837  0.00  0.00    +0.000 C 
ENDBRANCH  12  20
ENDBRANCH   1  15
BRANCH   8  23
ATOM     23  C   UNL     1       0.395  10.483  18.716  0.00  0.00    +0.000 C 
ATOM     24  C   UNL     1       1.180  11.784  18.536  0.00  0.00    +0.000 C 
BRANCH  23  25
ATOM     25  C   UNL     1       1.221   9.222  18.867  0.00  0.00    +0.000 A 
ATOM     26  C   UNL     1       2.037   8.718  17.844  0.00  0.00    +0.000 A 
ATOM     27  C   UNL     1       2.848   7.606  18.075  0.00  0.00    +0.000 A 
ATOM     28  F   UNL     1       3.656   7.172  17.101  0.00  0.00    +0.000 F 
ATOM     29  C   UNL     1       2.841   6.954  19.303  0.00  0.00    +0.000 A 
ATOM     30  C   UNL     1       1.991   7.405  20.308  0.00  0.00    +0.000 A 
ATOM     31  C   UNL     1       1.191   8.526  20.083  0.00  0.00    +0.000 A 
ATOM     32  F   UNL     1       0.390   8.946  21.074  0.00  0.00    +0.000 F 
ENDBRANCH  23  25
ENDBRANCH   8  23
TORSDOF 5
ENDMDL
MODEL 6
REMARK VINA RESULT:      -7.3      1.104      2.030
REMARK  Name = 
REMARK  10 active torsions:
REMARK  status: ('A' for Active; 'I' for Inactive)
REMARK    1  A    between atoms: C_1  and  C_2
REMARK    2  A    between atoms: C_2  and  C_3
REMARK    3  A    between atoms: C_2  and  N_4
REMARK    4  A    between atoms: N_4  and  C_28
REMARK    5  A    between atoms: N_7  and  C_8
REMARK    6  A    between atoms: N_15  and  C_16
REMARK    7  A    between atoms: C_16  and  C_17
REMARK    8  A    between atoms: C_16  and  C_18
REMARK    9  A    between atoms: C_28  and  C_29
REMARK   10  A    between atoms: C_28  and  C_30
REMARK                            x       y       z     vdW  Elec       q    Type
REMARK                         _______ _______ _______ _____ _____    ______ ____
ROOT
ATOM      1  C   UNL     1      -5.197  12.266  19.466  0.00  0.00    +0.000 A 
ATOM      2  C   UNL     1      -6.345  12.049  18.670  0.00  0.00    +0.000 A 
ATOM      3  N   UNL     1      -6.056  11.600  17.447  0.00  0.00    +0.000 NA
ATOM      4  N   UNL     1      -4.705  11.511  17.433  0.00  0.00    +0.000 N 
ATOM      5  C   UNL     1      -3.906  11.115  16.376  0.00  0.00    +0.000 A 
ATOM      6  C   UNL     1      -2.578  11.044  16.527  0.00  0.00    +0.000 A 
ATOM      7  C   UNL     1      -2.026  11.377  17.898  0.00  0.00    +0.000 A 
ATOM      8  N   UNL     1      -0.676  11.166  18.072  0.00  0.00    +0.000 N 
ATOM      9  N   UNL     1      -2.782  11.814  18.868  0.00  0.00    +0.000 NA
ATOM     10  C   UNL     1      -4.140  11.888  18.652  0.00  0.00    +0.000 A 
ATOM     11  H   UNL     1      -0.145  10.840  17.272  0.00  0.00    +0.000 HD
ENDROOT
BRANCH   1  15
ATOM     12  N   UNL     1      -5.602  14.076  22.661  0.00  0.00    +0.000 N 
ATOM     13  C   UNL     1      -5.871  13.678  21.335  0.00  0.00    +0.000 C 
ATOM     14  O   UNL     1      -6.834  14.147  20.719  0.00  0.00    +0.000 OA
ATOM     15  N   UNL     1      -5.064  12.728  20.773  0.00  0.00    +0.000 N 
ATOM     16  H   UNL     1      -4.581  12.068  21.358  0.00  0.00    +0.000 HD
BRANCH  12  18
ATOM     17  C   UNL     1      -3.952  12.430  23.825  0.00  0.00    +0.000 C 
ATOM     18  C   UNL     1      -4.360  13.862  23.473  0.00  0.00    +0.000 C 
ATOM     19  C   UNL     1      -3.140  14.589  22.890  0.00  0.00    +0.000 C 
ENDBRANCH  12  18
BRANCH  12  20
ATOM     20  C   UNL     1      -6.717  14.859  23.289  0.00  0.00    +0.000 C 
ATOM     21  C   UNL     1      -7.529  13.951  24.220  0.00  0.00    +0.000 C 
ATOM     22  C   UNL     1      -6.353  16.153  24.026  0.00  0.00    +0.000 C 
ENDBRANCH  12  20
ENDBRANCH   1  15
BRANCH   8  23
ATOM     23  C   UNL     1       0.157  11.698  19.134  0.00  0.00    +0.000 C 
ATOM     24  C   UNL     1       1.537  12.135  18.637  0.00  0.00    +0.000 C 
BRANCH  23  25
ATOM     25  C   UNL     1       0.144  10.788  20.345  0.00  0.00    +0.000 A 
ATOM     26  C   UNL     1       0.721   9.511  20.347  0.00  0.00    +0.000 A 
ATOM     27  C   UNL     1       0.762   8.759  21.521  0.00  0.00    +0.000 A 
ATOM     28  F   UNL     1       1.363   7.563  21.512  0.00  0.00    +0.000 F 
ATOM     29  C   UNL     1       0.203   9.237  22.701  0.00  0.00    +0.000 A 
ATOM     30  C   UNL     1      -0.429  10.477  22.700  0.00  0.00    +0.000 A 
ATOM     31  C   UNL     1      -0.456  11.237  21.530  0.00  0.00    +0.000 A 
ATOM     32  F   UNL     1      -1.061  12.434  21.562  0.00  0.00    +0.000 F 
ENDBRANCH  23  25
ENDBRANCH   8  23
TORSDOF 5
ENDMDL
MODEL 7
REMARK VINA RESULT:      -7.3      1.570      2.626
REMARK  Name = 
REMARK  10 active torsions:
REMARK  status: ('A' for Active; 'I' for Inactive)
REMARK    1  A    between atoms: C_1  and  C_2
REMARK    2  A    between atoms: C_2  and  C_3
REMARK    3  A    between atoms: C_2  and  N_4
REMARK    4  A    between atoms: N_4  and  C_28
REMARK    5  A    between atoms: N_7  and  C_8
REMARK    6  A    between atoms: N_15  and  C_16
REMARK    7  A    between atoms: C_16  and  C_17
REMARK    8  A    between atoms: C_16  and  C_18
REMARK    9  A    between atoms: C_28  and  C_29
REMARK   10  A    between atoms: C_28  and  C_30
REMARK                            x       y       z     vdW  Elec       q    Type
REMARK                         _______ _______ _______ _____ _____    ______ ____
ROOT
ATOM      1  C   UNL     1      -4.664  12.423  19.027  0.00  0.00    +0.000 A 
ATOM      2  C   UNL     1      -5.833  12.563  18.245  0.00  0.00    +0.000 A 
ATOM      3  N   UNL     1      -5.706  12.058  17.017  0.00  0.00    +0.000 NA
ATOM      4  N   UNL     1      -4.443  11.572  16.984  0.00  0.00    +0.000 N 
ATOM      5  C   UNL     1      -3.809  10.964  15.915  0.00  0.00    +0.000 A 
ATOM      6  C   UNL     1      -2.561  10.501  16.047  0.00  0.00    +0.000 A 
ATOM      7  C   UNL     1      -1.919  10.644  17.412  0.00  0.00    +0.000 A 
ATOM      8  N   UNL     1      -0.691  10.041  17.567  0.00  0.00    +0.000 N 
ATOM      9  N   UNL     1      -2.499  11.279  18.394  0.00  0.00    +0.000 NA
ATOM     10  C   UNL     1      -3.777  11.754  18.197  0.00  0.00    +0.000 A 
ATOM     11  H   UNL     1      -0.290   9.578  16.759  0.00  0.00    +0.000 HD
ENDROOT
BRANCH   1  15
ATOM     12  N   UNL     1      -4.826  13.079  22.659  0.00  0.00    +0.000 N 
ATOM     13  C   UNL     1      -5.222  12.600  21.393  0.00  0.00    +0.000 C 
ATOM     14  O   UNL     1      -6.276  11.969  21.260  0.00  0.00    +0.000 OA
ATOM     15  N   UNL     1      -4.385  12.814  20.333  0.00  0.00    +0.000 N 
ATOM     16  H   UNL     1      -3.398  12.933  20.488  0.00  0.00    +0.000 HD
BRANCH  12  18
ATOM     17  C   UNL     1      -2.310  13.757  22.654  0.00  0.00    +0.000 C 
ATOM     18  C   UNL     1      -3.766  14.086  22.993  0.00  0.00    +0.000 C 
ATOM     19  C   UNL     1      -4.090  15.486  22.454  0.00  0.00    +0.000 C 
ENDBRANCH  12  18
BRANCH  12  20
ATOM     20  C   UNL     1      -5.632  12.517  23.791  0.00  0.00    +0.000 C 
ATOM     21  C   UNL     1      -4.737  12.322  25.020  0.00  0.00    +0.000 C 
ATOM     22  C   UNL     1      -6.907  13.266  24.200  0.00  0.00    +0.000 C 
ENDBRANCH  12  20
ENDBRANCH   1  15
BRANCH   8  23
ATOM     23  C   UNL     1       0.275  10.293  18.620  0.00  0.00    +0.000 C 
ATOM     24  C   UNL     1       1.003  11.628  18.444  0.00  0.00    +0.000 C 
BRANCH  23  25
ATOM     25  C   UNL     1       1.155   9.082  18.854  0.00  0.00    +0.000 A 
ATOM     26  C   UNL     1       1.990   8.542  17.867  0.00  0.00    +0.000 A 
ATOM     27  C   UNL     1       2.847   7.484  18.171  0.00  0.00    +0.000 A 
ATOM     28  F   UNL     1       3.672   7.018  17.226  0.00  0.00    +0.000 F 
ATOM     29  C   UNL     1       2.870   6.920  19.441  0.00  0.00    +0.000 A 
ATOM     30  C   UNL     1       2.003   7.405  20.416  0.00  0.00    +0.000 A 
ATOM     31  C   UNL     1       1.156   8.472  20.117  0.00  0.00    +0.000 A 
ATOM     32  F   UNL     1       0.339   8.927  21.079  0.00  0.00    +0.000 F 
ENDBRANCH  23  25
ENDBRANCH   8  23
TORSDOF 5
ENDMDL
MODEL 8
REMARK VINA RESULT:      -7.3      6.620      9.584
REMARK  Name = 
REMARK  10 active torsions:
REMARK  status: ('A' for Active; 'I' for Inactive)
REMARK    1  A    between atoms: C_1  and  C_2
REMARK    2  A    between atoms: C_2  and  C_3
REMARK    3  A    between atoms: C_2  and  N_4
REMARK    4  A    between atoms: N_4  and  C_28
REMARK    5  A    between atoms: N_7  and  C_8
REMARK    6  A    between atoms: N_15  and  C_16
REMARK    7  A    between atoms: C_16  and  C_17
REMARK    8  A    between atoms: C_16  and  C_18
REMARK    9  A    between atoms: C_28  and  C_29
REMARK   10  A    between atoms: C_28  and  C_30
REMARK                            x       y       z     vdW  Elec       q    Type
REMARK                         _______ _______ _______ _____ _____    ______ ____
ROOT
ATOM      1  C   UNL     1       1.698   4.995  19.750  0.00  0.00    +0.000 A 
ATOM      2  C   UNL     1       0.904   4.228  20.632  0.00  0.00    +0.000 A 
ATOM      3  N   UNL     1       1.118   2.916  20.523  0.00  0.00    +0.000 NA
ATOM      4  N   UNL     1       2.068   2.810  19.564  0.00  0.00    +0.000 N 
ATOM      5  C   UNL     1       2.621   1.647  19.060  0.00  0.00    +0.000 A 
ATOM      6  C   UNL     1       3.582   1.705  18.131  0.00  0.00    +0.000 A 
ATOM      7  C   UNL     1       4.040   3.086  17.706  0.00  0.00    +0.000 A 
ATOM      8  N   UNL     1       5.121   3.127  16.854  0.00  0.00    +0.000 N 
ATOM      9  N   UNL     1       3.465   4.176  18.137  0.00  0.00    +0.000 NA
ATOM     10  C   UNL     1       2.467   4.057  19.078  0.00  0.00    +0.000 A 
ATOM     11  H   UNL     1       5.510   2.242  16.545  0.00  0.00    +0.000 HD
ENDROOT
BRANCH   1  15
ATOM     12  N   UNL     1       1.396   8.664  20.072  0.00  0.00    +0.000 N 
ATOM     13  C   UNL     1       1.280   7.301  20.420  0.00  0.00    +0.000 C 
ATOM     14  O   UNL     1       0.787   6.967  21.502  0.00  0.00    +0.000 OA
ATOM     15  N   UNL     1       1.772   6.371  19.547  0.00  0.00    +0.000 N 
ATOM     16  H   UNL     1       2.511   6.619  18.912  0.00  0.00    +0.000 HD
BRANCH  12  18
ATOM     17  C   UNL     1       2.670   8.555  17.803  0.00  0.00    +0.000 C 
ATOM     18  C   UNL     1       1.687   9.270  18.732  0.00  0.00    +0.000 C 
ATOM     19  C   UNL     1       0.412   9.593  17.941  0.00  0.00    +0.000 C 
ENDBRANCH  12  18
BRANCH  12  20
ATOM     20  C   UNL     1       1.136   9.597  21.216  0.00  0.00    +0.000 C 
ATOM     21  C   UNL     1       1.502  11.030  20.811  0.00  0.00    +0.000 C 
ATOM     22  C   UNL     1      -0.263   9.585  21.845  0.00  0.00    +0.000 C 
ENDBRANCH  12  20
ENDBRANCH   1  15
BRANCH   8  23
ATOM     23  C   UNL     1       5.547   4.253  16.044  0.00  0.00    +0.000 C 
ATOM     24  C   UNL     1       6.222   3.819  14.741  0.00  0.00    +0.000 C 
BRANCH  23  25
ATOM     25  C   UNL     1       6.299   5.270  16.877  0.00  0.00    +0.000 A 
ATOM     26  C   UNL     1       7.150   4.913  17.932  0.00  0.00    +0.000 A 
ATOM     27  C   UNL     1       7.889   5.889  18.601  0.00  0.00    +0.000 A 
ATOM     28  F   UNL     1       8.733   5.520  19.573  0.00  0.00    +0.000 F 
ATOM     29  C   UNL     1       7.777   7.233  18.263  0.00  0.00    +0.000 A 
ATOM     30  C   UNL     1       6.891   7.610  17.258  0.00  0.00    +0.000 A 
ATOM     31  C   UNL     1       6.162   6.633  16.579  0.00  0.00    +0.000 A 
ATOM     32  F   UNL     1       5.325   7.024  15.607  0.00  0.00    +0.000 F 
ENDBRANCH  23  25
ENDBRANCH   8  23
TORSDOF 5
ENDMDL
MODEL 9
REMARK VINA RESULT:      -6.8      1.662      2.801
REMARK  Name = 
REMARK  10 active torsions:
REMARK  status: ('A' for Active; 'I' for Inactive)
REMARK    1  A    between atoms: C_1  and  C_2
REMARK    2  A    between atoms: C_2  and  C_3
REMARK    3  A    between atoms: C_2  and  N_4
REMARK    4  A    between atoms: N_4  and  C_28
REMARK    5  A    between atoms: N_7  and  C_8
REMARK    6  A    between atoms: N_15  and  C_16
REMARK    7  A    between atoms: C_16  and  C_17
REMARK    8  A    between atoms: C_16  and  C_18
REMARK    9  A    between atoms: C_28  and  C_29
REMARK   10  A    between atoms: C_28  and  C_30
REMARK                            x       y       z     vdW  Elec       q    Type
REMARK                         _______ _______ _______ _____ _____    ______ ____
ROOT
ATOM      1  C   UNL     1      -4.801  12.288  19.262  0.00  0.00    +0.000 A 
ATOM      2  C   UNL     1      -5.976  12.439  18.491  0.00  0.00    +0.000 A 
ATOM      3  N   UNL     1      -5.819  12.067  17.219  0.00  0.00    +0.000 NA
ATOM      4  N   UNL     1      -4.530  11.658  17.146  0.00  0.00    +0.000 N 
ATOM      5  C   UNL     1      -3.863  11.197  16.026  0.00  0.00    +0.000 A 
ATOM      6  C   UNL     1      -2.590  10.794  16.119  0.00  0.00    +0.000 A 
ATOM      7  C   UNL     1      -1.958  10.836  17.495  0.00  0.00    +0.000 A 
ATOM      8  N   UNL     1      -0.698  10.291  17.597  0.00  0.00    +0.000 N 
ATOM      9  N   UNL     1      -2.574  11.336  18.532  0.00  0.00    +0.000 NA
ATOM     10  C   UNL     1      -3.876  11.756  18.375  0.00  0.00    +0.000 A 
ATOM     11  H   UNL     1      -0.271   9.934  16.749  0.00  0.00    +0.000 HD
ENDROOT
BRANCH   1  15
ATOM     12  N   UNL     1      -5.076  13.294  22.806  0.00  0.00    +0.000 N 
ATOM     13  C   UNL     1      -5.483  13.028  21.482  0.00  0.00    +0.000 C 
ATOM     14  O   UNL     1      -6.662  13.173  21.144  0.00  0.00    +0.000 OA
ATOM     15  N   UNL     1      -4.545  12.562  20.603  0.00  0.00    +0.000 N 
ATOM     16  H   UNL     1      -3.742  12.062  20.943  0.00  0.00    +0.000 HD
BRANCH  12  18
ATOM     17  C   UNL     1      -3.480  14.360  24.568  0.00  0.00    +0.000 C 
ATOM     18  C   UNL     1      -3.688  13.460  23.348  0.00  0.00    +0.000 C 
ATOM     19  C   UNL     1      -2.990  12.117  23.607  0.00  0.00    +0.000 C 
ENDBRANCH  12  18
BRANCH  12  20
ATOM     20  C   UNL     1      -6.220  13.478  23.758  0.00  0.00    +0.000 C 
ATOM     21  C   UNL     1      -6.887  14.837  23.512  0.00  0.00    +0.000 C 
ATOM     22  C   UNL     1      -7.293  12.383  23.804  0.00  0.00    +0.000 C 
ENDBRANCH  12  20
ENDBRANCH   1  15
BRANCH   8  23
ATOM     23  C   UNL     1       0.252  10.491  18.676  0.00  0.00    +0.000 C 
ATOM     24  C   UNL     1       1.034  11.799  18.537  0.00  0.00    +0.000 C 
BRANCH  23  25
ATOM     25  C   UNL     1       1.079   9.243  18.913  0.00  0.00    +0.000 A 
ATOM     26  C   UNL     1       1.884   8.663  17.923  0.00  0.00    +0.000 A 
ATOM     27  C   UNL     1       2.696   7.570  18.229  0.00  0.00    +0.000 A 
ATOM     28  F   UNL     1       3.495   7.063  17.283  0.00  0.00    +0.000 F 
ATOM     29  C   UNL     1       2.701   7.012  19.503  0.00  0.00    +0.000 A 
ATOM     30  C   UNL     1       1.861   7.539  20.479  0.00  0.00    +0.000 A 
ATOM     31  C   UNL     1       1.060   8.641  20.178  0.00  0.00    +0.000 A 
ATOM     32  F   UNL     1       0.269   9.136  21.142  0.00  0.00    +0.000 F 
ENDBRANCH  23  25
ENDBRANCH   8  23
TORSDOF 5
ENDMDL
