MODEL 1
REMARK VINA RESULT:      -6.9      0.000      0.000
REMARK  Name = 
REMARK  8 active torsions:
REMARK  status: ('A' for Active; 'I' for Inactive)
REMARK    1  A    between atoms: C_1  and  C_2
REMARK    2  A    between atoms: C_2  and  N_3
REMARK    3  A    between atoms: C_11  and  C_13
REMARK    4  A    between atoms: C_13  and  N_14
REMARK    5  A    between atoms: C_13  and  C_15
REMARK    6  A    between atoms: C_15  and  C_16
REMARK    7  A    between atoms: C_15  and  C_17
REMARK    8  A    between atoms: C_17  and  C_18
REMARK                            x       y       z     vdW  Elec       q    Type
REMARK                         _______ _______ _______ _____ _____    ______ ____
ROOT
ATOM      1  N   UNL     1       7.436   7.773  17.325  0.00  0.00    +0.000 N 
ATOM      2  C   UNL     1       7.059   6.519  17.700  0.00  0.00    +0.000 C 
ATOM      3  O   UNL     1       7.539   6.053  18.710  0.00  0.00    +0.000 OA
ATOM      4  N   UNL     1       6.185   5.790  16.941  0.00  0.00    +0.000 N 
ATOM      5  C   UNL     1       5.685   6.139  15.638  0.00  0.00    +0.000 C 
ATOM      6  C   UNL     1       5.434   4.772  14.990  0.00  0.00    +0.000 C 
ATOM      7  C   UNL     1       5.275   3.797  16.173  0.00  0.00    +0.000 C 
ATOM      8  N   UNL     1       5.648   4.567  17.328  0.00  0.00    +0.000 N 
ATOM      9  C   UNL     1       5.217   4.308  18.622  0.00  0.00    +0.000 C 
ATOM     10  O   UNL     1       5.476   5.069  19.530  0.00  0.00    +0.000 OA
ATOM     11  H   UNL     1       7.023   8.214  16.490  0.00  0.00    +0.000 HD
ENDROOT
BRANCH   1  13
ATOM     12  C   UNL     1       8.227  10.009  17.925  0.00  0.00    +0.000 C 
ATOM     13  C   UNL     1       8.352   8.516  18.157  0.00  0.00    +0.000 C 
ENDBRANCH   1  13
BRANCH   9  14
ATOM     14  C   UNL     1       4.274   3.125  18.973  0.00  0.00    +0.000 C 
BRANCH  14  15
ATOM     15  N   UNL     1       4.980   2.198  19.866  0.00  0.00    +0.000 NA
ATOM     16  H   UNL     1       5.969   2.058  19.556  0.00  0.00    +0.000 HD
ATOM     17  H   UNL     1       4.494   1.278  19.950  0.00  0.00    +0.000 HD
ENDBRANCH  14  15
BRANCH  14  18
ATOM     18  C   UNL     1       2.920   3.532  19.624  0.00  0.00    +0.000 C 
ATOM     19  C   UNL     1       1.725   3.179  18.710  0.00  0.00    +0.000 C 
BRANCH  18  20
ATOM     20  C   UNL     1       2.774   2.785  20.990  0.00  0.00    +0.000 C 
ATOM     21  C   UNL     1       1.352   2.786  21.554  0.00  0.00    +0.000 C 
ENDBRANCH  18  20
ENDBRANCH  14  18
ENDBRANCH   9  14
TORSDOF 5
ENDMDL
MODEL 2
REMARK VINA RESULT:      -6.5      2.399      3.625
REMARK  Name = 
REMARK  8 active torsions:
REMARK  status: ('A' for Active; 'I' for Inactive)
REMARK    1  A    between atoms: C_1  and  C_2
REMARK    2  A    between atoms: C_2  and  N_3
REMARK    3  A    between atoms: C_11  and  C_13
REMARK    4  A    between atoms: C_13  and  N_14
REMARK    5  A    between atoms: C_13  and  C_15
REMARK    6  A    between atoms: C_15  and  C_16
REMARK    7  A    between atoms: C_15  and  C_17
REMARK    8  A    between atoms: C_17  and  C_18
REMARK                            x       y       z     vdW  Elec       q    Type
REMARK                         _______ _______ _______ _____ _____    ______ ____
ROOT
ATOM      1  N   UNL     1       7.265   4.760  14.887  0.00  0.00    +0.000 N 
ATOM      2  C   UNL     1       6.272   5.084  15.762  0.00  0.00    +0.000 C 
ATOM      3  O   UNL     1       5.228   5.506  15.313  0.00  0.00    +0.000 OA
ATOM      4  N   UNL     1       6.456   4.968  17.112  0.00  0.00    +0.000 N 
ATOM      5  C   UNL     1       7.690   4.662  17.784  0.00  0.00    +0.000 C 
ATOM      6  C   UNL     1       7.533   5.376  19.132  0.00  0.00    +0.000 C 
ATOM      7  C   UNL     1       6.012   5.538  19.319  0.00  0.00    +0.000 C 
ATOM      8  N   UNL     1       5.450   5.145  18.055  0.00  0.00    +0.000 N 
ATOM      9  C   UNL     1       4.160   4.662  17.881  0.00  0.00    +0.000 C 
ATOM     10  O   UNL     1       3.792   4.238  16.806  0.00  0.00    +0.000 OA
ATOM     11  H   UNL     1       8.154   4.367  15.231  0.00  0.00    +0.000 HD
ENDROOT
BRANCH   1  13
ATOM     12  C   UNL     1       6.376   3.640  12.903  0.00  0.00    +0.000 C 
ATOM     13  C   UNL     1       7.030   4.885  13.470  0.00  0.00    +0.000 C 
ENDBRANCH   1  13
BRANCH   9  14
ATOM     14  C   UNL     1       3.156   4.502  19.056  0.00  0.00    +0.000 C 
BRANCH  14  15
ATOM     15  N   UNL     1       2.483   5.785  19.290  0.00  0.00    +0.000 NA
ATOM     16  H   UNL     1       1.798   5.711  20.077  0.00  0.00    +0.000 HD
ATOM     17  H   UNL     1       2.011   6.150  18.433  0.00  0.00    +0.000 HD
ENDBRANCH  14  15
BRANCH  14  18
ATOM     18  C   UNL     1       2.086   3.389  18.861  0.00  0.00    +0.000 C 
ATOM     19  C   UNL     1       2.715   1.980  18.936  0.00  0.00    +0.000 C 
BRANCH  18  20
ATOM     20  C   UNL     1       0.998   3.538  19.974  0.00  0.00    +0.000 C 
ATOM     21  C   UNL     1       1.376   2.894  21.309  0.00  0.00    +0.000 C 
ENDBRANCH  18  20
ENDBRANCH  14  18
ENDBRANCH   9  14
TORSDOF 5
ENDMDL
MODEL 3
REMARK VINA RESULT:      -6.4      0.690      1.214
REMARK  Name = 
REMARK  8 active torsions:
REMARK  status: ('A' for Active; 'I' for Inactive)
REMARK    1  A    between atoms: C_1  and  C_2
REMARK    2  A    between atoms: C_2  and  N_3
REMARK    3  A    between atoms: C_11  and  C_13
REMARK    4  A    between atoms: C_13  and  N_14
REMARK    5  A    between atoms: C_13  and  C_15
REMARK    6  A    between atoms: C_15  and  C_16
REMARK    7  A    between atoms: C_15  and  C_17
REMARK    8  A    between atoms: C_17  and  C_18
REMARK                            x       y       z     vdW  Elec       q    Type
REMARK                         _______ _______ _______ _____ _____    ______ ____
ROOT
ATOM      1  N   UNL     1       7.456   7.691  17.515  0.00  0.00    +0.000 N 
ATOM      2  C   UNL     1       7.100   6.412  17.819  0.00  0.00    +0.000 C 
ATOM      3  O   UNL     1       7.656   5.866  18.746  0.00  0.00    +0.000 OA
ATOM      4  N   UNL     1       6.161   5.747  17.078  0.00  0.00    +0.000 N 
ATOM      5  C   UNL     1       5.560   6.200  15.853  0.00  0.00    +0.000 C 
ATOM      6  C   UNL     1       5.245   4.890  15.121  0.00  0.00    +0.000 C 
ATOM      7  C   UNL     1       5.174   3.824  16.231  0.00  0.00    +0.000 C 
ATOM      8  N   UNL     1       5.646   4.499  17.409  0.00  0.00    +0.000 N 
ATOM      9  C   UNL     1       5.320   4.138  18.710  0.00  0.00    +0.000 C 
ATOM     10  O   UNL     1       5.659   4.823  19.651  0.00  0.00    +0.000 OA
ATOM     11  H   UNL     1       6.980   8.198  16.754  0.00  0.00    +0.000 HD
ENDROOT
BRANCH   1  13
ATOM     12  C   UNL     1       8.441   9.859  18.075  0.00  0.00    +0.000 C 
ATOM     13  C   UNL     1       8.442   8.363  18.326  0.00  0.00    +0.000 C 
ENDBRANCH   1  13
BRANCH   9  14
ATOM     14  C   UNL     1       4.399   2.932  19.042  0.00  0.00    +0.000 C 
BRANCH  14  15
ATOM     15  N   UNL     1       5.002   2.153  20.130  0.00  0.00    +0.000 NA
ATOM     16  H   UNL     1       4.669   1.162  20.111  0.00  0.00    +0.000 HD
ATOM     17  H   UNL     1       4.825   2.576  21.068  0.00  0.00    +0.000 HD
ENDBRANCH  14  15
BRANCH  14  18
ATOM     18  C   UNL     1       2.938   3.305  19.427  0.00  0.00    +0.000 C 
ATOM     19  C   UNL     1       2.717   3.223  20.954  0.00  0.00    +0.000 C 
BRANCH  18  20
ATOM     20  C   UNL     1       2.644   4.759  18.932  0.00  0.00    +0.000 C 
ATOM     21  C   UNL     1       2.167   5.710  20.031  0.00  0.00    +0.000 C 
ENDBRANCH  18  20
ENDBRANCH  14  18
ENDBRANCH   9  14
TORSDOF 5
ENDMDL
MODEL 4
REMARK VINA RESULT:      -6.3      2.448      3.831
REMARK  Name = 
REMARK  8 active torsions:
REMARK  status: ('A' for Active; 'I' for Inactive)
REMARK    1  A    between atoms: C_1  and  C_2
REMARK    2  A    between atoms: C_2  and  N_3
REMARK    3  A    between atoms: C_11  and  C_13
REMARK    4  A    between atoms: C_13  and  N_14
REMARK    5  A    between atoms: C_13  and  C_15
REMARK    6  A    between atoms: C_15  and  C_16
REMARK    7  A    between atoms: C_15  and  C_17
REMARK    8  A    between atoms: C_17  and  C_18
REMARK                            x       y       z     vdW  Elec       q    Type
REMARK                         _______ _______ _______ _____ _____    ______ ____
ROOT
ATOM      1  N   UNL     1       6.676   3.831  14.464  0.00  0.00    +0.000 N 
ATOM      2  C   UNL     1       5.826   4.320  15.409  0.00  0.00    +0.000 C 
ATOM      3  O   UNL     1       4.692   4.589  15.076  0.00  0.00    +0.000 OA
ATOM      4  N   UNL     1       6.246   4.531  16.694  0.00  0.00    +0.000 N 
ATOM      5  C   UNL     1       7.596   4.432  17.180  0.00  0.00    +0.000 C 
ATOM      6  C   UNL     1       7.618   5.439  18.336  0.00  0.00    +0.000 C 
ATOM      7  C   UNL     1       6.144   5.590  18.757  0.00  0.00    +0.000 C 
ATOM      8  N   UNL     1       5.405   4.892  17.740  0.00  0.00    +0.000 N 
ATOM      9  C   UNL     1       4.144   4.340  17.920  0.00  0.00    +0.000 C 
ATOM     10  O   UNL     1       3.630   3.664  17.054  0.00  0.00    +0.000 OA
ATOM     11  H   UNL     1       7.637   3.559  14.719  0.00  0.00    +0.000 HD
ENDROOT
BRANCH   1  13
ATOM     12  C   UNL     1       7.105   4.249  12.092  0.00  0.00    +0.000 C 
ATOM     13  C   UNL     1       6.194   3.610  13.123  0.00  0.00    +0.000 C 
ENDBRANCH   1  13
BRANCH   9  14
ATOM     14  C   UNL     1       3.370   4.430  19.264  0.00  0.00    +0.000 C 
BRANCH  14  15
ATOM     15  N   UNL     1       2.083   5.096  19.034  0.00  0.00    +0.000 NA
ATOM     16  H   UNL     1       1.941   5.295  18.017  0.00  0.00    +0.000 HD
ATOM     17  H   UNL     1       1.983   5.973  19.591  0.00  0.00    +0.000 HD
ENDBRANCH  14  15
BRANCH  14  18
ATOM     18  C   UNL     1       3.122   3.066  19.972  0.00  0.00    +0.000 C 
ATOM     19  C   UNL     1       4.426   2.246  20.094  0.00  0.00    +0.000 C 
BRANCH  18  20
ATOM     20  C   UNL     1       2.539   3.339  21.397  0.00  0.00    +0.000 C 
ATOM     21  C   UNL     1       1.240   2.588  21.696  0.00  0.00    +0.000 C 
ENDBRANCH  18  20
ENDBRANCH  14  18
ENDBRANCH   9  14
TORSDOF 5
ENDMDL
MODEL 5
REMARK VINA RESULT:      -6.2      3.686      4.489
REMARK  Name = 
REMARK  8 active torsions:
REMARK  status: ('A' for Active; 'I' for Inactive)
REMARK    1  A    between atoms: C_1  and  C_2
REMARK    2  A    between atoms: C_2  and  N_3
REMARK    3  A    between atoms: C_11  and  C_13
REMARK    4  A    between atoms: C_13  and  N_14
REMARK    5  A    between atoms: C_13  and  C_15
REMARK    6  A    between atoms: C_15  and  C_16
REMARK    7  A    between atoms: C_15  and  C_17
REMARK    8  A    between atoms: C_17  and  C_18
REMARK                            x       y       z     vdW  Elec       q    Type
REMARK                         _______ _______ _______ _____ _____    ______ ____
ROOT
ATOM      1  N   UNL     1       1.848   8.706  18.634  0.00  0.00    +0.000 N 
ATOM      2  C   UNL     1       2.219   7.656  19.418  0.00  0.00    +0.000 C 
ATOM      3  O   UNL     1       1.818   7.623  20.561  0.00  0.00    +0.000 OA
ATOM      4  N   UNL     1       3.047   6.677  18.940  0.00  0.00    +0.000 N 
ATOM      5  C   UNL     1       3.739   6.683  17.679  0.00  0.00    +0.000 C 
ATOM      6  C   UNL     1       4.997   5.857  17.976  0.00  0.00    +0.000 C 
ATOM      7  C   UNL     1       4.624   4.993  19.196  0.00  0.00    +0.000 C 
ATOM      8  N   UNL     1       3.355   5.510  19.629  0.00  0.00    +0.000 N 
ATOM      9  C   UNL     1       2.411   4.786  20.346  0.00  0.00    +0.000 C 
ATOM     10  O   UNL     1       1.314   5.247  20.575  0.00  0.00    +0.000 OA
ATOM     11  H   UNL     1       2.143   8.749  17.648  0.00  0.00    +0.000 HD
ENDROOT
BRANCH   1  13
ATOM     12  C   UNL     1      -0.167  10.027  18.210  0.00  0.00    +0.000 C 
ATOM     13  C   UNL     1       0.964   9.712  19.170  0.00  0.00    +0.000 C 
ENDBRANCH   1  13
BRANCH   9  14
ATOM     14  C   UNL     1       2.635   3.311  20.779  0.00  0.00    +0.000 C 
BRANCH  14  15
ATOM     15  N   UNL     1       2.119   3.127  22.141  0.00  0.00    +0.000 NA
ATOM     16  H   UNL     1       2.768   3.546  22.847  0.00  0.00    +0.000 HD
ATOM     17  H   UNL     1       1.938   2.124  22.367  0.00  0.00    +0.000 HD
ENDBRANCH  14  15
BRANCH  14  18
ATOM     18  C   UNL     1       1.996   2.246  19.841  0.00  0.00    +0.000 C 
ATOM     19  C   UNL     1       0.671   2.753  19.229  0.00  0.00    +0.000 C 
BRANCH  18  20
ATOM     20  C   UNL     1       3.008   1.911  18.697  0.00  0.00    +0.000 C 
ATOM     21  C   UNL     1       2.667   2.554  17.352  0.00  0.00    +0.000 C 
ENDBRANCH  18  20
ENDBRANCH  14  18
ENDBRANCH   9  14
TORSDOF 5
ENDMDL
MODEL 6
REMARK VINA RESULT:      -6.2      2.252      3.306
REMARK  Name = 
REMARK  8 active torsions:
REMARK  status: ('A' for Active; 'I' for Inactive)
REMARK    1  A    between atoms: C_1  and  C_2
REMARK    2  A    between atoms: C_2  and  N_3
REMARK    3  A    between atoms: C_11  and  C_13
REMARK    4  A    between atoms: C_13  and  N_14
REMARK    5  A    between atoms: C_13  and  C_15
REMARK    6  A    between atoms: C_15  and  C_16
REMARK    7  A    between atoms: C_15  and  C_17
REMARK    8  A    between atoms: C_17  and  C_18
REMARK                            x       y       z     vdW  Elec       q    Type
REMARK                         _______ _______ _______ _____ _____    ______ ____
ROOT
ATOM      1  N   UNL     1       7.296   4.681  14.985  0.00  0.00    +0.000 N 
ATOM      2  C   UNL     1       6.280   4.682  15.893  0.00  0.00    +0.000 C 
ATOM      3  O   UNL     1       5.141   4.666  15.479  0.00  0.00    +0.000 OA
ATOM      4  N   UNL     1       6.534   4.732  17.236  0.00  0.00    +0.000 N 
ATOM      5  C   UNL     1       7.815   4.939  17.857  0.00  0.00    +0.000 C 
ATOM      6  C   UNL     1       7.449   5.638  19.172  0.00  0.00    +0.000 C 
ATOM      7  C   UNL     1       5.980   5.251  19.430  0.00  0.00    +0.000 C 
ATOM      8  N   UNL     1       5.562   4.596  18.220  0.00  0.00    +0.000 N 
ATOM      9  C   UNL     1       4.532   3.669  18.140  0.00  0.00    +0.000 C 
ATOM     10  O   UNL     1       4.312   3.069  17.109  0.00  0.00    +0.000 OA
ATOM     11  H   UNL     1       8.276   4.661  15.302  0.00  0.00    +0.000 HD
ENDROOT
BRANCH   1  13
ATOM     12  C   UNL     1       7.988   5.404  12.753  0.00  0.00    +0.000 C 
ATOM     13  C   UNL     1       6.988   4.616  13.577  0.00  0.00    +0.000 C 
ENDBRANCH   1  13
BRANCH   9  14
ATOM     14  C   UNL     1       3.692   3.236  19.373  0.00  0.00    +0.000 C 
BRANCH  14  15
ATOM     15  N   UNL     1       4.532   2.434  20.269  0.00  0.00    +0.000 NA
ATOM     16  H   UNL     1       5.188   3.041  20.813  0.00  0.00    +0.000 HD
ATOM     17  H   UNL     1       5.064   1.693  19.761  0.00  0.00    +0.000 HD
ENDBRANCH  14  15
BRANCH  14  18
ATOM     18  C   UNL     1       3.055   4.406  20.178  0.00  0.00    +0.000 C 
ATOM     19  C   UNL     1       2.192   5.312  19.272  0.00  0.00    +0.000 C 
BRANCH  18  20
ATOM     20  C   UNL     1       2.169   3.807  21.319  0.00  0.00    +0.000 C 
ATOM     21  C   UNL     1       0.986   2.975  20.821  0.00  0.00    +0.000 C 
ENDBRANCH  18  20
ENDBRANCH  14  18
ENDBRANCH   9  14
TORSDOF 5
ENDMDL
MODEL 7
REMARK VINA RESULT:      -6.1      3.145      5.505
REMARK  Name = 
REMARK  8 active torsions:
REMARK  status: ('A' for Active; 'I' for Inactive)
REMARK    1  A    between atoms: C_1  and  C_2
REMARK    2  A    between atoms: C_2  and  N_3
REMARK    3  A    between atoms: C_11  and  C_13
REMARK    4  A    between atoms: C_13  and  N_14
REMARK    5  A    between atoms: C_13  and  C_15
REMARK    6  A    between atoms: C_15  and  C_16
REMARK    7  A    between atoms: C_15  and  C_17
REMARK    8  A    between atoms: C_17  and  C_18
REMARK                            x       y       z     vdW  Elec       q    Type
REMARK                         _______ _______ _______ _____ _____    ______ ____
ROOT
ATOM      1  N   UNL     1       1.906   7.246  20.639  0.00  0.00    +0.000 N 
ATOM      2  C   UNL     1       2.446   6.901  19.437  0.00  0.00    +0.000 C 
ATOM      3  O   UNL     1       2.291   7.655  18.501  0.00  0.00    +0.000 OA
ATOM      4  N   UNL     1       3.121   5.722  19.279  0.00  0.00    +0.000 N 
ATOM      5  C   UNL     1       3.222   4.659  20.243  0.00  0.00    +0.000 C 
ATOM      6  C   UNL     1       3.368   3.412  19.362  0.00  0.00    +0.000 C 
ATOM      7  C   UNL     1       3.904   3.938  18.017  0.00  0.00    +0.000 C 
ATOM      8  N   UNL     1       3.816   5.368  18.129  0.00  0.00    +0.000 N 
ATOM      9  C   UNL     1       4.601   6.265  17.415  0.00  0.00    +0.000 C 
ATOM     10  O   UNL     1       4.555   7.454  17.646  0.00  0.00    +0.000 OA
ATOM     11  H   UNL     1       2.047   6.645  21.465  0.00  0.00    +0.000 HD
ENDROOT
BRANCH   1  13
ATOM     12  C   UNL     1       1.291   9.038  22.186  0.00  0.00    +0.000 C 
ATOM     13  C   UNL     1       1.211   8.503  20.770  0.00  0.00    +0.000 C 
ENDBRANCH   1  13
BRANCH   9  14
ATOM     14  C   UNL     1       5.673   5.811  16.387  0.00  0.00    +0.000 C 
BRANCH  14  15
ATOM     15  N   UNL     1       5.488   6.561  15.139  0.00  0.00    +0.000 NA
ATOM     16  H   UNL     1       5.421   5.915  14.319  0.00  0.00    +0.000 HD
ATOM     17  H   UNL     1       6.242   7.266  14.982  0.00  0.00    +0.000 HD
ENDBRANCH  14  15
BRANCH  14  18
ATOM     18  C   UNL     1       7.147   5.962  16.863  0.00  0.00    +0.000 C 
ATOM     19  C   UNL     1       7.449   7.408  17.318  0.00  0.00    +0.000 C 
BRANCH  18  20
ATOM     20  C   UNL     1       7.395   4.976  18.050  0.00  0.00    +0.000 C 
ATOM     21  C   UNL     1       7.640   5.663  19.395  0.00  0.00    +0.000 C 
ENDBRANCH  18  20
ENDBRANCH  14  18
ENDBRANCH   9  14
TORSDOF 5
ENDMDL
MODEL 8
REMARK VINA RESULT:      -6.1      5.438      6.204
REMARK  Name = 
REMARK  8 active torsions:
REMARK  status: ('A' for Active; 'I' for Inactive)
REMARK    1  A    between atoms: C_1  and  C_2
REMARK    2  A    between atoms: C_2  and  N_3
REMARK    3  A    between atoms: C_11  and  C_13
REMARK    4  A    between atoms: C_13  and  N_14
REMARK    5  A    between atoms: C_13  and  C_15
REMARK    6  A    between atoms: C_15  and  C_16
REMARK    7  A    between atoms: C_15  and  C_17
REMARK    8  A    between atoms: C_17  and  C_18
REMARK                            x       y       z     vdW  Elec       q    Type
REMARK                         _______ _______ _______ _____ _____    ______ ____
ROOT
ATOM      1  N   UNL     1      -0.239  10.157  21.508  0.00  0.00    +0.000 N 
ATOM      2  C   UNL     1       0.748   9.282  21.168  0.00  0.00    +0.000 C 
ATOM      3  O   UNL     1       1.338   8.708  22.058  0.00  0.00    +0.000 OA
ATOM      4  N   UNL     1       1.089   9.078  19.859  0.00  0.00    +0.000 N 
ATOM      5  C   UNL     1       0.607   9.819  18.724  0.00  0.00    +0.000 C 
ATOM      6  C   UNL     1       1.778   9.733  17.737  0.00  0.00    +0.000 C 
ATOM      7  C   UNL     1       2.573   8.487  18.174  0.00  0.00    +0.000 C 
ATOM      8  N   UNL     1       1.983   8.105  19.428  0.00  0.00    +0.000 N 
ATOM      9  C   UNL     1       2.010   6.820  19.953  0.00  0.00    +0.000 C 
ATOM     10  O   UNL     1       1.390   6.544  20.958  0.00  0.00    +0.000 OA
ATOM     11  H   UNL     1      -0.783  10.638  20.777  0.00  0.00    +0.000 HD
ENDROOT
BRANCH   1  13
ATOM     12  C   UNL     1      -1.432  11.573  23.107  0.00  0.00    +0.000 C 
ATOM     13  C   UNL     1      -0.578  10.338  22.898  0.00  0.00    +0.000 C 
ENDBRANCH   1  13
BRANCH   9  14
ATOM     14  C   UNL     1       2.708   5.632  19.235  0.00  0.00    +0.000 C 
BRANCH  14  15
ATOM     15  N   UNL     1       4.037   5.430  19.822  0.00  0.00    +0.000 NA
ATOM     16  H   UNL     1       4.268   6.193  20.499  0.00  0.00    +0.000 HD
ATOM     17  H   UNL     1       4.785   5.351  19.098  0.00  0.00    +0.000 HD
ENDBRANCH  14  15
BRANCH  14  18
ATOM     18  C   UNL     1       1.922   4.289  19.270  0.00  0.00    +0.000 C 
ATOM     19  C   UNL     1       1.867   3.629  17.873  0.00  0.00    +0.000 C 
BRANCH  18  20
ATOM     20  C   UNL     1       2.624   3.322  20.279  0.00  0.00    +0.000 C 
ATOM     21  C   UNL     1       1.796   3.010  21.526  0.00  0.00    +0.000 C 
ENDBRANCH  18  20
ENDBRANCH  14  18
ENDBRANCH   9  14
TORSDOF 5
ENDMDL
MODEL 9
REMARK VINA RESULT:      -6.1      3.286      5.595
REMARK  Name = 
REMARK  8 active torsions:
REMARK  status: ('A' for Active; 'I' for Inactive)
REMARK    1  A    between atoms: C_1  and  C_2
REMARK    2  A    between atoms: C_2  and  N_3
REMARK    3  A    between atoms: C_11  and  C_13
REMARK    4  A    between atoms: C_13  and  N_14
REMARK    5  A    between atoms: C_13  and  C_15
REMARK    6  A    between atoms: C_15  and  C_16
REMARK    7  A    between atoms: C_15  and  C_17
REMARK    8  A    between atoms: C_17  and  C_18
REMARK                            x       y       z     vdW  Elec       q    Type
REMARK                         _______ _______ _______ _____ _____    ______ ____
ROOT
ATOM      1  N   UNL     1       1.667   7.259  20.982  0.00  0.00    +0.000 N 
ATOM      2  C   UNL     1       2.068   6.946  19.718  0.00  0.00    +0.000 C 
ATOM      3  O   UNL     1       2.096   7.831  18.890  0.00  0.00    +0.000 OA
ATOM      4  N   UNL     1       2.401   5.663  19.381  0.00  0.00    +0.000 N 
ATOM      5  C   UNL     1       2.239   4.493  20.203  0.00  0.00    +0.000 C 
ATOM      6  C   UNL     1       2.028   3.378  19.171  0.00  0.00    +0.000 C 
ATOM      7  C   UNL     1       2.653   3.918  17.871  0.00  0.00    +0.000 C 
ATOM      8  N   UNL     1       2.951   5.295  18.159  0.00  0.00    +0.000 N 
ATOM      9  C   UNL     1       3.928   6.042  17.515  0.00  0.00    +0.000 C 
ATOM     10  O   UNL     1       4.205   7.161  17.890  0.00  0.00    +0.000 OA
ATOM     11  H   UNL     1       1.662   6.539  21.720  0.00  0.00    +0.000 HD
ENDROOT
BRANCH   1  13
ATOM     12  C   UNL     1      -0.137   8.775  21.640  0.00  0.00    +0.000 C 
ATOM     13  C   UNL     1       1.334   8.625  21.303  0.00  0.00    +0.000 C 
ENDBRANCH   1  13
BRANCH   9  14
ATOM     14  C   UNL     1       4.817   5.464  16.380  0.00  0.00    +0.000 C 
BRANCH  14  15
ATOM     15  N   UNL     1       5.379   6.572  15.599  0.00  0.00    +0.000 NA
ATOM     16  H   UNL     1       6.226   6.265  15.068  0.00  0.00    +0.000 HD
ATOM     17  H   UNL     1       5.606   7.402  16.191  0.00  0.00    +0.000 HD
ENDBRANCH  14  15
BRANCH  14  18
ATOM     18  C   UNL     1       5.972   4.535  16.856  0.00  0.00    +0.000 C 
ATOM     19  C   UNL     1       7.209   4.654  15.938  0.00  0.00    +0.000 C 
BRANCH  18  20
ATOM     20  C   UNL     1       6.363   4.929  18.318  0.00  0.00    +0.000 C 
ATOM     21  C   UNL     1       7.604   5.819  18.415  0.00  0.00    +0.000 C 
ENDBRANCH  18  20
ENDBRANCH  14  18
ENDBRANCH   9  14
TORSDOF 5
ENDMDL
