MODEL 1
REMARK VINA RESULT:      -6.7      0.000      0.000
REMARK  Name = 
REMARK  3 active torsions:
REMARK  status: ('A' for Active; 'I' for Inactive)
REMARK    1  A    between atoms: C_2  and  C_4
REMARK    2  A    between atoms: C_11  and  C_12
REMARK    3  A    between atoms: N_16  and  C_17
REMARK                            x       y       z     vdW  Elec       q    Type
REMARK                         _______ _______ _______ _____ _____    ______ ____
ROOT
ATOM      1  C   UNL     1       1.233   8.050  20.581  0.00  0.00    +0.000 A 
ATOM      2  C   UNL     1       1.413   9.028  19.626  0.00  0.00    +0.000 A 
ATOM      3  C   UNL     1       2.235   8.725  18.561  0.00  0.00    +0.000 A 
ATOM      4 CL   UNL     1       2.479   9.872  17.318  0.00  0.00    +0.000 Cl
ATOM      5  C   UNL     1       2.843   7.458  18.455  0.00  0.00    +0.000 A 
ATOM      6  C   UNL     1       3.701   6.786  17.549  0.00  0.00    +0.000 A 
ATOM      7 CL   UNL     1       4.377   7.491  16.148  0.00  0.00    +0.000 Cl
ATOM      8  C   UNL     1       3.842   5.465  17.957  0.00  0.00    +0.000 A 
ATOM      9  N   UNL     1       3.220   5.344  19.201  0.00  0.00    +0.000 N 
ATOM     10  C   UNL     1       2.572   6.556  19.480  0.00  0.00    +0.000 A 
ATOM     11  N   UNL     1       1.792   6.799  20.570  0.00  0.00    +0.000 NA
ENDROOT
BRANCH   9  12
ATOM     12  C   UNL     1       3.145   4.223  20.159  0.00  0.00    +0.000 C 
ATOM     13  C   UNL     1       3.245   2.827  19.512  0.00  0.00    +0.000 C 
ATOM     14  C   UNL     1       1.908   2.355  18.949  0.00  0.00    +0.000 C 
ATOM     15  C   UNL     1       0.767   2.477  19.961  0.00  0.00    +0.000 C 
ATOM     16  N   UNL     1       0.731   3.756  20.656  0.00  0.00    +0.000 NA
ATOM     17  C   UNL     1       2.004   4.213  21.194  0.00  0.00    +0.000 C 
ATOM     18  H   UNL     1      -0.000   3.769  21.368  0.00  0.00    +0.000 HD
ENDBRANCH   9  12
BRANCH   1  20
ATOM     19  N   UNL     1       0.841   9.190  22.703  0.00  0.00    +0.000 N 
ATOM     20  C   UNL     1       0.325   8.389  21.729  0.00  0.00    +0.000 C 
ATOM     21  O   UNL     1      -0.827   7.971  21.798  0.00  0.00    +0.000 OA
ATOM     22  H   UNL     1       0.258   9.434  23.490  0.00  0.00    +0.000 HD
ATOM     23  H   UNL     1       1.792   9.534  22.638  0.00  0.00    +0.000 HD
ENDBRANCH   1  20
BRANCH   8  24
ATOM     24  C   UNL     1       4.511   4.387  17.165  0.00  0.00    +0.000 C 
ATOM     25  F   UNL     1       5.204   4.877  16.094  0.00  0.00    +0.000 F 
ATOM     26  F   UNL     1       5.430   3.704  17.879  0.00  0.00    +0.000 F 
ATOM     27  F   UNL     1       3.617   3.533  16.617  0.00  0.00    +0.000 F 
ENDBRANCH   8  24
TORSDOF 3
ENDMDL
MODEL 2
REMARK VINA RESULT:      -6.7      2.299      2.992
REMARK  Name = 
REMARK  3 active torsions:
REMARK  status: ('A' for Active; 'I' for Inactive)
REMARK    1  A    between atoms: C_2  and  C_4
REMARK    2  A    between atoms: C_11  and  C_12
REMARK    3  A    between atoms: N_16  and  C_17
REMARK                            x       y       z     vdW  Elec       q    Type
REMARK                         _______ _______ _______ _____ _____    ______ ____
ROOT
ATOM      1  C   UNL     1       2.573   7.968  18.112  0.00  0.00    +0.000 A 
ATOM      2  C   UNL     1       3.733   8.143  17.388  0.00  0.00    +0.000 A 
ATOM      3  C   UNL     1       4.463   7.013  17.084  0.00  0.00    +0.000 A 
ATOM      4 CL   UNL     1       5.894   7.145  16.160  0.00  0.00    +0.000 Cl
ATOM      5  C   UNL     1       4.019   5.737  17.484  0.00  0.00    +0.000 A 
ATOM      6  C   UNL     1       4.456   4.395  17.358  0.00  0.00    +0.000 A 
ATOM      7 CL   UNL     1       5.915   3.915  16.613  0.00  0.00    +0.000 Cl
ATOM      8  C   UNL     1       3.480   3.552  17.880  0.00  0.00    +0.000 A 
ATOM      9  N   UNL     1       2.513   4.358  18.484  0.00  0.00    +0.000 N 
ATOM     10  C   UNL     1       2.826   5.695  18.200  0.00  0.00    +0.000 A 
ATOM     11  N   UNL     1       2.071   6.772  18.555  0.00  0.00    +0.000 NA
ENDROOT
BRANCH   9  12
ATOM     12  C   UNL     1       1.319   4.027  19.287  0.00  0.00    +0.000 C 
ATOM     13  C   UNL     1       1.273   4.713  20.668  0.00  0.00    +0.000 C 
ATOM     14  C   UNL     1       2.105   3.970  21.708  0.00  0.00    +0.000 C 
ATOM     15  C   UNL     1       1.785   2.475  21.760  0.00  0.00    +0.000 C 
ATOM     16  N   UNL     1       1.720   1.841  20.451  0.00  0.00    +0.000 NA
ATOM     17  C   UNL     1       0.929   2.546  19.453  0.00  0.00    +0.000 C 
ATOM     18  H   UNL     1       1.437   0.864  20.528  0.00  0.00    +0.000 HD
ENDBRANCH   9  12
BRANCH   1  20
ATOM     19  N   UNL     1       1.938  10.264  17.581  0.00  0.00    +0.000 N 
ATOM     20  C   UNL     1       1.781   9.206  18.425  0.00  0.00    +0.000 C 
ATOM     21  O   UNL     1       1.025   9.273  19.391  0.00  0.00    +0.000 OA
ATOM     22  H   UNL     1       1.423  11.112  17.765  0.00  0.00    +0.000 HD
ATOM     23  H   UNL     1       2.560  10.200  16.785  0.00  0.00    +0.000 HD
ENDBRANCH   1  20
BRANCH   8  24
ATOM     24  C   UNL     1       3.480   2.061  17.763  0.00  0.00    +0.000 C 
ATOM     25  F   UNL     1       4.389   1.607  16.848  0.00  0.00    +0.000 F 
ATOM     26  F   UNL     1       3.819   1.444  18.913  0.00  0.00    +0.000 F 
ATOM     27  F   UNL     1       2.295   1.589  17.313  0.00  0.00    +0.000 F 
ENDBRANCH   8  24
TORSDOF 3
ENDMDL
MODEL 3
REMARK VINA RESULT:      -6.6      6.977      8.856
REMARK  Name = 
REMARK  3 active torsions:
REMARK  status: ('A' for Active; 'I' for Inactive)
REMARK    1  A    between atoms: C_2  and  C_4
REMARK    2  A    between atoms: C_11  and  C_12
REMARK    3  A    between atoms: N_16  and  C_17
REMARK                            x       y       z     vdW  Elec       q    Type
REMARK                         _______ _______ _______ _____ _____    ______ ____
ROOT
ATOM      1  C   UNL     1      -3.324  13.107  22.133  0.00  0.00    +0.000 A 
ATOM      2  C   UNL     1      -4.700  13.021  22.130  0.00  0.00    +0.000 A 
ATOM      3  C   UNL     1      -5.303  12.588  20.968  0.00  0.00    +0.000 A 
ATOM      4 CL   UNL     1      -7.002  12.422  20.897  0.00  0.00    +0.000 Cl
ATOM      5  C   UNL     1      -4.531  12.232  19.843  0.00  0.00    +0.000 A 
ATOM      6  C   UNL     1      -4.762  11.748  18.531  0.00  0.00    +0.000 A 
ATOM      7 CL   UNL     1      -6.306  11.493  17.849  0.00  0.00    +0.000 Cl
ATOM      8  C   UNL     1      -3.539  11.466  17.934  0.00  0.00    +0.000 A 
ATOM      9  N   UNL     1      -2.539  11.925  18.792  0.00  0.00    +0.000 N 
ATOM     10  C   UNL     1      -3.151  12.352  19.979  0.00  0.00    +0.000 A 
ATOM     11  N   UNL     1      -2.494  12.797  21.087  0.00  0.00    +0.000 NA
ENDROOT
BRANCH   9  12
ATOM     12  C   UNL     1      -1.072  12.000  18.643  0.00  0.00    +0.000 C 
ATOM     13  C   UNL     1      -0.380  10.633  18.470  0.00  0.00    +0.000 C 
ATOM     14  C   UNL     1      -0.147   9.932  19.804  0.00  0.00    +0.000 C 
ATOM     15  C   UNL     1       0.537  10.834  20.833  0.00  0.00    +0.000 C 
ATOM     16  N   UNL     1      -0.044  12.166  20.925  0.00  0.00    +0.000 NA
ATOM     17  C   UNL     1      -0.270  12.840  19.655  0.00  0.00    +0.000 C 
ATOM     18  H   UNL     1       0.483  12.755  21.570  0.00  0.00    +0.000 HD
ENDBRANCH   9  12
BRANCH   1  20
ATOM     19  N   UNL     1      -1.327  13.736  23.388  0.00  0.00    +0.000 N 
ATOM     20  C   UNL     1      -2.680  13.567  23.410  0.00  0.00    +0.000 C 
ATOM     21  O   UNL     1      -3.329  13.785  24.429  0.00  0.00    +0.000 OA
ATOM     22  H   UNL     1      -0.864  14.042  24.230  0.00  0.00    +0.000 HD
ATOM     23  H   UNL     1      -0.800  13.558  22.542  0.00  0.00    +0.000 HD
ENDBRANCH   1  20
BRANCH   8  24
ATOM     24  C   UNL     1      -3.364  10.762  16.625  0.00  0.00    +0.000 C 
ATOM     25  F   UNL     1      -4.484  10.823  15.844  0.00  0.00    +0.000 F 
ATOM     26  F   UNL     1      -2.390  11.303  15.864  0.00  0.00    +0.000 F 
ATOM     27  F   UNL     1      -3.146   9.437  16.788  0.00  0.00    +0.000 F 
ENDBRANCH   8  24
TORSDOF 3
ENDMDL
MODEL 4
REMARK VINA RESULT:      -6.5      7.098      9.072
REMARK  Name = 
REMARK  3 active torsions:
REMARK  status: ('A' for Active; 'I' for Inactive)
REMARK    1  A    between atoms: C_2  and  C_4
REMARK    2  A    between atoms: C_11  and  C_12
REMARK    3  A    between atoms: N_16  and  C_17
REMARK                            x       y       z     vdW  Elec       q    Type
REMARK                         _______ _______ _______ _____ _____    ______ ____
ROOT
ATOM      1  C   UNL     1      -3.753  13.128  22.281  0.00  0.00    +0.000 A 
ATOM      2  C   UNL     1      -5.125  13.028  22.199  0.00  0.00    +0.000 A 
ATOM      3  C   UNL     1      -5.655  12.598  21.001  0.00  0.00    +0.000 A 
ATOM      4 CL   UNL     1      -7.346  12.413  20.832  0.00  0.00    +0.000 Cl
ATOM      5  C   UNL     1      -4.817  12.259  19.920  0.00  0.00    +0.000 A 
ATOM      6  C   UNL     1      -4.967  11.784  18.593  0.00  0.00    +0.000 A 
ATOM      7 CL   UNL     1      -6.467  11.517  17.822  0.00  0.00    +0.000 Cl
ATOM      8  C   UNL     1      -3.709  11.519  18.064  0.00  0.00    +0.000 A 
ATOM      9  N   UNL     1      -2.764  11.982  18.982  0.00  0.00    +0.000 N 
ATOM     10  C   UNL     1      -3.448  12.393  20.135  0.00  0.00    +0.000 A 
ATOM     11  N   UNL     1      -2.861  12.836  21.282  0.00  0.00    +0.000 NA
ENDROOT
BRANCH   9  12
ATOM     12  C   UNL     1      -1.292  12.075  18.917  0.00  0.00    +0.000 C 
ATOM     13  C   UNL     1      -0.576  10.717  18.766  0.00  0.00    +0.000 C 
ATOM     14  C   UNL     1      -0.412  10.000  20.101  0.00  0.00    +0.000 C 
ATOM     15  C   UNL     1       0.202  10.896  21.180  0.00  0.00    +0.000 C 
ATOM     16  N   UNL     1      -0.397  12.220  21.257  0.00  0.00    +0.000 NA
ATOM     17  C   UNL     1      -0.559  12.909  19.984  0.00  0.00    +0.000 C 
ATOM     18  H   UNL     1       0.086  12.805  21.938  0.00  0.00    +0.000 HD
ENDBRANCH   9  12
BRANCH   1  20
ATOM     19  N   UNL     1      -4.082  13.818  24.599  0.00  0.00    +0.000 N 
ATOM     20  C   UNL     1      -3.188  13.586  23.596  0.00  0.00    +0.000 C 
ATOM     21  O   UNL     1      -1.984  13.746  23.771  0.00  0.00    +0.000 OA
ATOM     22  H   UNL     1      -3.735  14.129  25.494  0.00  0.00    +0.000 HD
ATOM     23  H   UNL     1      -5.073  13.680  24.448  0.00  0.00    +0.000 HD
ENDBRANCH   1  20
BRANCH   8  24
ATOM     24  C   UNL     1      -3.451  10.828  16.763  0.00  0.00    +0.000 C 
ATOM     25  F   UNL     1      -3.118   9.512  16.925  0.00  0.00    +0.000 F 
ATOM     26  F   UNL     1      -4.533  10.806  15.956  0.00  0.00    +0.000 F 
ATOM     27  F   UNL     1      -2.393  11.359  16.109  0.00  0.00    +0.000 F 
ENDBRANCH   8  24
TORSDOF 3
ENDMDL
MODEL 5
REMARK VINA RESULT:      -6.5      7.273      9.116
REMARK  Name = 
REMARK  3 active torsions:
REMARK  status: ('A' for Active; 'I' for Inactive)
REMARK    1  A    between atoms: C_2  and  C_4
REMARK    2  A    between atoms: C_11  and  C_12
REMARK    3  A    between atoms: N_16  and  C_17
REMARK                            x       y       z     vdW  Elec       q    Type
REMARK                         _______ _______ _______ _____ _____    ______ ____
ROOT
ATOM      1  C   UNL     1      -5.425  12.962  22.266  0.00  0.00    +0.000 A 
ATOM      2  C   UNL     1      -6.492  12.733  21.424  0.00  0.00    +0.000 A 
ATOM      3  C   UNL     1      -6.205  12.384  20.122  0.00  0.00    +0.000 A 
ATOM      4 CL   UNL     1      -7.474  12.049  19.028  0.00  0.00    +0.000 Cl
ATOM      5  C   UNL     1      -4.871  12.251  19.687  0.00  0.00    +0.000 A 
ATOM      6  C   UNL     1      -4.194  11.910  18.490  0.00  0.00    +0.000 A 
ATOM      7 CL   UNL     1      -4.962  11.578  17.001  0.00  0.00    +0.000 Cl
ATOM      8  C   UNL     1      -2.830  11.832  18.749  0.00  0.00    +0.000 A 
ATOM      9  N   UNL     1      -2.627  12.286  20.054  0.00  0.00    +0.000 N 
ATOM     10  C   UNL     1      -3.885  12.499  20.638  0.00  0.00    +0.000 A 
ATOM     11  N   UNL     1      -4.099  12.871  21.930  0.00  0.00    +0.000 NA
ENDROOT
BRANCH   9  12
ATOM     12  C   UNL     1      -1.395  12.534  20.829  0.00  0.00    +0.000 C 
ATOM     13  C   UNL     1      -0.308  11.454  20.656  0.00  0.00    +0.000 C 
ATOM     14  C   UNL     1      -0.553  10.240  21.546  0.00  0.00    +0.000 C 
ATOM     15  C   UNL     1      -0.804  10.623  23.007  0.00  0.00    +0.000 C 
ATOM     16  N   UNL     1      -1.750  11.716  23.175  0.00  0.00    +0.000 NA
ATOM     17  C   UNL     1      -1.523  12.877  22.325  0.00  0.00    +0.000 C 
ATOM     18  H   UNL     1      -1.836  11.983  24.155  0.00  0.00    +0.000 HD
ENDBRANCH   9  12
BRANCH   1  20
ATOM     19  N   UNL     1      -5.465  12.399  24.641  0.00  0.00    +0.000 N 
ATOM     20  C   UNL     1      -5.752  13.329  23.686  0.00  0.00    +0.000 C 
ATOM     21  O   UNL     1      -6.252  14.409  23.984  0.00  0.00    +0.000 OA
ATOM     22  H   UNL     1      -5.675  12.613  25.604  0.00  0.00    +0.000 HD
ATOM     23  H   UNL     1      -5.049  11.511  24.387  0.00  0.00    +0.000 HD
ENDBRANCH   1  20
BRANCH   8  24
ATOM     24  C   UNL     1      -1.801  11.316  17.795  0.00  0.00    +0.000 C 
ATOM     25  F   UNL     1      -0.629  12.017  17.858  0.00  0.00    +0.000 F 
ATOM     26  F   UNL     1      -1.446  10.038  18.044  0.00  0.00    +0.000 F 
ATOM     27  F   UNL     1      -2.195  11.447  16.507  0.00  0.00    +0.000 F 
ENDBRANCH   8  24
TORSDOF 3
ENDMDL
MODEL 6
REMARK VINA RESULT:      -6.4     10.367     11.828
REMARK  Name = 
REMARK  3 active torsions:
REMARK  status: ('A' for Active; 'I' for Inactive)
REMARK    1  A    between atoms: C_2  and  C_4
REMARK    2  A    between atoms: C_11  and  C_12
REMARK    3  A    between atoms: N_16  and  C_17
REMARK                            x       y       z     vdW  Elec       q    Type
REMARK                         _______ _______ _______ _____ _____    ______ ____
ROOT
ATOM      1  C   UNL     1       9.909  16.351  18.420  0.00  0.00    +0.000 A 
ATOM      2  C   UNL     1       9.415  17.283  19.308  0.00  0.00    +0.000 A 
ATOM      3  C   UNL     1       8.810  16.806  20.451  0.00  0.00    +0.000 A 
ATOM      4 CL   UNL     1       8.205  17.900  21.616  0.00  0.00    +0.000 Cl
ATOM      5  C   UNL     1       8.726  15.422  20.700  0.00  0.00    +0.000 A 
ATOM      6  C   UNL     1       8.220  14.575  21.718  0.00  0.00    +0.000 A 
ATOM      7 CL   UNL     1       7.387  15.116  23.107  0.00  0.00    +0.000 Cl
ATOM      8  C   UNL     1       8.569  13.261  21.425  0.00  0.00    +0.000 A 
ATOM      9  N   UNL     1       9.139  13.254  20.151  0.00  0.00    +0.000 N 
ATOM     10  C   UNL     1       9.274  14.586  19.731  0.00  0.00    +0.000 A 
ATOM     11  N   UNL     1       9.860  14.989  18.570  0.00  0.00    +0.000 NA
ENDROOT
BRANCH   9  12
ATOM     12  C   UNL     1       9.589  12.151  19.280  0.00  0.00    +0.000 C 
ATOM     13  C   UNL     1      10.941  11.530  19.687  0.00  0.00    +0.000 C 
ATOM     14  C   UNL     1      12.126  12.340  19.173  0.00  0.00    +0.000 C 
ATOM     15  C   UNL     1      12.024  12.648  17.677  0.00  0.00    +0.000 C 
ATOM     16  N   UNL     1      10.716  13.133  17.264  0.00  0.00    +0.000 NA
ATOM     17  C   UNL     1       9.580  12.366  17.754  0.00  0.00    +0.000 C 
ATOM     18  H   UNL     1      10.671  13.260  16.253  0.00  0.00    +0.000 HD
ENDBRANCH   9  12
BRANCH   1  20
ATOM     19  N   UNL     1      10.734  16.012  16.148  0.00  0.00    +0.000 N 
ATOM     20  C   UNL     1      10.577  16.884  17.184  0.00  0.00    +0.000 C 
ATOM     21  O   UNL     1      10.966  18.045  17.099  0.00  0.00    +0.000 OA
ATOM     22  H   UNL     1      11.181  16.339  15.305  0.00  0.00    +0.000 HD
ATOM     23  H   UNL     1      10.407  15.057  16.224  0.00  0.00    +0.000 HD
ENDBRANCH   1  20
BRANCH   8  24
ATOM     24  C   UNL     1       8.385  12.097  22.346  0.00  0.00    +0.000 C 
ATOM     25  F   UNL     1       7.074  11.887  22.671  0.00  0.00    +0.000 F 
ATOM     26  F   UNL     1       8.791  10.929  21.805  0.00  0.00    +0.000 F 
ATOM     27  F   UNL     1       8.993  12.294  23.538  0.00  0.00    +0.000 F 
ENDBRANCH   8  24
TORSDOF 3
ENDMDL
MODEL 7
REMARK VINA RESULT:      -6.4      8.765     10.781
REMARK  Name = 
REMARK  3 active torsions:
REMARK  status: ('A' for Active; 'I' for Inactive)
REMARK    1  A    between atoms: C_2  and  C_4
REMARK    2  A    between atoms: C_11  and  C_12
REMARK    3  A    between atoms: N_16  and  C_17
REMARK                            x       y       z     vdW  Elec       q    Type
REMARK                         _______ _______ _______ _____ _____    ______ ____
ROOT
ATOM      1  C   UNL     1      -3.146  11.711  18.248  0.00  0.00    +0.000 A 
ATOM      2  C   UNL     1      -1.841  11.503  18.641  0.00  0.00    +0.000 A 
ATOM      3  C   UNL     1      -1.524  11.791  19.952  0.00  0.00    +0.000 A 
ATOM      4 CL   UNL     1       0.064  11.525  20.524  0.00  0.00    +0.000 Cl
ATOM      5  C   UNL     1      -2.506  12.259  20.847  0.00  0.00    +0.000 A 
ATOM      6  C   UNL     1      -2.579  12.635  22.211  0.00  0.00    +0.000 A 
ATOM      7 CL   UNL     1      -1.247  12.680  23.278  0.00  0.00    +0.000 Cl
ATOM      8  C   UNL     1      -3.905  12.894  22.537  0.00  0.00    +0.000 A 
ATOM      9  N   UNL     1      -4.643  12.850  21.353  0.00  0.00    +0.000 N 
ATOM     10  C   UNL     1      -3.788  12.417  20.328  0.00  0.00    +0.000 A 
ATOM     11  N   UNL     1      -4.163  12.176  19.041  0.00  0.00    +0.000 NA
ENDROOT
BRANCH   9  12
ATOM     12  C   UNL     1      -6.059  13.151  21.063  0.00  0.00    +0.000 C 
ATOM     13  C   UNL     1      -7.027  11.984  21.345  0.00  0.00    +0.000 C 
ATOM     14  C   UNL     1      -7.069  10.979  20.199  0.00  0.00    +0.000 C 
ATOM     15  C   UNL     1      -7.297  11.645  18.840  0.00  0.00    +0.000 C 
ATOM     16  N   UNL     1      -6.461  12.814  18.610  0.00  0.00    +0.000 NA
ATOM     17  C   UNL     1      -6.415  13.776  19.701  0.00  0.00    +0.000 C 
ATOM     18  H   UNL     1      -6.694  13.265  17.725  0.00  0.00    +0.000 HD
ENDBRANCH   9  12
BRANCH   1  20
ATOM     19  N   UNL     1      -2.434  11.270  15.955  0.00  0.00    +0.000 N 
ATOM     20  C   UNL     1      -3.481  11.381  16.821  0.00  0.00    +0.000 C 
ATOM     21  O   UNL     1      -4.637  11.217  16.441  0.00  0.00    +0.000 OA
ATOM     22  H   UNL     1      -2.625  11.052  14.989  0.00  0.00    +0.000 HD
ATOM     23  H   UNL     1      -1.483  11.403  16.277  0.00  0.00    +0.000 HD
ENDBRANCH   1  20
BRANCH   8  24
ATOM     24  C   UNL     1      -4.419  13.135  23.921  0.00  0.00    +0.000 C 
ATOM     25  F   UNL     1      -3.730  14.119  24.572  0.00  0.00    +0.000 F 
ATOM     26  F   UNL     1      -5.703  13.550  23.941  0.00  0.00    +0.000 F 
ATOM     27  F   UNL     1      -4.270  12.048  24.713  0.00  0.00    +0.000 F 
ENDBRANCH   8  24
TORSDOF 3
ENDMDL
MODEL 8
REMARK VINA RESULT:      -6.4      9.194     11.185
REMARK  Name = 
REMARK  3 active torsions:
REMARK  status: ('A' for Active; 'I' for Inactive)
REMARK    1  A    between atoms: C_2  and  C_4
REMARK    2  A    between atoms: C_11  and  C_12
REMARK    3  A    between atoms: N_16  and  C_17
REMARK                            x       y       z     vdW  Elec       q    Type
REMARK                         _______ _______ _______ _____ _____    ______ ____
ROOT
ATOM      1  C   UNL     1      -2.140  12.124  19.540  0.00  0.00    +0.000 A 
ATOM      2  C   UNL     1      -1.317  12.384  20.615  0.00  0.00    +0.000 A 
ATOM      3  C   UNL     1      -1.916  12.827  21.775  0.00  0.00    +0.000 A 
ATOM      4 CL   UNL     1      -0.967  13.138  23.162  0.00  0.00    +0.000 Cl
ATOM      5  C   UNL     1      -3.314  12.984  21.852  0.00  0.00    +0.000 A 
ATOM      6  C   UNL     1      -4.267  13.382  22.823  0.00  0.00    +0.000 A 
ATOM      7 CL   UNL     1      -3.882  13.924  24.395  0.00  0.00    +0.000 Cl
ATOM      8  C   UNL     1      -5.543  13.198  22.303  0.00  0.00    +0.000 A 
ATOM      9  N   UNL     1      -5.401  12.850  20.959  0.00  0.00    +0.000 N 
ATOM     10  C   UNL     1      -4.034  12.677  20.700  0.00  0.00    +0.000 A 
ATOM     11  N   UNL     1      -3.504  12.260  19.517  0.00  0.00    +0.000 NA
ENDROOT
BRANCH   9  12
ATOM     12  C   UNL     1      -6.393  12.645  19.885  0.00  0.00    +0.000 C 
ATOM     13  C   UNL     1      -7.643  11.851  20.319  0.00  0.00    +0.000 C 
ATOM     14  C   UNL     1      -7.404  10.345  20.303  0.00  0.00    +0.000 C 
ATOM     15  C   UNL     1      -6.801   9.858  18.984  0.00  0.00    +0.000 C 
ATOM     16  N   UNL     1      -5.687  10.668  18.512  0.00  0.00    +0.000 NA
ATOM     17  C   UNL     1      -5.908  12.107  18.526  0.00  0.00    +0.000 C 
ATOM     18  H   UNL     1      -5.360  10.350  17.599  0.00  0.00    +0.000 HD
ENDBRANCH   9  12
BRANCH   1  20
ATOM     19  N   UNL     1      -1.335  12.529  17.271  0.00  0.00    +0.000 N 
ATOM     20  C   UNL     1      -1.476  11.629  18.287  0.00  0.00    +0.000 C 
ATOM     21  O   UNL     1      -1.075  10.475  18.170  0.00  0.00    +0.000 OA
ATOM     22  H   UNL     1      -0.896  12.227  16.415  0.00  0.00    +0.000 HD
ATOM     23  H   UNL     1      -1.666  13.480  17.377  0.00  0.00    +0.000 HD
ENDBRANCH   1  20
BRANCH   8  24
ATOM     24  C   UNL     1      -6.814  13.322  23.082  0.00  0.00    +0.000 C 
ATOM     25  F   UNL     1      -6.645  14.002  24.256  0.00  0.00    +0.000 F 
ATOM     26  F   UNL     1      -7.768  14.014  22.425  0.00  0.00    +0.000 F 
ATOM     27  F   UNL     1      -7.293  12.117  23.464  0.00  0.00    +0.000 F 
ENDBRANCH   8  24
TORSDOF 3
ENDMDL
MODEL 9
REMARK VINA RESULT:      -6.3      8.797     10.779
REMARK  Name = 
REMARK  3 active torsions:
REMARK  status: ('A' for Active; 'I' for Inactive)
REMARK    1  A    between atoms: C_2  and  C_4
REMARK    2  A    between atoms: C_11  and  C_12
REMARK    3  A    between atoms: N_16  and  C_17
REMARK                            x       y       z     vdW  Elec       q    Type
REMARK                         _______ _______ _______ _____ _____    ______ ____
ROOT
ATOM      1  C   UNL     1      -2.254  11.448  18.548  0.00  0.00    +0.000 A 
ATOM      2  C   UNL     1      -1.149  11.513  19.370  0.00  0.00    +0.000 A 
ATOM      3  C   UNL     1      -1.322  12.078  20.616  0.00  0.00    +0.000 A 
ATOM      4 CL   UNL     1      -0.008  12.162  21.705  0.00  0.00    +0.000 Cl
ATOM      5  C   UNL     1      -2.586  12.546  21.027  0.00  0.00    +0.000 A 
ATOM      6  C   UNL     1      -3.150  13.147  22.180  0.00  0.00    +0.000 A 
ATOM      7 CL   UNL     1      -2.270  13.584  23.576  0.00  0.00    +0.000 Cl
ATOM      8  C   UNL     1      -4.525  13.257  22.004  0.00  0.00    +0.000 A 
ATOM      9  N   UNL     1      -4.808  12.889  20.688  0.00  0.00    +0.000 N 
ATOM     10  C   UNL     1      -3.623  12.412  20.108  0.00  0.00    +0.000 A 
ATOM     11  N   UNL     1      -3.515  11.890  18.855  0.00  0.00    +0.000 NA
ENDROOT
BRANCH   9  12
ATOM     12  C   UNL     1      -6.060  12.916  19.905  0.00  0.00    +0.000 C 
ATOM     13  C   UNL     1      -7.234  12.158  20.559  0.00  0.00    +0.000 C 
ATOM     14  C   UNL     1      -7.171  10.658  20.294  0.00  0.00    +0.000 C 
ATOM     15  C   UNL     1      -6.984  10.329  18.811  0.00  0.00    +0.000 C 
ATOM     16  N   UNL     1      -5.949  11.118  18.159  0.00  0.00    +0.000 NA
ATOM     17  C   UNL     1      -6.003  12.551  18.410  0.00  0.00    +0.000 C 
ATOM     18  H   UNL     1      -5.906  10.916  17.160  0.00  0.00    +0.000 HD
ENDBRANCH   9  12
BRANCH   1  20
ATOM     19  N   UNL     1      -2.418  11.564  16.115  0.00  0.00    +0.000 N 
ATOM     20  C   UNL     1      -2.054  10.819  17.198  0.00  0.00    +0.000 C 
ATOM     21  O   UNL     1      -1.587   9.692  17.063  0.00  0.00    +0.000 OA
ATOM     22  H   UNL     1      -2.300  11.169  15.195  0.00  0.00    +0.000 HD
ATOM     23  H   UNL     1      -2.800  12.494  16.234  0.00  0.00    +0.000 HD
ENDBRANCH   1  20
BRANCH   8  24
ATOM     24  C   UNL     1      -5.498  13.663  23.065  0.00  0.00    +0.000 C 
ATOM     25  F   UNL     1      -4.891  14.278  24.125  0.00  0.00    +0.000 F 
ATOM     26  F   UNL     1      -6.407  14.560  22.629  0.00  0.00    +0.000 F 
ATOM     27  F   UNL     1      -6.122  12.597  23.614  0.00  0.00    +0.000 F 
ENDBRANCH   8  24
TORSDOF 3
ENDMDL
