MODEL 1
REMARK VINA RESULT:      -8.3      0.000      0.000
REMARK  Name = 
REMARK  6 active torsions:
REMARK  status: ('A' for Active; 'I' for Inactive)
REMARK    1  A    between atoms: C_1  and  C_2
REMARK    2  A    between atoms: C_3  and  N_4
REMARK    3  A    between atoms: C_5  and  C_7
REMARK    4  A    between atoms: C_7  and  N_8
REMARK    5  A    between atoms: N_23  and  C_24
REMARK    6  A    between atoms: N_30  and  C_31
REMARK                            x       y       z     vdW  Elec       q    Type
REMARK                         _______ _______ _______ _____ _____    ______ ____
ROOT
ATOM      1  N   UNL     1       2.191  10.106  18.796  0.00  0.00    +0.000 N 
ATOM      2  C   UNL     1       2.153   8.992  17.961  0.00  0.00    +0.000 C 
ATOM      3  O   UNL     1       1.238   8.737  17.175  0.00  0.00    +0.000 OA
ATOM      4  H   UNL     1       2.824  10.072  19.596  0.00  0.00    +0.000 HD
ENDROOT
BRANCH   1   7
ATOM      5  C   UNL     1       2.229  13.273  18.099  0.00  0.00    +0.000 C 
ATOM      6  C   UNL     1       1.121  12.364  18.533  0.00  0.00    +0.000 A 
ATOM      7  C   UNL     1       1.198  11.067  18.892  0.00  0.00    +0.000 A 
ATOM      8  C   UNL     1      -0.128  10.779  19.570  0.00  0.00    +0.000 A 
ATOM      9  O   UNL     1      -0.405   9.693  20.056  0.00  0.00    +0.000 OA
ATOM     10  N   UNL     1      -0.897  11.945  19.455  0.00  0.00    +0.000 N 
ATOM     11  N   UNL     1      -0.165  12.899  18.719  0.00  0.00    +0.000 N 
ATOM     12  C   UNL     1      -0.380  14.321  18.995  0.00  0.00    +0.000 C 
BRANCH  10  13
ATOM     13  C   UNL     1      -2.284  12.082  19.704  0.00  0.00    +0.000 A 
ATOM     14  C   UNL     1      -2.735  12.641  20.905  0.00  0.00    +0.000 A 
ATOM     15  C   UNL     1      -4.092  12.943  21.081  0.00  0.00    +0.000 A 
ATOM     16  C   UNL     1      -5.017  12.648  20.079  0.00  0.00    +0.000 A 
ATOM     17  C   UNL     1      -4.589  12.038  18.904  0.00  0.00    +0.000 A 
ATOM     18  C   UNL     1      -3.232  11.761  18.717  0.00  0.00    +0.000 A 
ENDBRANCH  10  13
ENDBRANCH   1   7
BRANCH   2  19
ATOM     19  C   UNL     1       3.328   8.009  18.082  0.00  0.00    +0.000 C 
BRANCH  19  20
ATOM     20  N   UNL     1       3.015   6.715  18.654  0.00  0.00    +0.000 N 
ATOM     21  C   UNL     1       2.160   6.585  19.777  0.00  0.00    +0.000 C 
ATOM     22  O   UNL     1       1.673   7.513  20.408  0.00  0.00    +0.000 OA
ATOM     23  C   UNL     1       2.025   5.150  19.926  0.00  0.00    +0.000 A 
ATOM     24  C   UNL     1       1.323   4.389  20.861  0.00  0.00    +0.000 A 
ATOM     25  C   UNL     1       1.394   2.988  20.725  0.00  0.00    +0.000 A 
ATOM     26  C   UNL     1       2.119   2.372  19.685  0.00  0.00    +0.000 A 
ATOM     27  C   UNL     1       2.803   3.161  18.742  0.00  0.00    +0.000 A 
ATOM     28  C   UNL     1       3.545   2.730  17.629  0.00  0.00    +0.000 A 
ATOM     29  C   UNL     1       4.151   3.677  16.776  0.00  0.00    +0.000 A 
ATOM     30  C   UNL     1       4.056   5.069  17.000  0.00  0.00    +0.000 A 
ATOM     31  C   UNL     1       3.329   5.457  18.116  0.00  0.00    +0.000 A 
ATOM     32  C   UNL     1       2.730   4.513  18.922  0.00  0.00    +0.000 A 
ENDBRANCH  19  20
ENDBRANCH   2  19
TORSDOF 4
ENDMDL
MODEL 2
REMARK VINA RESULT:      -8.1      2.504      4.203
REMARK  Name = 
REMARK  6 active torsions:
REMARK  status: ('A' for Active; 'I' for Inactive)
REMARK    1  A    between atoms: C_1  and  C_2
REMARK    2  A    between atoms: C_3  and  N_4
REMARK    3  A    between atoms: C_5  and  C_7
REMARK    4  A    between atoms: C_7  and  N_8
REMARK    5  A    between atoms: N_23  and  C_24
REMARK    6  A    between atoms: N_30  and  C_31
REMARK                            x       y       z     vdW  Elec       q    Type
REMARK                         _______ _______ _______ _____ _____    ______ ____
ROOT
ATOM      1  N   UNL     1       2.602   7.012  19.848  0.00  0.00    +0.000 N 
ATOM      2  C   UNL     1       2.081   5.765  20.183  0.00  0.00    +0.000 C 
ATOM      3  O   UNL     1       0.910   5.559  20.506  0.00  0.00    +0.000 OA
ATOM      4  H   UNL     1       3.616   7.124  19.885  0.00  0.00    +0.000 HD
ENDROOT
BRANCH   1   7
ATOM      5  C   UNL     1       1.701   8.972  17.426  0.00  0.00    +0.000 C 
ATOM      6  C   UNL     1       1.409   9.008  18.895  0.00  0.00    +0.000 A 
ATOM      7  C   UNL     1       1.894   8.203  19.861  0.00  0.00    +0.000 A 
ATOM      8  C   UNL     1       1.560   8.919  21.157  0.00  0.00    +0.000 A 
ATOM      9  O   UNL     1       1.878   8.490  22.255  0.00  0.00    +0.000 OA
ATOM     10  N   UNL     1       0.817  10.055  20.806  0.00  0.00    +0.000 N 
ATOM     11  N   UNL     1       0.630  10.059  19.408  0.00  0.00    +0.000 N 
ATOM     12  C   UNL     1       0.509  11.344  18.716  0.00  0.00    +0.000 C 
BRANCH  10  13
ATOM     13  C   UNL     1       0.069  10.888  21.672  0.00  0.00    +0.000 A 
ATOM     14  C   UNL     1       0.206  12.279  21.606  0.00  0.00    +0.000 A 
ATOM     15  C   UNL     1      -0.658  13.111  22.331  0.00  0.00    +0.000 A 
ATOM     16  C   UNL     1      -1.634  12.563  23.163  0.00  0.00    +0.000 A 
ATOM     17  C   UNL     1      -1.741  11.180  23.282  0.00  0.00    +0.000 A 
ATOM     18  C   UNL     1      -0.898  10.351  22.539  0.00  0.00    +0.000 A 
ENDBRANCH  10  13
ENDBRANCH   1   7
BRANCH   2  19
ATOM     19  C   UNL     1       3.072   4.591  20.183  0.00  0.00    +0.000 C 
BRANCH  19  20
ATOM     20  N   UNL     1       3.896   4.457  18.999  0.00  0.00    +0.000 N 
ATOM     21  C   UNL     1       3.352   4.047  17.756  0.00  0.00    +0.000 C 
ATOM     22  O   UNL     1       2.193   3.703  17.569  0.00  0.00    +0.000 OA
ATOM     23  C   UNL     1       4.473   4.173  16.846  0.00  0.00    +0.000 A 
ATOM     24  C   UNL     1       4.578   3.904  15.481  0.00  0.00    +0.000 A 
ATOM     25  C   UNL     1       5.831   4.138  14.880  0.00  0.00    +0.000 A 
ATOM     26  C   UNL     1       6.927   4.643  15.607  0.00  0.00    +0.000 A 
ATOM     27  C   UNL     1       6.791   4.926  16.979  0.00  0.00    +0.000 A 
ATOM     28  C   UNL     1       7.755   5.457  17.852  0.00  0.00    +0.000 A 
ATOM     29  C   UNL     1       7.428   5.693  19.205  0.00  0.00    +0.000 A 
ATOM     30  C   UNL     1       6.152   5.401  19.738  0.00  0.00    +0.000 A 
ATOM     31  C   UNL     1       5.232   4.863  18.850  0.00  0.00    +0.000 A 
ATOM     32  C   UNL     1       5.569   4.662  17.530  0.00  0.00    +0.000 A 
ENDBRANCH  19  20
ENDBRANCH   2  19
TORSDOF 4
ENDMDL
MODEL 3
REMARK VINA RESULT:      -8.0      2.390      9.014
REMARK  Name = 
REMARK  6 active torsions:
REMARK  status: ('A' for Active; 'I' for Inactive)
REMARK    1  A    between atoms: C_1  and  C_2
REMARK    2  A    between atoms: C_3  and  N_4
REMARK    3  A    between atoms: C_5  and  C_7
REMARK    4  A    between atoms: C_7  and  N_8
REMARK    5  A    between atoms: N_23  and  C_24
REMARK    6  A    between atoms: N_30  and  C_31
REMARK                            x       y       z     vdW  Elec       q    Type
REMARK                         _______ _______ _______ _____ _____    ______ ____
ROOT
ATOM      1  N   UNL     1       0.917   6.591  20.386  0.00  0.00    +0.000 N 
ATOM      2  C   UNL     1       0.969   7.753  21.152  0.00  0.00    +0.000 C 
ATOM      3  O   UNL     1       2.009   8.315  21.502  0.00  0.00    +0.000 OA
ATOM      4  H   UNL     1       0.047   6.057  20.401  0.00  0.00    +0.000 HD
ENDROOT
BRANCH   1   7
ATOM      5  C   UNL     1       2.216   3.810  21.432  0.00  0.00    +0.000 C 
ATOM      6  C   UNL     1       2.548   4.684  20.262  0.00  0.00    +0.000 A 
ATOM      7  C   UNL     1       2.018   5.879  19.938  0.00  0.00    +0.000 A 
ATOM      8  C   UNL     1       2.968   6.450  18.901  0.00  0.00    +0.000 A 
ATOM      9  O   UNL     1       2.818   7.552  18.395  0.00  0.00    +0.000 OA
ATOM     10  N   UNL     1       3.933   5.463  18.657  0.00  0.00    +0.000 N 
ATOM     11  N   UNL     1       3.616   4.322  19.423  0.00  0.00    +0.000 N 
ATOM     12  C   UNL     1       4.703   3.456  19.883  0.00  0.00    +0.000 C 
BRANCH  10  13
ATOM     13  C   UNL     1       4.869   5.426  17.596  0.00  0.00    +0.000 A 
ATOM     14  C   UNL     1       6.079   6.122  17.698  0.00  0.00    +0.000 A 
ATOM     15  C   UNL     1       7.081   5.945  16.734  0.00  0.00    +0.000 A 
ATOM     16  C   UNL     1       6.867   5.110  15.637  0.00  0.00    +0.000 A 
ATOM     17  C   UNL     1       5.645   4.459  15.494  0.00  0.00    +0.000 A 
ATOM     18  C   UNL     1       4.656   4.614  16.469  0.00  0.00    +0.000 A 
ENDBRANCH  10  13
ENDBRANCH   1   7
BRANCH   2  19
ATOM     19  C   UNL     1      -0.380   8.328  21.612  0.00  0.00    +0.000 C 
BRANCH  19  20
ATOM     20  N   UNL     1      -0.559   9.753  21.426  0.00  0.00    +0.000 N 
ATOM     21  C   UNL     1      -0.352  10.673  22.484  0.00  0.00    +0.000 C 
ATOM     22  O   UNL     1      -0.085  10.376  23.640  0.00  0.00    +0.000 OA
ATOM     23  C   UNL     1      -0.509  11.961  21.838  0.00  0.00    +0.000 A 
ATOM     24  C   UNL     1      -0.439  13.256  22.351  0.00  0.00    +0.000 A 
ATOM     25  C   UNL     1      -0.640  14.314  21.441  0.00  0.00    +0.000 A 
ATOM     26  C   UNL     1      -0.880  14.087  20.070  0.00  0.00    +0.000 A 
ATOM     27  C   UNL     1      -0.926  12.772  19.573  0.00  0.00    +0.000 A 
ATOM     28  C   UNL     1      -1.120  12.356  18.245  0.00  0.00    +0.000 A 
ATOM     29  C   UNL     1      -1.118  10.980  17.929  0.00  0.00    +0.000 A 
ATOM     30  C   UNL     1      -0.938   9.978  18.909  0.00  0.00    +0.000 A 
ATOM     31  C   UNL     1      -0.765  10.426  20.211  0.00  0.00    +0.000 A 
ATOM     32  C   UNL     1      -0.751  11.775  20.490  0.00  0.00    +0.000 A 
ENDBRANCH  19  20
ENDBRANCH   2  19
TORSDOF 4
ENDMDL
MODEL 4
REMARK VINA RESULT:      -7.9      6.385      8.895
REMARK  Name = 
REMARK  6 active torsions:
REMARK  status: ('A' for Active; 'I' for Inactive)
REMARK    1  A    between atoms: C_1  and  C_2
REMARK    2  A    between atoms: C_3  and  N_4
REMARK    3  A    between atoms: C_5  and  C_7
REMARK    4  A    between atoms: C_7  and  N_8
REMARK    5  A    between atoms: N_23  and  C_24
REMARK    6  A    between atoms: N_30  and  C_31
REMARK                            x       y       z     vdW  Elec       q    Type
REMARK                         _______ _______ _______ _____ _____    ______ ____
ROOT
ATOM      1  N   UNL     1       4.583  14.952  17.525  0.00  0.00    +0.000 N 
ATOM      2  C   UNL     1       5.693  15.224  18.321  0.00  0.00    +0.000 C 
ATOM      3  O   UNL     1       5.647  15.459  19.529  0.00  0.00    +0.000 OA
ATOM      4  H   UNL     1       4.690  15.063  16.516  0.00  0.00    +0.000 HD
ENDROOT
BRANCH   1   7
ATOM      5  C   UNL     1       2.567  12.482  18.120  0.00  0.00    +0.000 C 
ATOM      6  C   UNL     1       2.416  13.959  18.318  0.00  0.00    +0.000 A 
ATOM      7  C   UNL     1       3.269  14.940  17.964  0.00  0.00    +0.000 A 
ATOM      8  C   UNL     1       2.451  16.214  18.070  0.00  0.00    +0.000 A 
ATOM      9  O   UNL     1       2.897  17.316  17.791  0.00  0.00    +0.000 OA
ATOM     10  N   UNL     1       1.197  15.843  18.574  0.00  0.00    +0.000 N 
ATOM     11  N   UNL     1       1.205  14.456  18.830  0.00  0.00    +0.000 N 
ATOM     12  C   UNL     1      -0.050  13.710  18.714  0.00  0.00    +0.000 C 
BRANCH  10  13
ATOM     13  C   UNL     1       0.192  16.701  19.081  0.00  0.00    +0.000 A 
ATOM     14  C   UNL     1      -0.767  17.251  18.223  0.00  0.00    +0.000 A 
ATOM     15  C   UNL     1      -1.864  17.951  18.743  0.00  0.00    +0.000 A 
ATOM     16  C   UNL     1      -1.989  18.149  20.118  0.00  0.00    +0.000 A 
ATOM     17  C   UNL     1      -1.010  17.659  20.977  0.00  0.00    +0.000 A 
ATOM     18  C   UNL     1       0.070  16.937  20.462  0.00  0.00    +0.000 A 
ENDBRANCH  10  13
ENDBRANCH   1   7
BRANCH   2  19
ATOM     19  C   UNL     1       7.051  15.269  17.603  0.00  0.00    +0.000 C 
BRANCH  19  20
ATOM     20  N   UNL     1       8.074  14.386  18.126  0.00  0.00    +0.000 N 
ATOM     21  C   UNL     1       8.221  13.057  17.657  0.00  0.00    +0.000 C 
ATOM     22  O   UNL     1       7.486  12.505  16.849  0.00  0.00    +0.000 OA
ATOM     23  C   UNL     1       9.413  12.595  18.340  0.00  0.00    +0.000 A 
ATOM     24  C   UNL     1      10.065  11.362  18.308  0.00  0.00    +0.000 A 
ATOM     25  C   UNL     1      11.223  11.234  19.101  0.00  0.00    +0.000 A 
ATOM     26  C   UNL     1      11.722  12.300  19.876  0.00  0.00    +0.000 A 
ATOM     27  C   UNL     1      11.058  13.540  19.876  0.00  0.00    +0.000 A 
ATOM     28  C   UNL     1      11.421  14.715  20.555  0.00  0.00    +0.000 A 
ATOM     29  C   UNL     1      10.635  15.880  20.419  0.00  0.00    +0.000 A 
ATOM     30  C   UNL     1       9.467  15.917  19.625  0.00  0.00    +0.000 A 
ATOM     31  C   UNL     1       9.131  14.734  18.982  0.00  0.00    +0.000 A 
ATOM     32  C   UNL     1       9.926  13.617  19.115  0.00  0.00    +0.000 A 
ENDBRANCH  19  20
ENDBRANCH   2  19
TORSDOF 4
ENDMDL
MODEL 5
REMARK VINA RESULT:      -7.9      2.243      9.468
REMARK  Name = 
REMARK  6 active torsions:
REMARK  status: ('A' for Active; 'I' for Inactive)
REMARK    1  A    between atoms: C_1  and  C_2
REMARK    2  A    between atoms: C_3  and  N_4
REMARK    3  A    between atoms: C_5  and  C_7
REMARK    4  A    between atoms: C_7  and  N_8
REMARK    5  A    between atoms: N_23  and  C_24
REMARK    6  A    between atoms: N_30  and  C_31
REMARK                            x       y       z     vdW  Elec       q    Type
REMARK                         _______ _______ _______ _____ _____    ______ ____
ROOT
ATOM      1  N   UNL     1       1.070   6.558  20.217  0.00  0.00    +0.000 N 
ATOM      2  C   UNL     1       1.211   7.634  21.089  0.00  0.00    +0.000 C 
ATOM      3  O   UNL     1       2.259   7.940  21.660  0.00  0.00    +0.000 OA
ATOM      4  H   UNL     1       0.124   6.220  20.035  0.00  0.00    +0.000 HD
ENDROOT
BRANCH   1   7
ATOM      5  C   UNL     1       1.784   3.641  21.443  0.00  0.00    +0.000 C 
ATOM      6  C   UNL     1       2.362   4.404  20.290  0.00  0.00    +0.000 A 
ATOM      7  C   UNL     1       2.072   5.657  19.891  0.00  0.00    +0.000 A 
ATOM      8  C   UNL     1       3.194   6.023  18.937  0.00  0.00    +0.000 A 
ATOM      9  O   UNL     1       3.277   7.114  18.394  0.00  0.00    +0.000 OA
ATOM     10  N   UNL     1       3.997   4.881  18.808  0.00  0.00    +0.000 N 
ATOM     11  N   UNL     1       3.425   3.838  19.565  0.00  0.00    +0.000 N 
ATOM     12  C   UNL     1       4.306   2.822  20.146  0.00  0.00    +0.000 C 
BRANCH  10  13
ATOM     13  C   UNL     1       5.005   4.650  17.841  0.00  0.00    +0.000 A 
ATOM     14  C   UNL     1       4.666   4.197  16.561  0.00  0.00    +0.000 A 
ATOM     15  C   UNL     1       5.635   4.140  15.551  0.00  0.00    +0.000 A 
ATOM     16  C   UNL     1       6.958   4.489  15.819  0.00  0.00    +0.000 A 
ATOM     17  C   UNL     1       7.319   4.884  17.104  0.00  0.00    +0.000 A 
ATOM     18  C   UNL     1       6.349   4.967  18.105  0.00  0.00    +0.000 A 
ENDBRANCH  10  13
ENDBRANCH   1   7
BRANCH   2  19
ATOM     19  C   UNL     1      -0.059   8.452  21.372  0.00  0.00    +0.000 C 
BRANCH  19  20
ATOM     20  N   UNL     1      -0.032   9.834  20.938  0.00  0.00    +0.000 N 
ATOM     21  C   UNL     1       0.377  10.196  19.631  0.00  0.00    +0.000 C 
ATOM     22  O   UNL     1       0.805   9.425  18.783  0.00  0.00    +0.000 OA
ATOM     23  C   UNL     1       0.131  11.624  19.590  0.00  0.00    +0.000 A 
ATOM     24  C   UNL     1       0.344  12.561  18.579  0.00  0.00    +0.000 A 
ATOM     25  C   UNL     1      -0.010  13.895  18.862  0.00  0.00    +0.000 A 
ATOM     26  C   UNL     1      -0.574  14.275  20.096  0.00  0.00    +0.000 A 
ATOM     27  C   UNL     1      -0.798  13.309  21.093  0.00  0.00    +0.000 A 
ATOM     28  C   UNL     1      -1.374  13.492  22.362  0.00  0.00    +0.000 A 
ATOM     29  C   UNL     1      -1.537  12.390  23.230  0.00  0.00    +0.000 A 
ATOM     30  C   UNL     1      -1.126  11.084  22.880  0.00  0.00    +0.000 A 
ATOM     31  C   UNL     1      -0.548  10.944  21.626  0.00  0.00    +0.000 A 
ATOM     32  C   UNL     1      -0.419  12.032  20.791  0.00  0.00    +0.000 A 
ENDBRANCH  19  20
ENDBRANCH   2  19
TORSDOF 4
ENDMDL
MODEL 6
REMARK VINA RESULT:      -7.8      2.358      9.534
REMARK  Name = 
REMARK  6 active torsions:
REMARK  status: ('A' for Active; 'I' for Inactive)
REMARK    1  A    between atoms: C_1  and  C_2
REMARK    2  A    between atoms: C_3  and  N_4
REMARK    3  A    between atoms: C_5  and  C_7
REMARK    4  A    between atoms: C_7  and  N_8
REMARK    5  A    between atoms: N_23  and  C_24
REMARK    6  A    between atoms: N_30  and  C_31
REMARK                            x       y       z     vdW  Elec       q    Type
REMARK                         _______ _______ _______ _____ _____    ______ ____
ROOT
ATOM      1  N   UNL     1       1.414   7.756  19.210  0.00  0.00    +0.000 N 
ATOM      2  C   UNL     1       1.253   8.486  20.385  0.00  0.00    +0.000 C 
ATOM      3  O   UNL     1       1.851   8.258  21.438  0.00  0.00    +0.000 OA
ATOM      4  H   UNL     1       0.680   7.832  18.505  0.00  0.00    +0.000 HD
ENDROOT
BRANCH   1   7
ATOM      5  C   UNL     1       1.383   4.871  20.691  0.00  0.00    +0.000 C 
ATOM      6  C   UNL     1       2.221   5.404  19.570  0.00  0.00    +0.000 A 
ATOM      7  C   UNL     1       2.237   6.652  19.062  0.00  0.00    +0.000 A 
ATOM      8  C   UNL     1       3.504   6.707  18.227  0.00  0.00    +0.000 A 
ATOM      9  O   UNL     1       3.865   7.711  17.632  0.00  0.00    +0.000 OA
ATOM     10  N   UNL     1       4.064   5.423  18.265  0.00  0.00    +0.000 N 
ATOM     11  N   UNL     1       3.215   4.581  19.012  0.00  0.00    +0.000 N 
ATOM     12  C   UNL     1       3.803   3.465  19.755  0.00  0.00    +0.000 C 
BRANCH  10  13
ATOM     13  C   UNL     1       5.098   4.917  17.442  0.00  0.00    +0.000 A 
ATOM     14  C   UNL     1       4.800   4.378  16.185  0.00  0.00    +0.000 A 
ATOM     15  C   UNL     1       5.830   4.043  15.296  0.00  0.00    +0.000 A 
ATOM     16  C   UNL     1       7.165   4.200  15.669  0.00  0.00    +0.000 A 
ATOM     17  C   UNL     1       7.474   4.679  16.938  0.00  0.00    +0.000 A 
ATOM     18  C   UNL     1       6.448   5.039  17.816  0.00  0.00    +0.000 A 
ENDBRANCH  10  13
ENDBRANCH   1   7
BRANCH   2  19
ATOM     19  C   UNL     1       0.219   9.623  20.345  0.00  0.00    +0.000 C 
BRANCH  19  20
ATOM     20  N   UNL     1       0.744  10.948  20.087  0.00  0.00    +0.000 N 
ATOM     21  C   UNL     1       1.498  11.236  18.922  0.00  0.00    +0.000 C 
ATOM     22  O   UNL     1       1.840  10.419  18.079  0.00  0.00    +0.000 OA
ATOM     23  C   UNL     1       1.703  12.669  19.006  0.00  0.00    +0.000 A 
ATOM     24  C   UNL     1       2.385  13.546  18.164  0.00  0.00    +0.000 A 
ATOM     25  C   UNL     1       2.395  14.906  18.533  0.00  0.00    +0.000 A 
ATOM     26  C   UNL     1       1.731  15.374  19.685  0.00  0.00    +0.000 A 
ATOM     27  C   UNL     1       1.032  14.473  20.508  0.00  0.00    +0.000 A 
ATOM     28  C   UNL     1       0.292  14.756  21.669  0.00  0.00    +0.000 A 
ATOM     29  C   UNL     1      -0.364  13.715  22.360  0.00  0.00    +0.000 A 
ATOM     30  C   UNL     1      -0.299  12.368  21.938  0.00  0.00    +0.000 A 
ATOM     31  C   UNL     1       0.453  12.123  20.798  0.00  0.00    +0.000 A 
ATOM     32  C   UNL     1       1.067  13.160  20.130  0.00  0.00    +0.000 A 
ENDBRANCH  19  20
ENDBRANCH   2  19
TORSDOF 4
ENDMDL
MODEL 7
REMARK VINA RESULT:      -7.8      2.554      9.102
REMARK  Name = 
REMARK  6 active torsions:
REMARK  status: ('A' for Active; 'I' for Inactive)
REMARK    1  A    between atoms: C_1  and  C_2
REMARK    2  A    between atoms: C_3  and  N_4
REMARK    3  A    between atoms: C_5  and  C_7
REMARK    4  A    between atoms: C_7  and  N_8
REMARK    5  A    between atoms: N_23  and  C_24
REMARK    6  A    between atoms: N_30  and  C_31
REMARK                            x       y       z     vdW  Elec       q    Type
REMARK                         _______ _______ _______ _____ _____    ______ ____
ROOT
ATOM      1  N   UNL     1       0.979   6.350  20.322  0.00  0.00    +0.000 N 
ATOM      2  C   UNL     1       1.112   7.463  21.148  0.00  0.00    +0.000 C 
ATOM      3  O   UNL     1       2.166   7.822  21.676  0.00  0.00    +0.000 OA
ATOM      4  H   UNL     1       0.039   5.978  20.182  0.00  0.00    +0.000 HD
ENDROOT
BRANCH   1   7
ATOM      5  C   UNL     1       1.688   3.408  21.490  0.00  0.00    +0.000 C 
ATOM      6  C   UNL     1       2.289   4.206  20.374  0.00  0.00    +0.000 A 
ATOM      7  C   UNL     1       1.998   5.467  20.000  0.00  0.00    +0.000 A 
ATOM      8  C   UNL     1       3.142   5.869  19.088  0.00  0.00    +0.000 A 
ATOM      9  O   UNL     1       3.230   6.975  18.577  0.00  0.00    +0.000 OA
ATOM     10  N   UNL     1       3.960   4.738  18.951  0.00  0.00    +0.000 N 
ATOM     11  N   UNL     1       3.377   3.670  19.664  0.00  0.00    +0.000 N 
ATOM     12  C   UNL     1       4.251   2.647  20.242  0.00  0.00    +0.000 C 
BRANCH  10  13
ATOM     13  C   UNL     1       4.996   4.542  18.007  0.00  0.00    +0.000 A 
ATOM     14  C   UNL     1       4.699   4.093  16.715  0.00  0.00    +0.000 A 
ATOM     15  C   UNL     1       5.693   4.070  15.727  0.00  0.00    +0.000 A 
ATOM     16  C   UNL     1       7.000   4.450  16.031  0.00  0.00    +0.000 A 
ATOM     17  C   UNL     1       7.320   4.841  17.328  0.00  0.00    +0.000 A 
ATOM     18  C   UNL     1       6.324   4.891  18.306  0.00  0.00    +0.000 A 
ENDBRANCH  10  13
ENDBRANCH   1   7
BRANCH   2  19
ATOM     19  C   UNL     1      -0.174   8.253  21.438  0.00  0.00    +0.000 C 
BRANCH  19  20
ATOM     20  N   UNL     1      -0.094   9.686  21.241  0.00  0.00    +0.000 N 
ATOM     21  C   UNL     1      -0.527  10.599  22.235  0.00  0.00    +0.000 C 
ATOM     22  O   UNL     1      -1.062  10.295  23.292  0.00  0.00    +0.000 OA
ATOM     23  C   UNL     1      -0.155  11.888  21.685  0.00  0.00    +0.000 A 
ATOM     24  C   UNL     1      -0.327  13.179  22.184  0.00  0.00    +0.000 A 
ATOM     25  C   UNL     1       0.160  14.238  21.391  0.00  0.00    +0.000 A 
ATOM     26  C   UNL     1       0.812  14.015  20.162  0.00  0.00    +0.000 A 
ATOM     27  C   UNL     1       0.992  12.702  19.690  0.00  0.00    +0.000 A 
ATOM     28  C   UNL     1       1.639  12.287  18.514  0.00  0.00    +0.000 A 
ATOM     29  C   UNL     1       1.740  10.912  18.211  0.00  0.00    +0.000 A 
ATOM     30  C   UNL     1       1.197   9.911  19.048  0.00  0.00    +0.000 A 
ATOM     31  C   UNL     1       0.552  10.359  20.191  0.00  0.00    +0.000 A 
ATOM     32  C   UNL     1       0.485  11.705  20.474  0.00  0.00    +0.000 A 
ENDBRANCH  19  20
ENDBRANCH   2  19
TORSDOF 4
ENDMDL
MODEL 8
REMARK VINA RESULT:      -7.8      1.193      2.553
REMARK  Name = 
REMARK  6 active torsions:
REMARK  status: ('A' for Active; 'I' for Inactive)
REMARK    1  A    between atoms: C_1  and  C_2
REMARK    2  A    between atoms: C_3  and  N_4
REMARK    3  A    between atoms: C_5  and  C_7
REMARK    4  A    between atoms: C_7  and  N_8
REMARK    5  A    between atoms: N_23  and  C_24
REMARK    6  A    between atoms: N_30  and  C_31
REMARK                            x       y       z     vdW  Elec       q    Type
REMARK                         _______ _______ _______ _____ _____    ______ ____
ROOT
ATOM      1  N   UNL     1       1.387   9.568  19.830  0.00  0.00    +0.000 N 
ATOM      2  C   UNL     1       1.852   8.496  19.072  0.00  0.00    +0.000 C 
ATOM      3  O   UNL     1       1.593   8.316  17.881  0.00  0.00    +0.000 OA
ATOM      4  H   UNL     1       1.411   9.471  20.846  0.00  0.00    +0.000 HD
ENDROOT
BRANCH   1   7
ATOM      5  C   UNL     1       1.997  12.625  18.937  0.00  0.00    +0.000 C 
ATOM      6  C   UNL     1       0.741  11.809  18.897  0.00  0.00    +0.000 A 
ATOM      7  C   UNL     1       0.541  10.564  19.370  0.00  0.00    +0.000 A 
ATOM      8  C   UNL     1      -0.968  10.401  19.388  0.00  0.00    +0.000 A 
ATOM      9  O   UNL     1      -1.523   9.391  19.792  0.00  0.00    +0.000 OA
ATOM     10  N   UNL     1      -1.503  11.568  18.826  0.00  0.00    +0.000 N 
ATOM     11  N   UNL     1      -0.441  12.403  18.421  0.00  0.00    +0.000 N 
ATOM     12  C   UNL     1      -0.639  13.854  18.435  0.00  0.00    +0.000 C 
BRANCH  10  13
ATOM     13  C   UNL     1      -2.835  11.777  18.397  0.00  0.00    +0.000 A 
ATOM     14  C   UNL     1      -3.225  11.417  17.101  0.00  0.00    +0.000 A 
ATOM     15  C   UNL     1      -4.576  11.453  16.732  0.00  0.00    +0.000 A 
ATOM     16  C   UNL     1      -5.544  11.892  17.636  0.00  0.00    +0.000 A 
ATOM     17  C   UNL     1      -5.161  12.309  18.907  0.00  0.00    +0.000 A 
ATOM     18  C   UNL     1      -3.818  12.247  19.285  0.00  0.00    +0.000 A 
ENDBRANCH  10  13
ENDBRANCH   1   7
BRANCH   2  19
ATOM     19  C   UNL     1       2.713   7.461  19.813  0.00  0.00    +0.000 C 
BRANCH  19  20
ATOM     20  N   UNL     1       2.840   6.167  19.173  0.00  0.00    +0.000 N 
ATOM     21  C   UNL     1       3.775   5.941  18.133  0.00  0.00    +0.000 C 
ATOM     22  O   UNL     1       4.495   6.792  17.629  0.00  0.00    +0.000 OA
ATOM     23  C   UNL     1       3.655   4.518  17.883  0.00  0.00    +0.000 A 
ATOM     24  C   UNL     1       4.302   3.693  16.964  0.00  0.00    +0.000 A 
ATOM     25  C   UNL     1       3.955   2.327  16.979  0.00  0.00    +0.000 A 
ATOM     26  C   UNL     1       3.016   1.803  17.890  0.00  0.00    +0.000 A 
ATOM     27  C   UNL     1       2.392   2.652  18.821  0.00  0.00    +0.000 A 
ATOM     28  C   UNL     1       1.462   2.308  19.818  0.00  0.00    +0.000 A 
ATOM     29  C   UNL     1       0.952   3.302  20.681  0.00  0.00    +0.000 A 
ATOM     30  C   UNL     1       1.331   4.660  20.579  0.00  0.00    +0.000 A 
ATOM     31  C   UNL     1       2.238   4.964  19.575  0.00  0.00    +0.000 A 
ATOM     32  C   UNL     1       2.736   3.972  18.759  0.00  0.00    +0.000 A 
ENDBRANCH  19  20
ENDBRANCH   2  19
TORSDOF 4
ENDMDL
MODEL 9
REMARK VINA RESULT:      -7.8      1.769      9.022
REMARK  Name = 
REMARK  6 active torsions:
REMARK  status: ('A' for Active; 'I' for Inactive)
REMARK    1  A    between atoms: C_1  and  C_2
REMARK    2  A    between atoms: C_3  and  N_4
REMARK    3  A    between atoms: C_5  and  C_7
REMARK    4  A    between atoms: C_7  and  N_8
REMARK    5  A    between atoms: N_23  and  C_24
REMARK    6  A    between atoms: N_30  and  C_31
REMARK                            x       y       z     vdW  Elec       q    Type
REMARK                         _______ _______ _______ _____ _____    ______ ____
ROOT
ATOM      1  N   UNL     1       0.685  10.158  19.311  0.00  0.00    +0.000 N 
ATOM      2  C   UNL     1      -0.395  10.479  18.493  0.00  0.00    +0.000 C 
ATOM      3  O   UNL     1      -0.980   9.680  17.759  0.00  0.00    +0.000 OA
ATOM      4  H   UNL     1       1.269  10.927  19.642  0.00  0.00    +0.000 HD
ENDROOT
BRANCH   1   7
ATOM      5  C   UNL     1       0.852   8.048  21.768  0.00  0.00    +0.000 C 
ATOM      6  C   UNL     1       1.304   7.952  20.343  0.00  0.00    +0.000 A 
ATOM      7  C   UNL     1       1.280   8.910  19.395  0.00  0.00    +0.000 A 
ATOM      8  C   UNL     1       2.178   8.377  18.293  0.00  0.00    +0.000 A 
ATOM      9  O   UNL     1       2.419   9.002  17.271  0.00  0.00    +0.000 OA
ATOM     10  N   UNL     1       2.573   7.091  18.686  0.00  0.00    +0.000 N 
ATOM     11  N   UNL     1       1.947   6.780  19.911  0.00  0.00    +0.000 N 
ATOM     12  C   UNL     1       2.630   5.881  20.844  0.00  0.00    +0.000 C 
BRANCH  10  13
ATOM     13  C   UNL     1       3.196   6.106  17.882  0.00  0.00    +0.000 A 
ATOM     14  C   UNL     1       4.461   6.341  17.332  0.00  0.00    +0.000 A 
ATOM     15  C   UNL     1       5.157   5.308  16.690  0.00  0.00    +0.000 A 
ATOM     16  C   UNL     1       4.579   4.046  16.550  0.00  0.00    +0.000 A 
ATOM     17  C   UNL     1       3.296   3.818  17.041  0.00  0.00    +0.000 A 
ATOM     18  C   UNL     1       2.613   4.840  17.705  0.00  0.00    +0.000 A 
ENDBRANCH  10  13
ENDBRANCH   1   7
BRANCH   2  19
ATOM     19  C   UNL     1      -0.838  11.951  18.495  0.00  0.00    +0.000 C 
BRANCH  19  20
ATOM     20  N   UNL     1      -1.954  12.276  19.359  0.00  0.00    +0.000 N 
ATOM     21  C   UNL     1      -3.296  12.112  18.935  0.00  0.00    +0.000 C 
ATOM     22  O   UNL     1      -3.648  11.767  17.816  0.00  0.00    +0.000 OA
ATOM     23  C   UNL     1      -4.060  12.424  20.126  0.00  0.00    +0.000 A 
ATOM     24  C   UNL     1      -5.437  12.457  20.347  0.00  0.00    +0.000 A 
ATOM     25  C   UNL     1      -5.866  12.801  21.645  0.00  0.00    +0.000 A 
ATOM     26  C   UNL     1      -4.957  13.078  22.685  0.00  0.00    +0.000 A 
ATOM     27  C   UNL     1      -3.573  13.018  22.443  0.00  0.00    +0.000 A 
ATOM     28  C   UNL     1      -2.526  13.230  23.356  0.00  0.00    +0.000 A 
ATOM     29  C   UNL     1      -1.184  13.107  22.932  0.00  0.00    +0.000 A 
ATOM     30  C   UNL     1      -0.838  12.787  21.600  0.00  0.00    +0.000 A 
ATOM     31  C   UNL     1      -1.897  12.600  20.724  0.00  0.00    +0.000 A 
ATOM     32  C   UNL     1      -3.197  12.706  21.168  0.00  0.00    +0.000 A 
ENDBRANCH  19  20
ENDBRANCH   2  19
TORSDOF 4
ENDMDL
