MODEL 1
REMARK VINA RESULT:      -4.4      0.000      0.000
REMARK  Name = 
REMARK  3 active torsions:
REMARK  status: ('A' for Active; 'I' for Inactive)
REMARK    1  A    between atoms: C_2  and  C_4
REMARK    2  A    between atoms: C_4  and  C_5
REMARK    3  A    between atoms: C_5  and  C_6
REMARK                            x       y       z     vdW  Elec       q    Type
REMARK                         _______ _______ _______ _____ _____    ______ ____
ROOT
ATOM      1  C   UNL     1       5.941   3.884  14.304  0.00  0.00    +0.000 C 
ENDROOT
BRANCH   1   3
ATOM      2  N   UNL     1       6.926   4.179  16.494  0.00  0.00    +0.000 N 
ATOM      3  C   UNL     1       6.942   4.584  15.191  0.00  0.00    +0.000 C 
ATOM      4  O   UNL     1       7.721   5.448  14.812  0.00  0.00    +0.000 OA
ATOM      5  H   UNL     1       7.577   4.615  17.133  0.00  0.00    +0.000 HD
ATOM      6  H   UNL     1       6.297   3.470  16.846  0.00  0.00    +0.000 HD
ENDBRANCH   1   3
BRANCH   1   7
ATOM      7  C   UNL     1       6.427   3.826  12.861  0.00  0.00    +0.000 C 
BRANCH   7   8
ATOM      8  C   UNL     1       5.514   2.988  11.999  0.00  0.00    +0.000 C 
ATOM      9  N   UNL     1       6.025   1.773  11.649  0.00  0.00    +0.000 N 
ATOM     10  O   UNL     1       4.401   3.333  11.625  0.00  0.00    +0.000 OA
ATOM     11  H   UNL     1       6.939   1.450  11.937  0.00  0.00    +0.000 HD
ATOM     12  H   UNL     1       5.455   1.169  11.071  0.00  0.00    +0.000 HD
ENDBRANCH   7   8
ENDBRANCH   1   7
TORSDOF 3
ENDMDL
MODEL 2
REMARK VINA RESULT:      -4.3      2.560      4.729
REMARK  Name = 
REMARK  3 active torsions:
REMARK  status: ('A' for Active; 'I' for Inactive)
REMARK    1  A    between atoms: C_2  and  C_4
REMARK    2  A    between atoms: C_4  and  C_5
REMARK    3  A    between atoms: C_5  and  C_6
REMARK                            x       y       z     vdW  Elec       q    Type
REMARK                         _______ _______ _______ _____ _____    ______ ____
ROOT
ATOM      1  C   UNL     1       5.519   4.630  15.695  0.00  0.00    +0.000 C 
ENDROOT
BRANCH   1   3
ATOM      2  N   UNL     1       6.403   3.565  13.711  0.00  0.00    +0.000 N 
ATOM      3  C   UNL     1       6.595   4.545  14.640  0.00  0.00    +0.000 C 
ATOM      4  O   UNL     1       7.576   5.275  14.588  0.00  0.00    +0.000 OA
ATOM      5  H   UNL     1       7.095   3.464  12.980  0.00  0.00    +0.000 HD
ATOM      6  H   UNL     1       5.607   2.941  13.720  0.00  0.00    +0.000 HD
ENDBRANCH   1   3
BRANCH   1   7
ATOM      7  C   UNL     1       5.989   5.433  16.902  0.00  0.00    +0.000 C 
BRANCH   7   8
ATOM      8  C   UNL     1       6.667   4.555  17.925  0.00  0.00    +0.000 C 
ATOM      9  N   UNL     1       5.812   3.881  18.746  0.00  0.00    +0.000 N 
ATOM     10  O   UNL     1       7.880   4.431  18.040  0.00  0.00    +0.000 OA
ATOM     11  H   UNL     1       4.806   3.955  18.684  0.00  0.00    +0.000 HD
ATOM     12  H   UNL     1       6.214   3.277  19.452  0.00  0.00    +0.000 HD
ENDBRANCH   7   8
ENDBRANCH   1   7
TORSDOF 3
ENDMDL
MODEL 3
REMARK VINA RESULT:      -4.3      1.152      4.272
REMARK  Name = 
REMARK  3 active torsions:
REMARK  status: ('A' for Active; 'I' for Inactive)
REMARK    1  A    between atoms: C_2  and  C_4
REMARK    2  A    between atoms: C_4  and  C_5
REMARK    3  A    between atoms: C_5  and  C_6
REMARK                            x       y       z     vdW  Elec       q    Type
REMARK                         _______ _______ _______ _____ _____    ______ ____
ROOT
ATOM      1  C   UNL     1       6.401   3.699  12.729  0.00  0.00    +0.000 C 
ENDROOT
BRANCH   1   3
ATOM      2  N   UNL     1       5.905   1.647  11.548  0.00  0.00    +0.000 N 
ATOM      3  C   UNL     1       5.439   2.878  11.905  0.00  0.00    +0.000 C 
ATOM      4  O   UNL     1       4.325   3.251  11.563  0.00  0.00    +0.000 OA
ATOM      5  H   UNL     1       5.301   1.055  10.995  0.00  0.00    +0.000 HD
ATOM      6  H   UNL     1       6.819   1.304  11.810  0.00  0.00    +0.000 HD
ENDBRANCH   1   3
BRANCH   1   7
ATOM      7  C   UNL     1       5.805   4.049  14.088  0.00  0.00    +0.000 C 
BRANCH   7   8
ATOM      8  C   UNL     1       6.847   4.606  15.027  0.00  0.00    +0.000 C 
ATOM      9  N   UNL     1       7.710   5.493  14.451  0.00  0.00    +0.000 N 
ATOM     10  O   UNL     1       6.943   4.313  16.211  0.00  0.00    +0.000 OA
ATOM     11  H   UNL     1       7.665   5.761  13.478  0.00  0.00    +0.000 HD
ATOM     12  H   UNL     1       8.431   5.897  15.036  0.00  0.00    +0.000 HD
ENDBRANCH   7   8
ENDBRANCH   1   7
TORSDOF 3
ENDMDL
MODEL 4
REMARK VINA RESULT:      -4.3      2.366      4.755
REMARK  Name = 
REMARK  3 active torsions:
REMARK  status: ('A' for Active; 'I' for Inactive)
REMARK    1  A    between atoms: C_2  and  C_4
REMARK    2  A    between atoms: C_4  and  C_5
REMARK    3  A    between atoms: C_5  and  C_6
REMARK                            x       y       z     vdW  Elec       q    Type
REMARK                         _______ _______ _______ _____ _____    ______ ____
ROOT
ATOM      1  C   UNL     1       5.897   3.890  15.797  0.00  0.00    +0.000 C 
ENDROOT
BRANCH   1   3
ATOM      2  N   UNL     1       6.324   3.575  13.437  0.00  0.00    +0.000 N 
ATOM      3  C   UNL     1       6.619   4.318  14.543  0.00  0.00    +0.000 C 
ATOM      4  O   UNL     1       7.411   5.248  14.481  0.00  0.00    +0.000 OA
ATOM      5  H   UNL     1       6.780   3.819  12.568  0.00  0.00    +0.000 HD
ATOM      6  H   UNL     1       5.677   2.799  13.448  0.00  0.00    +0.000 HD
ENDBRANCH   1   3
BRANCH   1   7
ATOM      7  C   UNL     1       5.888   5.004  16.838  0.00  0.00    +0.000 C 
BRANCH   7   8
ATOM      8  C   UNL     1       6.801   4.690  17.998  0.00  0.00    +0.000 C 
ATOM      9  N   UNL     1       8.045   4.261  17.638  0.00  0.00    +0.000 N 
ATOM     10  O   UNL     1       6.489   4.799  19.176  0.00  0.00    +0.000 OA
ATOM     11  H   UNL     1       8.342   4.158  16.678  0.00  0.00    +0.000 HD
ATOM     12  H   UNL     1       8.699   4.036  18.378  0.00  0.00    +0.000 HD
ENDBRANCH   7   8
ENDBRANCH   1   7
TORSDOF 3
ENDMDL
MODEL 5
REMARK VINA RESULT:      -4.3      0.552      4.242
REMARK  Name = 
REMARK  3 active torsions:
REMARK  status: ('A' for Active; 'I' for Inactive)
REMARK    1  A    between atoms: C_2  and  C_4
REMARK    2  A    between atoms: C_4  and  C_5
REMARK    3  A    between atoms: C_5  and  C_6
REMARK                            x       y       z     vdW  Elec       q    Type
REMARK                         _______ _______ _______ _____ _____    ______ ____
ROOT
ATOM      1  C   UNL     1       6.363   3.674  12.851  0.00  0.00    +0.000 C 
ENDROOT
BRANCH   1   3
ATOM      2  N   UNL     1       5.934   1.675  11.559  0.00  0.00    +0.000 N 
ATOM      3  C   UNL     1       5.455   2.897  11.929  0.00  0.00    +0.000 C 
ATOM      4  O   UNL     1       4.371   3.296  11.524  0.00  0.00    +0.000 OA
ATOM      5  H   UNL     1       5.365   1.111  10.941  0.00  0.00    +0.000 HD
ATOM      6  H   UNL     1       6.824   1.311  11.870  0.00  0.00    +0.000 HD
ENDBRANCH   1   3
BRANCH   1   7
ATOM      7  C   UNL     1       5.607   4.185  14.071  0.00  0.00    +0.000 C 
BRANCH   7   8
ATOM      8  C   UNL     1       6.498   4.268  15.286  0.00  0.00    +0.000 C 
ATOM      9  N   UNL     1       6.006   3.640  16.392  0.00  0.00    +0.000 N 
ATOM     10  O   UNL     1       7.580   4.840  15.316  0.00  0.00    +0.000 OA
ATOM     11  H   UNL     1       5.119   3.157  16.409  0.00  0.00    +0.000 HD
ATOM     12  H   UNL     1       6.565   3.665  17.237  0.00  0.00    +0.000 HD
ENDBRANCH   7   8
ENDBRANCH   1   7
TORSDOF 3
ENDMDL
MODEL 6
REMARK VINA RESULT:      -4.3      3.749      4.870
REMARK  Name = 
REMARK  3 active torsions:
REMARK  status: ('A' for Active; 'I' for Inactive)
REMARK    1  A    between atoms: C_2  and  C_4
REMARK    2  A    between atoms: C_4  and  C_5
REMARK    3  A    between atoms: C_5  and  C_6
REMARK                            x       y       z     vdW  Elec       q    Type
REMARK                         _______ _______ _______ _____ _____    ______ ____
ROOT
ATOM      1  C   UNL     1       5.174   5.779  17.709  0.00  0.00    +0.000 C 
ENDROOT
BRANCH   1   3
ATOM      2  N   UNL     1       3.946   5.549  19.781  0.00  0.00    +0.000 N 
ATOM      3  C   UNL     1       4.949   5.042  19.008  0.00  0.00    +0.000 C 
ATOM      4  O   UNL     1       5.592   4.067  19.373  0.00  0.00    +0.000 OA
ATOM      5  H   UNL     1       3.753   5.093  20.663  0.00  0.00    +0.000 HD
ATOM      6  H   UNL     1       3.394   6.352  19.515  0.00  0.00    +0.000 HD
ENDBRANCH   1   3
BRANCH   1   7
ATOM      7  C   UNL     1       5.550   4.818  16.587  0.00  0.00    +0.000 C 
BRANCH   7   8
ATOM      8  C   UNL     1       7.015   4.918  16.236  0.00  0.00    +0.000 C 
ATOM      9  N   UNL     1       7.852   4.321  17.133  0.00  0.00    +0.000 N 
ATOM     10  O   UNL     1       7.454   5.476  15.240  0.00  0.00    +0.000 OA
ATOM     11  H   UNL     1       7.530   3.850  17.967  0.00  0.00    +0.000 HD
ATOM     12  H   UNL     1       8.847   4.358  16.946  0.00  0.00    +0.000 HD
ENDBRANCH   7   8
ENDBRANCH   1   7
TORSDOF 3
ENDMDL
MODEL 7
REMARK VINA RESULT:      -4.3      2.334      3.020
REMARK  Name = 
REMARK  3 active torsions:
REMARK  status: ('A' for Active; 'I' for Inactive)
REMARK    1  A    between atoms: C_2  and  C_4
REMARK    2  A    between atoms: C_4  and  C_5
REMARK    3  A    between atoms: C_5  and  C_6
REMARK                            x       y       z     vdW  Elec       q    Type
REMARK                         _______ _______ _______ _____ _____    ______ ____
ROOT
ATOM      1  C   UNL     1       6.843   5.285  16.560  0.00  0.00    +0.000 C 
ENDROOT
BRANCH   1   3
ATOM      2  N   UNL     1       6.736   4.862  18.939  0.00  0.00    +0.000 N 
ATOM      3  C   UNL     1       7.458   4.675  17.796  0.00  0.00    +0.000 C 
ATOM      4  O   UNL     1       8.514   4.058  17.814  0.00  0.00    +0.000 OA
ATOM      5  H   UNL     1       7.103   4.473  19.798  0.00  0.00    +0.000 HD
ATOM      6  H   UNL     1       5.861   5.366  18.966  0.00  0.00    +0.000 HD
ENDBRANCH   1   3
BRANCH   1   7
ATOM      7  C   UNL     1       6.275   4.213  15.638  0.00  0.00    +0.000 C 
BRANCH   7   8
ATOM      8  C   UNL     1       6.716   4.414  14.209  0.00  0.00    +0.000 C 
ATOM      9  N   UNL     1       6.266   3.465  13.339  0.00  0.00    +0.000 N 
ATOM     10  O   UNL     1       7.419   5.339  13.823  0.00  0.00    +0.000 OA
ATOM     11  H   UNL     1       5.685   2.687  13.617  0.00  0.00    +0.000 HD
ATOM     12  H   UNL     1       6.532   3.552  12.366  0.00  0.00    +0.000 HD
ENDBRANCH   7   8
ENDBRANCH   1   7
TORSDOF 3
ENDMDL
MODEL 8
REMARK VINA RESULT:      -4.2      2.617      2.909
REMARK  Name = 
REMARK  3 active torsions:
REMARK  status: ('A' for Active; 'I' for Inactive)
REMARK    1  A    between atoms: C_2  and  C_4
REMARK    2  A    between atoms: C_4  and  C_5
REMARK    3  A    between atoms: C_5  and  C_6
REMARK                            x       y       z     vdW  Elec       q    Type
REMARK                         _______ _______ _______ _____ _____    ______ ____
ROOT
ATOM      1  C   UNL     1       5.484   4.309  16.368  0.00  0.00    +0.000 C 
ENDROOT
BRANCH   1   3
ATOM      2  N   UNL     1       6.226   4.111  18.662  0.00  0.00    +0.000 N 
ATOM      3  C   UNL     1       6.599   4.396  17.381  0.00  0.00    +0.000 C 
ATOM      4  O   UNL     1       7.756   4.694  17.116  0.00  0.00    +0.000 OA
ATOM      5  H   UNL     1       6.935   4.155  19.382  0.00  0.00    +0.000 HD
ATOM      6  H   UNL     1       5.281   3.863  18.921  0.00  0.00    +0.000 HD
ENDBRANCH   1   3
BRANCH   1   7
ATOM      7  C   UNL     1       5.693   5.300  15.229  0.00  0.00    +0.000 C 
BRANCH   7   8
ATOM      8  C   UNL     1       6.617   4.747  14.171  0.00  0.00    +0.000 C 
ATOM      9  N   UNL     1       7.787   5.432  14.028  0.00  0.00    +0.000 N 
ATOM     10  O   UNL     1       6.373   3.767  13.480  0.00  0.00    +0.000 OA
ATOM     11  H   UNL     1       8.027   6.245  14.578  0.00  0.00    +0.000 HD
ATOM     12  H   UNL     1       8.445   5.104  13.332  0.00  0.00    +0.000 HD
ENDBRANCH   7   8
ENDBRANCH   1   7
TORSDOF 3
ENDMDL
MODEL 9
REMARK VINA RESULT:      -4.2      3.671      4.707
REMARK  Name = 
REMARK  3 active torsions:
REMARK  status: ('A' for Active; 'I' for Inactive)
REMARK    1  A    between atoms: C_2  and  C_4
REMARK    2  A    between atoms: C_4  and  C_5
REMARK    3  A    between atoms: C_5  and  C_6
REMARK                            x       y       z     vdW  Elec       q    Type
REMARK                         _______ _______ _______ _____ _____    ______ ____
ROOT
ATOM      1  C   UNL     1       7.722   4.694  17.871  0.00  0.00    +0.000 C 
ENDROOT
BRANCH   1   3
ATOM      2  N   UNL     1       8.194   6.902  18.741  0.00  0.00    +0.000 N 
ATOM      3  C   UNL     1       7.721   5.656  19.034  0.00  0.00    +0.000 C 
ATOM      4  O   UNL     1       7.338   5.380  20.164  0.00  0.00    +0.000 OA
ATOM      5  H   UNL     1       8.215   7.586  19.485  0.00  0.00    +0.000 HD
ATOM      6  H   UNL     1       8.520   7.168  17.822  0.00  0.00    +0.000 HD
ENDBRANCH   1   3
BRANCH   1   7
ATOM      7  C   UNL     1       6.407   4.755  17.103  0.00  0.00    +0.000 C 
BRANCH   7   8
ATOM      8  C   UNL     1       6.563   5.478  15.787  0.00  0.00    +0.000 C 
ATOM      9  N   UNL     1       5.507   6.273  15.451  0.00  0.00    +0.000 N 
ATOM     10  O   UNL     1       7.540   5.387  15.056  0.00  0.00    +0.000 OA
ATOM     11  H   UNL     1       4.682   6.376  16.026  0.00  0.00    +0.000 HD
ATOM     12  H   UNL     1       5.559   6.782  14.577  0.00  0.00    +0.000 HD
ENDBRANCH   7   8
ENDBRANCH   1   7
TORSDOF 3
ENDMDL
