MODEL 1
REMARK VINA RESULT:      -7.6      0.000      0.000
REMARK  Name = 
REMARK  6 active torsions:
REMARK  status: ('A' for Active; 'I' for Inactive)
REMARK    1  A    between atoms: C_1  and  O_2
REMARK    2  A    between atoms: O_2  and  C_3
REMARK    3  A    between atoms: C_8  and  N_9
REMARK    4  A    between atoms: N_12  and  C_13
REMARK    5  A    between atoms: C_13  and  C_14
REMARK    6  A    between atoms: C_14  and  C_15
REMARK                            x       y       z     vdW  Elec       q    Type
REMARK                         _______ _______ _______ _____ _____    ______ ____
ROOT
ATOM      1  N   UNL     1       5.225   5.824  18.323  0.00  0.00    +0.000 N 
ATOM      2  C   UNL     1       6.357   5.512  19.203  0.00  0.00    +0.000 C 
ATOM      3  C   UNL     1       7.685   5.656  18.430  0.00  0.00    +0.000 C 
ATOM      4  N   UNL     1       7.897   6.932  17.693  0.00  0.00    +0.000 NA
ATOM      5  C   UNL     1       6.700   7.195  16.867  0.00  0.00    +0.000 C 
ATOM      6  C   UNL     1       5.340   7.098  17.601  0.00  0.00    +0.000 C 
ENDROOT
BRANCH   1  12
ATOM      7  C   UNL     1       4.047   3.870  17.340  0.00  0.00    +0.000 A 
ATOM      8  C   UNL     1       2.870   3.104  17.252  0.00  0.00    +0.000 A 
ATOM      9  C   UNL     1       1.771   3.391  18.054  0.00  0.00    +0.000 A 
ATOM     10  C   UNL     1       1.831   4.452  18.944  0.00  0.00    +0.000 A 
ATOM     11  C   UNL     1       2.987   5.232  19.017  0.00  0.00    +0.000 A 
ATOM     12  C   UNL     1       4.126   4.980  18.223  0.00  0.00    +0.000 A 
BRANCH   7  14
ATOM     13  C   UNL     1       5.228   4.179  15.285  0.00  0.00    +0.000 C 
ATOM     14  O   UNL     1       5.156   3.582  16.572  0.00  0.00    +0.000 OA
ENDBRANCH   7  14
ENDBRANCH   1  12
BRANCH   4  15
ATOM     15  C   UNL     1       8.249   8.056  18.560  0.00  0.00    +0.000 C 
BRANCH  15  16
ATOM     16  C   UNL     1       8.025   9.440  17.922  0.00  0.00    +0.000 C 
BRANCH  16  17
ATOM     17  C   UNL     1       9.092  10.522  18.166  0.00  0.00    +0.000 C 
ATOM     18  C   UNL     1       9.819  10.342  19.508  0.00  0.00    +0.000 C 
ATOM     19  C   UNL     1      10.937  11.396  19.596  0.00  0.00    +0.000 C 
ATOM     20  C   UNL     1      10.256  12.734  19.709  0.00  0.00    +0.000 A 
ATOM     21  C   UNL     1      10.764  13.727  20.545  0.00  0.00    +0.000 A 
ATOM     22  C   UNL     1       9.930  14.766  20.951  0.00  0.00    +0.000 A 
ATOM     23  C   UNL     1       8.610  14.830  20.494  0.00  0.00    +0.000 A 
ATOM     24  C   UNL     1       8.162  13.938  19.518  0.00  0.00    +0.000 A 
ATOM     25  C   UNL     1       9.010  12.920  19.091  0.00  0.00    +0.000 A 
ATOM     26  C   UNL     1       8.605  11.974  18.016  0.00  0.00    +0.000 C 
ATOM     27  O   UNL     1       8.060  12.413  16.998  0.00  0.00    +0.000 OA
ENDBRANCH  16  17
ENDBRANCH  15  16
ENDBRANCH   4  15
TORSDOF 5
ENDMDL
MODEL 2
REMARK VINA RESULT:      -7.6      6.430     10.013
REMARK  Name = 
REMARK  6 active torsions:
REMARK  status: ('A' for Active; 'I' for Inactive)
REMARK    1  A    between atoms: C_1  and  O_2
REMARK    2  A    between atoms: O_2  and  C_3
REMARK    3  A    between atoms: C_8  and  N_9
REMARK    4  A    between atoms: N_12  and  C_13
REMARK    5  A    between atoms: C_13  and  C_14
REMARK    6  A    between atoms: C_14  and  C_15
REMARK                            x       y       z     vdW  Elec       q    Type
REMARK                         _______ _______ _______ _____ _____    ______ ____
ROOT
ATOM      1  N   UNL     1      -0.394  11.198  20.501  0.00  0.00    +0.000 N 
ATOM      2  C   UNL     1      -0.512   9.891  19.844  0.00  0.00    +0.000 C 
ATOM      3  C   UNL     1      -0.149  10.014  18.349  0.00  0.00    +0.000 C 
ATOM      4  N   UNL     1       1.144  10.677  18.025  0.00  0.00    +0.000 NA
ATOM      5  C   UNL     1       1.203  11.960  18.756  0.00  0.00    +0.000 C 
ATOM      6  C   UNL     1       0.881  11.890  20.269  0.00  0.00    +0.000 C 
ENDROOT
BRANCH   1  12
ATOM      7  C   UNL     1      -2.521  12.443  20.813  0.00  0.00    +0.000 A 
ATOM      8  C   UNL     1      -3.472  12.980  21.699  0.00  0.00    +0.000 A 
ATOM      9  C   UNL     1      -3.369  12.769  23.070  0.00  0.00    +0.000 A 
ATOM     10  C   UNL     1      -2.310  12.030  23.570  0.00  0.00    +0.000 A 
ATOM     11  C   UNL     1      -1.348  11.517  22.698  0.00  0.00    +0.000 A 
ATOM     12  C   UNL     1      -1.410  11.706  21.301  0.00  0.00    +0.000 A 
BRANCH   7  14
ATOM     13  C   UNL     1      -3.605  11.850  18.766  0.00  0.00    +0.000 C 
ATOM     14  O   UNL     1      -2.624  12.619  19.448  0.00  0.00    +0.000 OA
ENDBRANCH   7  14
ENDBRANCH   1  12
BRANCH   4  15
ATOM     15  C   UNL     1       2.311   9.829  18.267  0.00  0.00    +0.000 C 
BRANCH  15  16
ATOM     16  C   UNL     1       2.114   8.354  17.869  0.00  0.00    +0.000 C 
BRANCH  16  17
ATOM     17  C   UNL     1       2.885   7.288  18.669  0.00  0.00    +0.000 C 
ATOM     18  C   UNL     1       3.434   6.163  17.777  0.00  0.00    +0.000 C 
ATOM     19  C   UNL     1       4.282   5.224  18.653  0.00  0.00    +0.000 C 
ATOM     20  C   UNL     1       3.325   4.533  19.588  0.00  0.00    +0.000 A 
ATOM     21  C   UNL     1       3.489   3.188  19.914  0.00  0.00    +0.000 A 
ATOM     22  C   UNL     1       2.407   2.475  20.422  0.00  0.00    +0.000 A 
ATOM     23  C   UNL     1       1.181   3.113  20.639  0.00  0.00    +0.000 A 
ATOM     24  C   UNL     1       1.074   4.496  20.484  0.00  0.00    +0.000 A 
ATOM     25  C   UNL     1       2.169   5.210  20.005  0.00  0.00    +0.000 A 
ATOM     26  C   UNL     1       2.130   6.692  19.870  0.00  0.00    +0.000 C 
ATOM     27  O   UNL     1       1.655   7.370  20.787  0.00  0.00    +0.000 OA
ENDBRANCH  16  17
ENDBRANCH  15  16
ENDBRANCH   4  15
TORSDOF 5
ENDMDL
MODEL 3
REMARK VINA RESULT:      -7.5      5.404      7.865
REMARK  Name = 
REMARK  6 active torsions:
REMARK  status: ('A' for Active; 'I' for Inactive)
REMARK    1  A    between atoms: C_1  and  O_2
REMARK    2  A    between atoms: O_2  and  C_3
REMARK    3  A    between atoms: C_8  and  N_9
REMARK    4  A    between atoms: N_12  and  C_13
REMARK    5  A    between atoms: C_13  and  C_14
REMARK    6  A    between atoms: C_14  and  C_15
REMARK                            x       y       z     vdW  Elec       q    Type
REMARK                         _______ _______ _______ _____ _____    ______ ____
ROOT
ATOM      1  N   UNL     1       4.385   5.957  17.927  0.00  0.00    +0.000 N 
ATOM      2  C   UNL     1       3.425   7.024  17.626  0.00  0.00    +0.000 C 
ATOM      3  C   UNL     1       2.035   6.662  18.192  0.00  0.00    +0.000 C 
ATOM      4  N   UNL     1       1.978   6.260  19.624  0.00  0.00    +0.000 NA
ATOM      5  C   UNL     1       3.000   5.218  19.854  0.00  0.00    +0.000 C 
ATOM      6  C   UNL     1       4.422   5.543  19.336  0.00  0.00    +0.000 C 
ENDROOT
BRANCH   1  12
ATOM      7  C   UNL     1       6.368   6.056  16.433  0.00  0.00    +0.000 A 
ATOM      8  C   UNL     1       7.109   5.471  15.390  0.00  0.00    +0.000 A 
ATOM      9  C   UNL     1       6.746   4.236  14.863  0.00  0.00    +0.000 A 
ATOM     10  C   UNL     1       5.634   3.578  15.364  0.00  0.00    +0.000 A 
ATOM     11  C   UNL     1       4.879   4.167  16.382  0.00  0.00    +0.000 A 
ATOM     12  C   UNL     1       5.208   5.417  16.945  0.00  0.00    +0.000 A 
BRANCH   7  14
ATOM     13  C   UNL     1       7.825   7.266  17.892  0.00  0.00    +0.000 C 
ATOM     14  O   UNL     1       6.730   7.267  16.986  0.00  0.00    +0.000 OA
ENDBRANCH   7  14
ENDBRANCH   1  12
BRANCH   4  15
ATOM     15  C   UNL     1       2.093   7.385  20.551  0.00  0.00    +0.000 C 
BRANCH  15  16
ATOM     16  C   UNL     1       1.272   8.625  20.146  0.00  0.00    +0.000 C 
BRANCH  16  17
ATOM     17  C   UNL     1       0.818   9.580  21.264  0.00  0.00    +0.000 C 
ATOM     18  C   UNL     1      -0.329   8.999  22.107  0.00  0.00    +0.000 C 
ATOM     19  C   UNL     1      -0.621   9.975  23.260  0.00  0.00    +0.000 C 
ATOM     20  C   UNL     1      -1.202  11.215  22.634  0.00  0.00    +0.000 A 
ATOM     21  C   UNL     1      -2.244  11.905  23.248  0.00  0.00    +0.000 A 
ATOM     22  C   UNL     1      -3.027  12.772  22.489  0.00  0.00    +0.000 A 
ATOM     23  C   UNL     1      -2.742  12.973  21.134  0.00  0.00    +0.000 A 
ATOM     24  C   UNL     1      -1.591  12.422  20.569  0.00  0.00    +0.000 A 
ATOM     25  C   UNL     1      -0.794  11.581  21.342  0.00  0.00    +0.000 A 
ATOM     26  C   UNL     1       0.472  11.009  20.810  0.00  0.00    +0.000 C 
ATOM     27  O   UNL     1       1.250  11.737  20.186  0.00  0.00    +0.000 OA
ENDBRANCH  16  17
ENDBRANCH  15  16
ENDBRANCH   4  15
TORSDOF 5
ENDMDL
MODEL 4
REMARK VINA RESULT:      -7.4      4.469      7.548
REMARK  Name = 
REMARK  6 active torsions:
REMARK  status: ('A' for Active; 'I' for Inactive)
REMARK    1  A    between atoms: C_1  and  O_2
REMARK    2  A    between atoms: O_2  and  C_3
REMARK    3  A    between atoms: C_8  and  N_9
REMARK    4  A    between atoms: N_12  and  C_13
REMARK    5  A    between atoms: C_13  and  C_14
REMARK    6  A    between atoms: C_14  and  C_15
REMARK                            x       y       z     vdW  Elec       q    Type
REMARK                         _______ _______ _______ _____ _____    ______ ____
ROOT
ATOM      1  N   UNL     1       4.691   5.272  17.712  0.00  0.00    +0.000 N 
ATOM      2  C   UNL     1       3.563   6.205  17.601  0.00  0.00    +0.000 C 
ATOM      3  C   UNL     1       2.282   5.559  18.170  0.00  0.00    +0.000 C 
ATOM      4  N   UNL     1       2.376   4.970  19.533  0.00  0.00    +0.000 NA
ATOM      5  C   UNL     1       3.556   4.081  19.574  0.00  0.00    +0.000 C 
ATOM      6  C   UNL     1       4.878   4.690  19.047  0.00  0.00    +0.000 C 
ENDROOT
BRANCH   1  12
ATOM      7  C   UNL     1       6.871   5.433  16.531  0.00  0.00    +0.000 A 
ATOM      8  C   UNL     1       7.623   5.173  15.371  0.00  0.00    +0.000 A 
ATOM      9  C   UNL     1       7.078   4.454  14.313  0.00  0.00    +0.000 A 
ATOM     10  C   UNL     1       5.772   3.998  14.397  0.00  0.00    +0.000 A 
ATOM     11  C   UNL     1       5.011   4.276  15.535  0.00  0.00    +0.000 A 
ATOM     12  C   UNL     1       5.522   5.001  16.631  0.00  0.00    +0.000 A 
BRANCH   7  14
ATOM     13  C   UNL     1       7.498   7.533  17.485  0.00  0.00    +0.000 C 
ATOM     14  O   UNL     1       7.406   6.120  17.601  0.00  0.00    +0.000 OA
ENDBRANCH   7  14
ENDBRANCH   1  12
BRANCH   4  15
ATOM     15  C   UNL     1       2.379   5.969  20.601  0.00  0.00    +0.000 C 
BRANCH  15  16
ATOM     16  C   UNL     1       1.013   6.640  20.843  0.00  0.00    +0.000 C 
BRANCH  16  17
ATOM     17  C   UNL     1       0.994   8.160  21.085  0.00  0.00    +0.000 C 
ATOM     18  C   UNL     1      -0.123   8.591  22.049  0.00  0.00    +0.000 C 
ATOM     19  C   UNL     1       0.024  10.100  22.312  0.00  0.00    +0.000 C 
ATOM     20  C   UNL     1      -0.306  10.794  21.017  0.00  0.00    +0.000 A 
ATOM     21  C   UNL     1      -1.030  11.984  21.007  0.00  0.00    +0.000 A 
ATOM     22  C   UNL     1      -1.669  12.381  19.835  0.00  0.00    +0.000 A 
ATOM     23  C   UNL     1      -1.551  11.612  18.672  0.00  0.00    +0.000 A 
ATOM     24  C   UNL     1      -0.679  10.522  18.638  0.00  0.00    +0.000 A 
ATOM     25  C   UNL     1      -0.018  10.148  19.805  0.00  0.00    +0.000 A 
ATOM     26  C   UNL     1       0.963   9.028  19.815  0.00  0.00    +0.000 C 
ATOM     27  O   UNL     1       1.799   8.949  18.909  0.00  0.00    +0.000 OA
ENDBRANCH  16  17
ENDBRANCH  15  16
ENDBRANCH   4  15
TORSDOF 5
ENDMDL
MODEL 5
REMARK VINA RESULT:      -7.4      1.061      1.865
REMARK  Name = 
REMARK  6 active torsions:
REMARK  status: ('A' for Active; 'I' for Inactive)
REMARK    1  A    between atoms: C_1  and  O_2
REMARK    2  A    between atoms: O_2  and  C_3
REMARK    3  A    between atoms: C_8  and  N_9
REMARK    4  A    between atoms: N_12  and  C_13
REMARK    5  A    between atoms: C_13  and  C_14
REMARK    6  A    between atoms: C_14  and  C_15
REMARK                            x       y       z     vdW  Elec       q    Type
REMARK                         _______ _______ _______ _____ _____    ______ ____
ROOT
ATOM      1  N   UNL     1       5.144   5.785  18.294  0.00  0.00    +0.000 N 
ATOM      2  C   UNL     1       6.265   5.486  19.192  0.00  0.00    +0.000 C 
ATOM      3  C   UNL     1       7.600   5.582  18.423  0.00  0.00    +0.000 C 
ATOM      4  N   UNL     1       7.838   6.828  17.645  0.00  0.00    +0.000 NA
ATOM      5  C   UNL     1       6.650   7.082  16.802  0.00  0.00    +0.000 C 
ATOM      6  C   UNL     1       5.284   7.031  17.529  0.00  0.00    +0.000 C 
ENDROOT
BRANCH   1  12
ATOM      7  C   UNL     1       2.840   5.140  18.962  0.00  0.00    +0.000 A 
ATOM      8  C   UNL     1       1.784   4.214  18.873  0.00  0.00    +0.000 A 
ATOM      9  C   UNL     1       1.867   3.118  18.021  0.00  0.00    +0.000 A 
ATOM     10  C   UNL     1       3.009   2.929  17.258  0.00  0.00    +0.000 A 
ATOM     11  C   UNL     1       4.071   3.830  17.363  0.00  0.00    +0.000 A 
ATOM     12  C   UNL     1       4.032   4.955  18.214  0.00  0.00    +0.000 A 
BRANCH   7  14
ATOM     13  C   UNL     1       1.645   6.331  20.656  0.00  0.00    +0.000 C 
ATOM     14  O   UNL     1       2.762   6.248  19.781  0.00  0.00    +0.000 OA
ENDBRANCH   7  14
ENDBRANCH   1  12
BRANCH   4  15
ATOM     15  C   UNL     1       8.201   7.976  18.476  0.00  0.00    +0.000 C 
BRANCH  15  16
ATOM     16  C   UNL     1       7.896   9.343  17.834  0.00  0.00    +0.000 C 
BRANCH  16  17
ATOM     17  C   UNL     1       8.961  10.447  17.961  0.00  0.00    +0.000 C 
ATOM     18  C   UNL     1       9.811  10.304  19.234  0.00  0.00    +0.000 C 
ATOM     19  C   UNL     1      10.912  11.379  19.201  0.00  0.00    +0.000 C 
ATOM     20  C   UNL     1      10.218  12.706  19.355  0.00  0.00    +0.000 A 
ATOM     21  C   UNL     1      10.782  13.722  20.124  0.00  0.00    +0.000 A 
ATOM     22  C   UNL     1       9.970  14.753  20.589  0.00  0.00    +0.000 A 
ATOM     23  C   UNL     1       8.612  14.786  20.255  0.00  0.00    +0.000 A 
ATOM     24  C   UNL     1       8.093  13.870  19.339  0.00  0.00    +0.000 A 
ATOM     25  C   UNL     1       8.918  12.859  18.852  0.00  0.00    +0.000 A 
ATOM     26  C   UNL     1       8.434  11.887  17.833  0.00  0.00    +0.000 C 
ATOM     27  O   UNL     1       7.790  12.298  16.863  0.00  0.00    +0.000 OA
ENDBRANCH  16  17
ENDBRANCH  15  16
ENDBRANCH   4  15
TORSDOF 5
ENDMDL
MODEL 6
REMARK VINA RESULT:      -7.4      6.062      9.695
REMARK  Name = 
REMARK  6 active torsions:
REMARK  status: ('A' for Active; 'I' for Inactive)
REMARK    1  A    between atoms: C_1  and  O_2
REMARK    2  A    between atoms: O_2  and  C_3
REMARK    3  A    between atoms: C_8  and  N_9
REMARK    4  A    between atoms: N_12  and  C_13
REMARK    5  A    between atoms: C_13  and  C_14
REMARK    6  A    between atoms: C_14  and  C_15
REMARK                            x       y       z     vdW  Elec       q    Type
REMARK                         _______ _______ _______ _____ _____    ______ ____
ROOT
ATOM      1  N   UNL     1      -0.532  10.576  21.992  0.00  0.00    +0.000 N 
ATOM      2  C   UNL     1      -0.568  10.189  20.577  0.00  0.00    +0.000 C 
ATOM      3  C   UNL     1       0.832   9.727  20.119  0.00  0.00    +0.000 C 
ATOM      4  N   UNL     1       1.504   8.694  20.955  0.00  0.00    +0.000 NA
ATOM      5  C   UNL     1       1.459   9.137  22.364  0.00  0.00    +0.000 C 
ATOM      6  C   UNL     1       0.071   9.581  22.887  0.00  0.00    +0.000 C 
ENDROOT
BRANCH   1  12
ATOM      7  C   UNL     1      -0.414  13.039  22.300  0.00  0.00    +0.000 A 
ATOM      8  C   UNL     1      -0.992  14.206  22.832  0.00  0.00    +0.000 A 
ATOM      9  C   UNL     1      -2.231  14.164  23.464  0.00  0.00    +0.000 A 
ATOM     10  C   UNL     1      -2.899  12.956  23.581  0.00  0.00    +0.000 A 
ATOM     11  C   UNL     1      -2.318  11.789  23.078  0.00  0.00    +0.000 A 
ATOM     12  C   UNL     1      -1.064  11.783  22.431  0.00  0.00    +0.000 A 
BRANCH   7  14
ATOM     13  C   UNL     1       0.835  13.688  20.368  0.00  0.00    +0.000 C 
ATOM     14  O   UNL     1       0.800  13.067  21.646  0.00  0.00    +0.000 OA
ENDBRANCH   7  14
ENDBRANCH   1  12
BRANCH   4  15
ATOM     15  C   UNL     1       0.966   7.348  20.763  0.00  0.00    +0.000 C 
BRANCH  15  16
ATOM     16  C   UNL     1       2.039   6.264  20.542  0.00  0.00    +0.000 C 
BRANCH  16  17
ATOM     17  C   UNL     1       2.304   5.804  19.097  0.00  0.00    +0.000 C 
ATOM     18  C   UNL     1       2.758   4.338  19.019  0.00  0.00    +0.000 C 
ATOM     19  C   UNL     1       2.878   3.949  17.534  0.00  0.00    +0.000 C 
ATOM     20  C   UNL     1       4.036   4.735  16.979  0.00  0.00    +0.000 A 
ATOM     21  C   UNL     1       4.915   4.162  16.063  0.00  0.00    +0.000 A 
ATOM     22  C   UNL     1       6.174   4.729  15.882  0.00  0.00    +0.000 A 
ATOM     23  C   UNL     1       6.534   5.884  16.585  0.00  0.00    +0.000 A 
ATOM     24  C   UNL     1       5.588   6.556  17.361  0.00  0.00    +0.000 A 
ATOM     25  C   UNL     1       4.320   6.001  17.514  0.00  0.00    +0.000 A 
ATOM     26  C   UNL     1       3.255   6.699  18.285  0.00  0.00    +0.000 C 
ATOM     27  O   UNL     1       3.079   7.909  18.113  0.00  0.00    +0.000 OA
ENDBRANCH  16  17
ENDBRANCH  15  16
ENDBRANCH   4  15
TORSDOF 5
ENDMDL
MODEL 7
REMARK VINA RESULT:      -7.2      5.447      7.891
REMARK  Name = 
REMARK  6 active torsions:
REMARK  status: ('A' for Active; 'I' for Inactive)
REMARK    1  A    between atoms: C_1  and  O_2
REMARK    2  A    between atoms: O_2  and  C_3
REMARK    3  A    between atoms: C_8  and  N_9
REMARK    4  A    between atoms: N_12  and  C_13
REMARK    5  A    between atoms: C_13  and  C_14
REMARK    6  A    between atoms: C_14  and  C_15
REMARK                            x       y       z     vdW  Elec       q    Type
REMARK                         _______ _______ _______ _____ _____    ______ ____
ROOT
ATOM      1  N   UNL     1       4.254   5.980  18.175  0.00  0.00    +0.000 N 
ATOM      2  C   UNL     1       3.383   7.119  17.862  0.00  0.00    +0.000 C 
ATOM      3  C   UNL     1       1.942   6.831  18.335  0.00  0.00    +0.000 C 
ATOM      4  N   UNL     1       1.775   6.383  19.744  0.00  0.00    +0.000 NA
ATOM      5  C   UNL     1       2.713   5.268  19.991  0.00  0.00    +0.000 C 
ATOM      6  C   UNL     1       4.181   5.516  19.567  0.00  0.00    +0.000 C 
ENDROOT
BRANCH   1  12
ATOM      7  C   UNL     1       4.829   4.212  16.528  0.00  0.00    +0.000 A 
ATOM      8  C   UNL     1       5.767   3.680  15.624  0.00  0.00    +0.000 A 
ATOM      9  C   UNL     1       6.959   4.346  15.359  0.00  0.00    +0.000 A 
ATOM     10  C   UNL     1       7.231   5.544  16.001  0.00  0.00    +0.000 A 
ATOM     11  C   UNL     1       6.316   6.063  16.919  0.00  0.00    +0.000 A 
ATOM     12  C   UNL     1       5.096   5.422  17.221  0.00  0.00    +0.000 A 
BRANCH   7  14
ATOM     13  C   UNL     1       3.662   2.449  17.644  0.00  0.00    +0.000 C 
ATOM     14  O   UNL     1       3.630   3.578  16.782  0.00  0.00    +0.000 OA
ENDBRANCH   7  14
ENDBRANCH   1  12
BRANCH   4  15
ATOM     15  C   UNL     1       1.908   7.465  20.720  0.00  0.00    +0.000 C 
BRANCH  15  16
ATOM     16  C   UNL     1       1.317   8.810  20.256  0.00  0.00    +0.000 C 
BRANCH  16  17
ATOM     17  C   UNL     1       0.781   9.767  21.336  0.00  0.00    +0.000 C 
ATOM     18  C   UNL     1      -0.332   9.134  22.186  0.00  0.00    +0.000 C 
ATOM     19  C   UNL     1      -0.708  10.126  23.303  0.00  0.00    +0.000 C 
ATOM     20  C   UNL     1      -1.367  11.299  22.628  0.00  0.00    +0.000 A 
ATOM     21  C   UNL     1      -2.464  11.933  23.207  0.00  0.00    +0.000 A 
ATOM     22  C   UNL     1      -3.297  12.714  22.410  0.00  0.00    +0.000 A 
ATOM     23  C   UNL     1      -3.011  12.890  21.052  0.00  0.00    +0.000 A 
ATOM     24  C   UNL     1      -1.816  12.404  20.519  0.00  0.00    +0.000 A 
ATOM     25  C   UNL     1      -0.971  11.650  21.328  0.00  0.00    +0.000 A 
ATOM     26  C   UNL     1       0.340  11.152  20.829  0.00  0.00    +0.000 C 
ATOM     27  O   UNL     1       1.072  11.913  20.188  0.00  0.00    +0.000 OA
ENDBRANCH  16  17
ENDBRANCH  15  16
ENDBRANCH   4  15
TORSDOF 5
ENDMDL
MODEL 8
REMARK VINA RESULT:      -7.1      5.525      7.103
REMARK  Name = 
REMARK  6 active torsions:
REMARK  status: ('A' for Active; 'I' for Inactive)
REMARK    1  A    between atoms: C_1  and  O_2
REMARK    2  A    between atoms: O_2  and  C_3
REMARK    3  A    between atoms: C_8  and  N_9
REMARK    4  A    between atoms: N_12  and  C_13
REMARK    5  A    between atoms: C_13  and  C_14
REMARK    6  A    between atoms: C_14  and  C_15
REMARK                            x       y       z     vdW  Elec       q    Type
REMARK                         _______ _______ _______ _____ _____    ______ ____
ROOT
ATOM      1  N   UNL     1       4.764   4.783  16.444  0.00  0.00    +0.000 N 
ATOM      2  C   UNL     1       4.116   3.675  17.156  0.00  0.00    +0.000 C 
ATOM      3  C   UNL     1       4.435   3.754  18.663  0.00  0.00    +0.000 C 
ATOM      4  N   UNL     1       4.185   5.058  19.335  0.00  0.00    +0.000 NA
ATOM      5  C   UNL     1       4.831   6.122  18.537  0.00  0.00    +0.000 C 
ATOM      6  C   UNL     1       4.518   6.111  17.021  0.00  0.00    +0.000 C 
ENDROOT
BRANCH   1  12
ATOM      7  C   UNL     1       6.896   4.902  15.174  0.00  0.00    +0.000 A 
ATOM      8  C   UNL     1       7.572   4.715  13.955  0.00  0.00    +0.000 A 
ATOM      9  C   UNL     1       6.922   4.165  12.855  0.00  0.00    +0.000 A 
ATOM     10  C   UNL     1       5.587   3.807  12.958  0.00  0.00    +0.000 A 
ATOM     11  C   UNL     1       4.903   4.014  14.158  0.00  0.00    +0.000 A 
ATOM     12  C   UNL     1       5.521   4.570  15.298  0.00  0.00    +0.000 A 
BRANCH   7  14
ATOM     13  C   UNL     1       7.807   4.525  17.352  0.00  0.00    +0.000 C 
ATOM     14  O   UNL     1       7.533   5.420  16.282  0.00  0.00    +0.000 OA
ENDBRANCH   7  14
ENDBRANCH   1  12
BRANCH   4  15
ATOM     15  C   UNL     1       2.770   5.320  19.593  0.00  0.00    +0.000 C 
BRANCH  15  16
ATOM     16  C   UNL     1       2.189   6.499  18.789  0.00  0.00    +0.000 C 
BRANCH  16  17
ATOM     17  C   UNL     1       2.061   7.858  19.503  0.00  0.00    +0.000 C 
ATOM     18  C   UNL     1       1.237   7.769  20.797  0.00  0.00    +0.000 C 
ATOM     19  C   UNL     1       1.274   9.145  21.486  0.00  0.00    +0.000 C 
ATOM     20  C   UNL     1       0.494  10.084  20.605  0.00  0.00    +0.000 A 
ATOM     21  C   UNL     1      -0.338  11.057  21.155  0.00  0.00    +0.000 A 
ATOM     22  C   UNL     1      -1.338  11.621  20.368  0.00  0.00    +0.000 A 
ATOM     23  C   UNL     1      -1.479  11.242  19.029  0.00  0.00    +0.000 A 
ATOM     24  C   UNL     1      -0.533  10.406  18.434  0.00  0.00    +0.000 A 
ATOM     25  C   UNL     1       0.484   9.869  19.218  0.00  0.00    +0.000 A 
ATOM     26  C   UNL     1       1.551   9.015  18.627  0.00  0.00    +0.000 C 
ATOM     27  O   UNL     1       2.083   9.360  17.567  0.00  0.00    +0.000 OA
ENDBRANCH  16  17
ENDBRANCH  15  16
ENDBRANCH   4  15
TORSDOF 5
ENDMDL
MODEL 9
REMARK VINA RESULT:      -7.1      1.445      2.020
REMARK  Name = 
REMARK  6 active torsions:
REMARK  status: ('A' for Active; 'I' for Inactive)
REMARK    1  A    between atoms: C_1  and  O_2
REMARK    2  A    between atoms: O_2  and  C_3
REMARK    3  A    between atoms: C_8  and  N_9
REMARK    4  A    between atoms: N_12  and  C_13
REMARK    5  A    between atoms: C_13  and  C_14
REMARK    6  A    between atoms: C_14  and  C_15
REMARK                            x       y       z     vdW  Elec       q    Type
REMARK                         _______ _______ _______ _____ _____    ______ ____
ROOT
ATOM      1  N   UNL     1       5.279   5.832  18.276  0.00  0.00    +0.000 N 
ATOM      2  C   UNL     1       6.344   5.469  19.218  0.00  0.00    +0.000 C 
ATOM      3  C   UNL     1       7.725   5.655  18.554  0.00  0.00    +0.000 C 
ATOM      4  N   UNL     1       7.987   6.969  17.907  0.00  0.00    +0.000 NA
ATOM      5  C   UNL     1       6.853   7.280  17.012  0.00  0.00    +0.000 C 
ATOM      6  C   UNL     1       5.444   7.143  17.637  0.00  0.00    +0.000 C 
ENDROOT
BRANCH   1  12
ATOM      7  C   UNL     1       2.835   5.400  18.153  0.00  0.00    +0.000 A 
ATOM      8  C   UNL     1       1.794   4.472  17.970  0.00  0.00    +0.000 A 
ATOM      9  C   UNL     1       2.066   3.148  17.644  0.00  0.00    +0.000 A 
ATOM     10  C   UNL     1       3.382   2.734  17.508  0.00  0.00    +0.000 A 
ATOM     11  C   UNL     1       4.421   3.644  17.714  0.00  0.00    +0.000 A 
ATOM     12  C   UNL     1       4.192   4.996  18.047  0.00  0.00    +0.000 A 
BRANCH   7  14
ATOM     13  C   UNL     1       2.224   7.031  19.789  0.00  0.00    +0.000 C 
ATOM     14  O   UNL     1       2.581   6.723  18.449  0.00  0.00    +0.000 OA
ENDBRANCH   7  14
ENDBRANCH   1  12
BRANCH   4  15
ATOM     15  C   UNL     1       8.271   8.042  18.860  0.00  0.00    +0.000 C 
BRANCH  15  16
ATOM     16  C   UNL     1       8.672   9.378  18.206  0.00  0.00    +0.000 C 
BRANCH  16  17
ATOM     17  C   UNL     1       9.598  10.315  19.002  0.00  0.00    +0.000 C 
ATOM     18  C   UNL     1       8.954  10.818  20.303  0.00  0.00    +0.000 C 
ATOM     19  C   UNL     1      10.001  11.642  21.073  0.00  0.00    +0.000 C 
ATOM     20  C   UNL     1      10.242  12.889  20.263  0.00  0.00    +0.000 A 
ATOM     21  C   UNL     1      10.425  14.122  20.886  0.00  0.00    +0.000 A 
ATOM     22  C   UNL     1      10.234  15.289  20.152  0.00  0.00    +0.000 A 
ATOM     23  C   UNL     1       9.900  15.222  18.795  0.00  0.00    +0.000 A 
ATOM     24  C   UNL     1       9.897  13.992  18.134  0.00  0.00    +0.000 A 
ATOM     25  C   UNL     1      10.119  12.830  18.867  0.00  0.00    +0.000 A 
ATOM     26  C   UNL     1      10.180  11.497  18.207  0.00  0.00    +0.000 C 
ATOM     27  O   UNL     1      10.823  11.370  17.160  0.00  0.00    +0.000 OA
ENDBRANCH  16  17
ENDBRANCH  15  16
ENDBRANCH   4  15
TORSDOF 5
ENDMDL
