MODEL 1
REMARK VINA RESULT:      -8.2      0.000      0.000
REMARK  Name = 
REMARK  9 active torsions:
REMARK  status: ('A' for Active; 'I' for Inactive)
REMARK    1  A    between atoms: C_1  and  C_2
REMARK    2  A    between atoms: C_4  and  C_5
REMARK    3  A    between atoms: C_7  and  N_8
REMARK    4  A    between atoms: C_9  and  C_11
REMARK    5  A    between atoms: C_11  and  S_12
REMARK    6  A    between atoms: S_12  and  C_13
REMARK    7  A    between atoms: C_16  and  C_17
REMARK    8  A    between atoms: C_17  and  O_18
REMARK    9  A    between atoms: O_18  and  C_19
REMARK                            x       y       z     vdW  Elec       q    Type
REMARK                         _______ _______ _______ _____ _____    ______ ____
ROOT
ATOM      1  S   UNL     1       7.610   4.710  17.847  0.00  0.00    +0.000 S 
ENDROOT
BRANCH   1   2
ATOM      2  C   UNL     1       7.652   6.446  17.823  0.00  0.00    +0.000 A 
ATOM      3  N   UNL     1       6.958   7.154  16.955  0.00  0.00    +0.000 NA
ATOM      4  N   UNL     1       7.287   8.477  17.155  0.00  0.00    +0.000 NA
ATOM      5  C   UNL     1       8.174   8.496  18.126  0.00  0.00    +0.000 A 
ATOM      6  O   UNL     1       8.434   7.238  18.628  0.00  0.00    +0.000 OA
BRANCH   5   7
ATOM      7  C   UNL     1       8.768   9.667  18.824  0.00  0.00    +0.000 C 
BRANCH   7   8
ATOM      8  O   UNL     1       9.603  10.396  17.913  0.00  0.00    +0.000 OA
BRANCH   8   9
ATOM      9  C   UNL     1       9.593  11.763  18.093  0.00  0.00    +0.000 A 
ATOM     10  C   UNL     1       8.498  12.570  17.757  0.00  0.00    +0.000 A 
ATOM     11  C   UNL     1       8.528  13.949  17.975  0.00  0.00    +0.000 A 
ATOM     12  C   UNL     1       9.650  14.544  18.549  0.00  0.00    +0.000 A 
ATOM     13  C   UNL     1      10.741  13.755  18.904  0.00  0.00    +0.000 A 
ATOM     14  C   UNL     1      10.713  12.370  18.687  0.00  0.00    +0.000 A 
ATOM     15 CL   UNL     1      12.102  11.454  19.147  0.00  0.00    +0.000 Cl
ENDBRANCH   8   9
ENDBRANCH   7   8
ENDBRANCH   5   7
ENDBRANCH   1   2
BRANCH   1  16
ATOM     16  C   UNL     1       6.373   4.310  16.587  0.00  0.00    +0.000 C 
BRANCH  16  18
ATOM     17  N   UNL     1       4.933   4.759  18.522  0.00  0.00    +0.000 N 
ATOM     18  C   UNL     1       4.978   4.297  17.211  0.00  0.00    +0.000 C 
ATOM     19  O   UNL     1       4.023   3.879  16.560  0.00  0.00    +0.000 OA
ATOM     20  H   UNL     1       5.774   5.205  18.871  0.00  0.00    +0.000 HD
BRANCH  17  27
ATOM     21  C   UNL     1       1.450   7.704  20.419  0.00  0.00    +0.000 C 
ATOM     22  C   UNL     1       2.060   6.339  20.276  0.00  0.00    +0.000 A 
ATOM     23  C   UNL     1       1.453   5.231  20.875  0.00  0.00    +0.000 A 
ATOM     24  C   UNL     1       2.004   3.955  20.728  0.00  0.00    +0.000 A 
ATOM     25  C   UNL     1       1.370   2.756  21.370  0.00  0.00    +0.000 C 
ATOM     26  C   UNL     1       3.166   3.790  19.958  0.00  0.00    +0.000 A 
ATOM     27  C   UNL     1       3.783   4.879  19.339  0.00  0.00    +0.000 A 
ATOM     28  C   UNL     1       3.234   6.157  19.523  0.00  0.00    +0.000 A 
ENDBRANCH  17  27
ENDBRANCH  16  18
ENDBRANCH   1  16
TORSDOF 7
ENDMDL
MODEL 2
REMARK VINA RESULT:      -7.9      1.474      1.663
REMARK  Name = 
REMARK  9 active torsions:
REMARK  status: ('A' for Active; 'I' for Inactive)
REMARK    1  A    between atoms: C_1  and  C_2
REMARK    2  A    between atoms: C_4  and  C_5
REMARK    3  A    between atoms: C_7  and  N_8
REMARK    4  A    between atoms: C_9  and  C_11
REMARK    5  A    between atoms: C_11  and  S_12
REMARK    6  A    between atoms: S_12  and  C_13
REMARK    7  A    between atoms: C_16  and  C_17
REMARK    8  A    between atoms: C_17  and  O_18
REMARK    9  A    between atoms: O_18  and  C_19
REMARK                            x       y       z     vdW  Elec       q    Type
REMARK                         _______ _______ _______ _____ _____    ______ ____
ROOT
ATOM      1  S   UNL     1       6.295   5.693  15.654  0.00  0.00    +0.000 S 
ENDROOT
BRANCH   1   2
ATOM      2  C   UNL     1       7.143   6.645  16.834  0.00  0.00    +0.000 A 
ATOM      3  N   UNL     1       7.687   6.111  17.908  0.00  0.00    +0.000 NA
ATOM      4  N   UNL     1       8.195   7.146  18.663  0.00  0.00    +0.000 NA
ATOM      5  C   UNL     1       7.917   8.253  18.009  0.00  0.00    +0.000 A 
ATOM      6  O   UNL     1       7.275   8.013  16.812  0.00  0.00    +0.000 OA
BRANCH   5   7
ATOM      7  C   UNL     1       8.344   9.646  18.309  0.00  0.00    +0.000 C 
BRANCH   7   8
ATOM      8  O   UNL     1       9.309   9.634  19.371  0.00  0.00    +0.000 OA
BRANCH   8   9
ATOM      9  C   UNL     1       9.553  10.866  19.940  0.00  0.00    +0.000 A 
ATOM     10  C   UNL     1       9.104  11.219  21.219  0.00  0.00    +0.000 A 
ATOM     11  C   UNL     1       9.391  12.473  21.761  0.00  0.00    +0.000 A 
ATOM     12  C   UNL     1      10.149  13.392  21.038  0.00  0.00    +0.000 A 
ATOM     13  C   UNL     1      10.618  13.053  19.772  0.00  0.00    +0.000 A 
ATOM     14  C   UNL     1      10.331  11.794  19.226  0.00  0.00    +0.000 A 
ATOM     15 CL   UNL     1      10.940  11.441  17.650  0.00  0.00    +0.000 Cl
ENDBRANCH   8   9
ENDBRANCH   7   8
ENDBRANCH   5   7
ENDBRANCH   1   2
BRANCH   1  16
ATOM     16  C   UNL     1       6.120   4.087  16.469  0.00  0.00    +0.000 C 
BRANCH  16  18
ATOM     17  N   UNL     1       4.795   4.641  18.459  0.00  0.00    +0.000 N 
ATOM     18  C   UNL     1       4.786   4.023  17.213  0.00  0.00    +0.000 C 
ATOM     19  O   UNL     1       3.832   3.439  16.704  0.00  0.00    +0.000 OA
ATOM     20  H   UNL     1       5.610   5.204  18.675  0.00  0.00    +0.000 HD
BRANCH  17  27
ATOM     21  C   UNL     1       1.462   7.575  20.622  0.00  0.00    +0.000 C 
ATOM     22  C   UNL     1       2.056   6.210  20.424  0.00  0.00    +0.000 A 
ATOM     23  C   UNL     1       1.490   5.098  21.055  0.00  0.00    +0.000 A 
ATOM     24  C   UNL     1       2.026   3.822  20.858  0.00  0.00    +0.000 A 
ATOM     25  C   UNL     1       1.436   2.619  21.532  0.00  0.00    +0.000 C 
ATOM     26  C   UNL     1       3.131   3.663  20.007  0.00  0.00    +0.000 A 
ATOM     27  C   UNL     1       3.706   4.755  19.356  0.00  0.00    +0.000 A 
ATOM     28  C   UNL     1       3.175   6.033  19.589  0.00  0.00    +0.000 A 
ENDBRANCH  17  27
ENDBRANCH  16  18
ENDBRANCH   1  16
TORSDOF 7
ENDMDL
MODEL 3
REMARK VINA RESULT:      -7.8      4.833      6.726
REMARK  Name = 
REMARK  9 active torsions:
REMARK  status: ('A' for Active; 'I' for Inactive)
REMARK    1  A    between atoms: C_1  and  C_2
REMARK    2  A    between atoms: C_4  and  C_5
REMARK    3  A    between atoms: C_7  and  N_8
REMARK    4  A    between atoms: C_9  and  C_11
REMARK    5  A    between atoms: C_11  and  S_12
REMARK    6  A    between atoms: S_12  and  C_13
REMARK    7  A    between atoms: C_16  and  C_17
REMARK    8  A    between atoms: C_17  and  O_18
REMARK    9  A    between atoms: O_18  and  C_19
REMARK                            x       y       z     vdW  Elec       q    Type
REMARK                         _______ _______ _______ _____ _____    ______ ____
ROOT
ATOM      1  S   UNL     1       3.387   2.697  18.754  0.00  0.00    +0.000 S 
ENDROOT
BRANCH   1   2
ATOM      2  C   UNL     1       4.738   3.709  18.347  0.00  0.00    +0.000 A 
ATOM      3  N   UNL     1       5.673   4.020  19.222  0.00  0.00    +0.000 NA
ATOM      4  N   UNL     1       6.535   4.897  18.601  0.00  0.00    +0.000 NA
ATOM      5  C   UNL     1       6.066   5.080  17.386  0.00  0.00    +0.000 A 
ATOM      6  O   UNL     1       4.938   4.328  17.136  0.00  0.00    +0.000 OA
BRANCH   5   7
ATOM      7  C   UNL     1       6.675   5.830  16.254  0.00  0.00    +0.000 C 
BRANCH   7   8
ATOM      8  O   UNL     1       7.560   4.966  15.527  0.00  0.00    +0.000 OA
BRANCH   8   9
ATOM      9  C   UNL     1       7.084   4.556  14.300  0.00  0.00    +0.000 A 
ATOM     10  C   UNL     1       5.935   3.768  14.150  0.00  0.00    +0.000 A 
ATOM     11  C   UNL     1       5.480   3.392  12.885  0.00  0.00    +0.000 A 
ATOM     12  C   UNL     1       6.158   3.815  11.743  0.00  0.00    +0.000 A 
ATOM     13  C   UNL     1       7.292   4.612  11.871  0.00  0.00    +0.000 A 
ATOM     14  C   UNL     1       7.750   4.991  13.140  0.00  0.00    +0.000 A 
ATOM     15 CL   UNL     1       9.165   5.977  13.227  0.00  0.00    +0.000 Cl
ENDBRANCH   8   9
ENDBRANCH   7   8
ENDBRANCH   5   7
ENDBRANCH   1   2
BRANCH   1  16
ATOM     16  C   UNL     1       2.965   3.228  20.432  0.00  0.00    +0.000 C 
BRANCH  16  18
ATOM     17  N   UNL     1       2.657   5.656  20.246  0.00  0.00    +0.000 N 
ATOM     18  C   UNL     1       2.018   4.427  20.377  0.00  0.00    +0.000 C 
ATOM     19  O   UNL     1       0.805   4.250  20.467  0.00  0.00    +0.000 OA
ATOM     20  H   UNL     1       3.648   5.627  20.036  0.00  0.00    +0.000 HD
BRANCH  17  27
ATOM     21  C   UNL     1      -0.155   9.103  22.393  0.00  0.00    +0.000 C 
ATOM     22  C   UNL     1       0.648   8.631  21.215  0.00  0.00    +0.000 A 
ATOM     23  C   UNL     1       0.827   9.464  20.106  0.00  0.00    +0.000 A 
ATOM     24  C   UNL     1       1.590   9.037  19.015  0.00  0.00    +0.000 A 
ATOM     25  C   UNL     1       1.786   9.915  17.814  0.00  0.00    +0.000 C 
ATOM     26  C   UNL     1       2.191   7.770  19.048  0.00  0.00    +0.000 A 
ATOM     27  C   UNL     1       2.039   6.925  20.149  0.00  0.00    +0.000 A 
ATOM     28  C   UNL     1       1.244   7.357  21.222  0.00  0.00    +0.000 A 
ENDBRANCH  17  27
ENDBRANCH  16  18
ENDBRANCH   1  16
TORSDOF 7
ENDMDL
MODEL 4
REMARK VINA RESULT:      -7.8      1.496      1.625
REMARK  Name = 
REMARK  9 active torsions:
REMARK  status: ('A' for Active; 'I' for Inactive)
REMARK    1  A    between atoms: C_1  and  C_2
REMARK    2  A    between atoms: C_4  and  C_5
REMARK    3  A    between atoms: C_7  and  N_8
REMARK    4  A    between atoms: C_9  and  C_11
REMARK    5  A    between atoms: C_11  and  S_12
REMARK    6  A    between atoms: S_12  and  C_13
REMARK    7  A    between atoms: C_16  and  C_17
REMARK    8  A    between atoms: C_17  and  O_18
REMARK    9  A    between atoms: O_18  and  C_19
REMARK                            x       y       z     vdW  Elec       q    Type
REMARK                         _______ _______ _______ _____ _____    ______ ____
ROOT
ATOM      1  S   UNL     1       7.839   5.265  18.644  0.00  0.00    +0.000 S 
ENDROOT
BRANCH   1   2
ATOM      2  C   UNL     1       7.792   6.947  18.214  0.00  0.00    +0.000 A 
ATOM      3  N   UNL     1       7.005   7.408  17.263  0.00  0.00    +0.000 NA
ATOM      4  N   UNL     1       7.279   8.751  17.124  0.00  0.00    +0.000 NA
ATOM      5  C   UNL     1       8.230   9.027  17.990  0.00  0.00    +0.000 A 
ATOM      6  O   UNL     1       8.588   7.931  18.748  0.00  0.00    +0.000 OA
BRANCH   5   7
ATOM      7  C   UNL     1       8.812  10.348  18.348  0.00  0.00    +0.000 C 
BRANCH   7   8
ATOM      8  O   UNL     1       9.434  10.265  19.638  0.00  0.00    +0.000 OA
BRANCH   8   9
ATOM      9  C   UNL     1       9.669  11.482  20.242  0.00  0.00    +0.000 A 
ATOM     10  C   UNL     1       8.931  11.946  21.339  0.00  0.00    +0.000 A 
ATOM     11  C   UNL     1       9.218  13.178  21.929  0.00  0.00    +0.000 A 
ATOM     12  C   UNL     1      10.261  13.963  21.441  0.00  0.00    +0.000 A 
ATOM     13  C   UNL     1      11.016  13.511  20.363  0.00  0.00    +0.000 A 
ATOM     14  C   UNL     1      10.731  12.273  19.769  0.00  0.00    +0.000 A 
ATOM     15 CL   UNL     1      11.703  11.777  18.432  0.00  0.00    +0.000 Cl
ENDBRANCH   8   9
ENDBRANCH   7   8
ENDBRANCH   5   7
ENDBRANCH   1   2
BRANCH   1  16
ATOM     16  C   UNL     1       7.138   4.448  17.189  0.00  0.00    +0.000 C 
BRANCH  16  18
ATOM     17  N   UNL     1       5.170   4.469  18.654  0.00  0.00    +0.000 N 
ATOM     18  C   UNL     1       5.625   4.303  17.351  0.00  0.00    +0.000 C 
ATOM     19  O   UNL     1       4.930   4.039  16.372  0.00  0.00    +0.000 OA
ATOM     20  H   UNL     1       5.843   4.827  19.323  0.00  0.00    +0.000 HD
BRANCH  17  27
ATOM     21  C   UNL     1       1.420   6.753  20.918  0.00  0.00    +0.000 C 
ATOM     22  C   UNL     1       1.972   5.545  20.216  0.00  0.00    +0.000 A 
ATOM     23  C   UNL     1       1.148   4.446  19.955  0.00  0.00    +0.000 A 
ATOM     24  C   UNL     1       1.650   3.327  19.285  0.00  0.00    +0.000 A 
ATOM     25  C   UNL     1       0.782   2.136  19.002  0.00  0.00    +0.000 C 
ATOM     26  C   UNL     1       2.988   3.321  18.860  0.00  0.00    +0.000 A 
ATOM     27  C   UNL     1       3.827   4.411  19.097  0.00  0.00    +0.000 A 
ATOM     28  C   UNL     1       3.315   5.514  19.799  0.00  0.00    +0.000 A 
ENDBRANCH  17  27
ENDBRANCH  16  18
ENDBRANCH   1  16
TORSDOF 7
ENDMDL
MODEL 5
REMARK VINA RESULT:      -7.6      2.615      9.743
REMARK  Name = 
REMARK  9 active torsions:
REMARK  status: ('A' for Active; 'I' for Inactive)
REMARK    1  A    between atoms: C_1  and  C_2
REMARK    2  A    between atoms: C_4  and  C_5
REMARK    3  A    between atoms: C_7  and  N_8
REMARK    4  A    between atoms: C_9  and  C_11
REMARK    5  A    between atoms: C_11  and  S_12
REMARK    6  A    between atoms: S_12  and  C_13
REMARK    7  A    between atoms: C_16  and  C_17
REMARK    8  A    between atoms: C_17  and  O_18
REMARK    9  A    between atoms: O_18  and  C_19
REMARK                            x       y       z     vdW  Elec       q    Type
REMARK                         _______ _______ _______ _____ _____    ______ ____
ROOT
ATOM      1  S   UNL     1       8.345   7.062  18.752  0.00  0.00    +0.000 S 
ENDROOT
BRANCH   1   2
ATOM      2  C   UNL     1       7.008   5.960  18.628  0.00  0.00    +0.000 A 
ATOM      3  N   UNL     1       6.681   5.140  19.605  0.00  0.00    +0.000 NA
ATOM      4  N   UNL     1       5.644   4.356  19.147  0.00  0.00    +0.000 NA
ATOM      5  C   UNL     1       5.409   4.738  17.910  0.00  0.00    +0.000 A 
ATOM      6  O   UNL     1       6.219   5.783  17.517  0.00  0.00    +0.000 OA
BRANCH   5   7
ATOM      7  C   UNL     1       4.317   4.313  16.994  0.00  0.00    +0.000 C 
BRANCH   7   8
ATOM      8  O   UNL     1       3.109   5.010  17.332  0.00  0.00    +0.000 OA
BRANCH   8   9
ATOM      9  C   UNL     1       2.317   4.369  18.261  0.00  0.00    +0.000 A 
ATOM     10  C   UNL     1       1.826   3.069  18.080  0.00  0.00    +0.000 A 
ATOM     11  C   UNL     1       1.042   2.454  19.057  0.00  0.00    +0.000 A 
ATOM     12  C   UNL     1       0.748   3.124  20.244  0.00  0.00    +0.000 A 
ATOM     13  C   UNL     1       1.240   4.410  20.449  0.00  0.00    +0.000 A 
ATOM     14  C   UNL     1       2.029   5.029  19.469  0.00  0.00    +0.000 A 
ATOM     15 CL   UNL     1       2.603   6.626  19.786  0.00  0.00    +0.000 Cl
ENDBRANCH   8   9
ENDBRANCH   7   8
ENDBRANCH   5   7
ENDBRANCH   1   2
BRANCH   1  16
ATOM     16  C   UNL     1       7.756   8.526  17.866  0.00  0.00    +0.000 C 
BRANCH  16  18
ATOM     17  N   UNL     1       8.369  10.876  17.511  0.00  0.00    +0.000 N 
ATOM     18  C   UNL     1       8.533   9.760  18.324  0.00  0.00    +0.000 C 
ATOM     19  O   UNL     1       9.244   9.696  19.326  0.00  0.00    +0.000 OA
ATOM     20  H   UNL     1       7.639  10.817  16.809  0.00  0.00    +0.000 HD
BRANCH  17  27
ATOM     21  C   UNL     1       7.655  15.706  18.256  0.00  0.00    +0.000 C 
ATOM     22  C   UNL     1       8.589  14.545  18.069  0.00  0.00    +0.000 A 
ATOM     23  C   UNL     1       9.972  14.733  18.158  0.00  0.00    +0.000 A 
ATOM     24  C   UNL     1      10.845  13.653  18.006  0.00  0.00    +0.000 A 
ATOM     25  C   UNL     1      12.332  13.838  18.091  0.00  0.00    +0.000 C 
ATOM     26  C   UNL     1      10.322  12.371  17.779  0.00  0.00    +0.000 A 
ATOM     27  C   UNL     1       8.946  12.155  17.699  0.00  0.00    +0.000 A 
ATOM     28  C   UNL     1       8.084  13.256  17.823  0.00  0.00    +0.000 A 
ENDBRANCH  17  27
ENDBRANCH  16  18
ENDBRANCH   1  16
TORSDOF 7
ENDMDL
MODEL 6
REMARK VINA RESULT:      -7.6      4.775      7.311
REMARK  Name = 
REMARK  9 active torsions:
REMARK  status: ('A' for Active; 'I' for Inactive)
REMARK    1  A    between atoms: C_1  and  C_2
REMARK    2  A    between atoms: C_4  and  C_5
REMARK    3  A    between atoms: C_7  and  N_8
REMARK    4  A    between atoms: C_9  and  C_11
REMARK    5  A    between atoms: C_11  and  S_12
REMARK    6  A    between atoms: S_12  and  C_13
REMARK    7  A    between atoms: C_16  and  C_17
REMARK    8  A    between atoms: C_17  and  O_18
REMARK    9  A    between atoms: O_18  and  C_19
REMARK                            x       y       z     vdW  Elec       q    Type
REMARK                         _______ _______ _______ _____ _____    ______ ____
ROOT
ATOM      1  S   UNL     1       1.574   3.050  20.821  0.00  0.00    +0.000 S 
ENDROOT
BRANCH   1   2
ATOM      2  C   UNL     1       1.664   4.264  19.582  0.00  0.00    +0.000 A 
ATOM      3  N   UNL     1       1.359   4.009  18.326  0.00  0.00    +0.000 NA
ATOM      4  N   UNL     1       1.621   5.154  17.605  0.00  0.00    +0.000 NA
ATOM      5  C   UNL     1       2.085   6.036  18.464  0.00  0.00    +0.000 A 
ATOM      6  O   UNL     1       2.110   5.552  19.755  0.00  0.00    +0.000 OA
BRANCH   5   7
ATOM      7  C   UNL     1       2.405   7.471  18.246  0.00  0.00    +0.000 C 
BRANCH   7   8
ATOM      8  O   UNL     1       2.208   8.198  19.468  0.00  0.00    +0.000 OA
BRANCH   8   9
ATOM      9  C   UNL     1       1.162   9.096  19.439  0.00  0.00    +0.000 A 
ATOM     10  C   UNL     1       0.579   9.553  18.250  0.00  0.00    +0.000 A 
ATOM     11  C   UNL     1      -0.491  10.450  18.272  0.00  0.00    +0.000 A 
ATOM     12  C   UNL     1      -1.009  10.893  19.488  0.00  0.00    +0.000 A 
ATOM     13  C   UNL     1      -0.454  10.437  20.680  0.00  0.00    +0.000 A 
ATOM     14  C   UNL     1       0.620   9.536  20.661  0.00  0.00    +0.000 A 
ATOM     15 CL   UNL     1       1.264   9.016  22.175  0.00  0.00    +0.000 Cl
ENDBRANCH   8   9
ENDBRANCH   7   8
ENDBRANCH   5   7
ENDBRANCH   1   2
BRANCH   1  16
ATOM     16  C   UNL     1       3.263   2.403  20.888  0.00  0.00    +0.000 C 
BRANCH  16  18
ATOM     17  N   UNL     1       4.611   3.946  19.537  0.00  0.00    +0.000 N 
ATOM     18  C   UNL     1       3.989   2.703  19.576  0.00  0.00    +0.000 C 
ATOM     19  O   UNL     1       3.965   1.879  18.664  0.00  0.00    +0.000 OA
ATOM     20  H   UNL     1       4.667   4.449  20.416  0.00  0.00    +0.000 HD
BRANCH  17  27
ATOM     21  C   UNL     1       7.883   7.322  18.020  0.00  0.00    +0.000 C 
ATOM     22  C   UNL     1       6.990   6.152  17.720  0.00  0.00    +0.000 A 
ATOM     23  C   UNL     1       6.980   5.583  16.442  0.00  0.00    +0.000 A 
ATOM     24  C   UNL     1       6.166   4.483  16.163  0.00  0.00    +0.000 A 
ATOM     25  C   UNL     1       6.138   3.864  14.796  0.00  0.00    +0.000 C 
ATOM     26  C   UNL     1       5.367   3.940  17.181  0.00  0.00    +0.000 A 
ATOM     27  C   UNL     1       5.369   4.481  18.468  0.00  0.00    +0.000 A 
ATOM     28  C   UNL     1       6.169   5.606  18.723  0.00  0.00    +0.000 A 
ENDBRANCH  17  27
ENDBRANCH  16  18
ENDBRANCH   1  16
TORSDOF 7
ENDMDL
MODEL 7
REMARK VINA RESULT:      -7.6      5.172      7.788
REMARK  Name = 
REMARK  9 active torsions:
REMARK  status: ('A' for Active; 'I' for Inactive)
REMARK    1  A    between atoms: C_1  and  C_2
REMARK    2  A    between atoms: C_4  and  C_5
REMARK    3  A    between atoms: C_7  and  N_8
REMARK    4  A    between atoms: C_9  and  C_11
REMARK    5  A    between atoms: C_11  and  S_12
REMARK    6  A    between atoms: S_12  and  C_13
REMARK    7  A    between atoms: C_16  and  C_17
REMARK    8  A    between atoms: C_17  and  O_18
REMARK    9  A    between atoms: O_18  and  C_19
REMARK                            x       y       z     vdW  Elec       q    Type
REMARK                         _______ _______ _______ _____ _____    ______ ____
ROOT
ATOM      1  S   UNL     1       1.442   2.584  18.465  0.00  0.00    +0.000 S 
ENDROOT
BRANCH   1   2
ATOM      2  C   UNL     1       1.632   4.061  19.359  0.00  0.00    +0.000 A 
ATOM      3  N   UNL     1       1.231   4.182  20.608  0.00  0.00    +0.000 NA
ATOM      4  N   UNL     1       1.450   5.491  20.979  0.00  0.00    +0.000 NA
ATOM      5  C   UNL     1       1.959   6.095  19.927  0.00  0.00    +0.000 A 
ATOM      6  O   UNL     1       2.137   5.237  18.862  0.00  0.00    +0.000 OA
BRANCH   5   7
ATOM      7  C   UNL     1       2.496   7.477  19.814  0.00  0.00    +0.000 C 
BRANCH   7   8
ATOM      8  O   UNL     1       1.443   8.369  19.421  0.00  0.00    +0.000 OA
BRANCH   8   9
ATOM      9  C   UNL     1       0.844   9.046  20.463  0.00  0.00    +0.000 A 
ATOM     10  C   UNL     1       1.153   8.804  21.808  0.00  0.00    +0.000 A 
ATOM     11  C   UNL     1       0.533   9.527  22.829  0.00  0.00    +0.000 A 
ATOM     12  C   UNL     1      -0.395  10.520  22.521  0.00  0.00    +0.000 A 
ATOM     13  C   UNL     1      -0.702  10.785  21.189  0.00  0.00    +0.000 A 
ATOM     14  C   UNL     1      -0.081  10.061  20.162  0.00  0.00    +0.000 A 
ATOM     15 CL   UNL     1      -0.512  10.439  18.534  0.00  0.00    +0.000 Cl
ENDBRANCH   8   9
ENDBRANCH   7   8
ENDBRANCH   5   7
ENDBRANCH   1   2
BRANCH   1  16
ATOM     16  C   UNL     1       2.904   1.626  18.935  0.00  0.00    +0.000 C 
BRANCH  16  18
ATOM     17  N   UNL     1       4.317   3.073  17.545  0.00  0.00    +0.000 N 
ATOM     18  C   UNL     1       4.158   2.488  18.797  0.00  0.00    +0.000 C 
ATOM     19  O   UNL     1       4.932   2.596  19.746  0.00  0.00    +0.000 OA
ATOM     20  H   UNL     1       3.523   3.012  16.917  0.00  0.00    +0.000 HD
BRANCH  17  27
ATOM     21  C   UNL     1       7.060   4.841  13.837  0.00  0.00    +0.000 C 
ATOM     22  C   UNL     1       6.721   4.806  15.299  0.00  0.00    +0.000 A 
ATOM     23  C   UNL     1       7.378   5.656  16.194  0.00  0.00    +0.000 A 
ATOM     24  C   UNL     1       7.053   5.643  17.553  0.00  0.00    +0.000 A 
ATOM     25  C   UNL     1       7.753   6.542  18.529  0.00  0.00    +0.000 C 
ATOM     26  C   UNL     1       6.046   4.780  18.013  0.00  0.00    +0.000 A 
ATOM     27  C   UNL     1       5.365   3.932  17.137  0.00  0.00    +0.000 A 
ATOM     28  C   UNL     1       5.726   3.935  15.781  0.00  0.00    +0.000 A 
ENDBRANCH  17  27
ENDBRANCH  16  18
ENDBRANCH   1  16
TORSDOF 7
ENDMDL
MODEL 8
REMARK VINA RESULT:      -7.5      5.442      8.487
REMARK  Name = 
REMARK  9 active torsions:
REMARK  status: ('A' for Active; 'I' for Inactive)
REMARK    1  A    between atoms: C_1  and  C_2
REMARK    2  A    between atoms: C_4  and  C_5
REMARK    3  A    between atoms: C_7  and  N_8
REMARK    4  A    between atoms: C_9  and  C_11
REMARK    5  A    between atoms: C_11  and  S_12
REMARK    6  A    between atoms: S_12  and  C_13
REMARK    7  A    between atoms: C_16  and  C_17
REMARK    8  A    between atoms: C_17  and  O_18
REMARK    9  A    between atoms: O_18  and  C_19
REMARK                            x       y       z     vdW  Elec       q    Type
REMARK                         _______ _______ _______ _____ _____    ______ ____
ROOT
ATOM      1  S   UNL     1       2.105   9.280  18.160  0.00  0.00    +0.000 S 
ENDROOT
BRANCH   1   2
ATOM      2  C   UNL     1       2.320   7.721  18.895  0.00  0.00    +0.000 A 
ATOM      3  N   UNL     1       1.873   7.446  20.103  0.00  0.00    +0.000 NA
ATOM      4  N   UNL     1       2.285   6.167  20.407  0.00  0.00    +0.000 NA
ATOM      5  C   UNL     1       2.973   5.743  19.369  0.00  0.00    +0.000 A 
ATOM      6  O   UNL     1       3.011   6.668  18.347  0.00  0.00    +0.000 OA
BRANCH   5   7
ATOM      7  C   UNL     1       3.538   4.391  19.113  0.00  0.00    +0.000 C 
BRANCH   7   8
ATOM      8  O   UNL     1       4.970   4.468  19.082  0.00  0.00    +0.000 OA
BRANCH   8   9
ATOM      9  C   UNL     1       5.520   4.430  17.818  0.00  0.00    +0.000 A 
ATOM     10  C   UNL     1       4.817   3.979  16.692  0.00  0.00    +0.000 A 
ATOM     11  C   UNL     1       5.410   3.976  15.428  0.00  0.00    +0.000 A 
ATOM     12  C   UNL     1       6.714   4.441  15.264  0.00  0.00    +0.000 A 
ATOM     13  C   UNL     1       7.422   4.908  16.368  0.00  0.00    +0.000 A 
ATOM     14  C   UNL     1       6.828   4.913  17.638  0.00  0.00    +0.000 A 
ATOM     15 CL   UNL     1       7.765   5.501  18.964  0.00  0.00    +0.000 Cl
ENDBRANCH   8   9
ENDBRANCH   7   8
ENDBRANCH   5   7
ENDBRANCH   1   2
BRANCH   1  16
ATOM     16  C   UNL     1       1.142  10.189  19.395  0.00  0.00    +0.000 C 
BRANCH  16  18
ATOM     17  N   UNL     1      -0.978  10.016  18.172  0.00  0.00    +0.000 N 
ATOM     18  C   UNL     1      -0.042  10.884  18.724  0.00  0.00    +0.000 C 
ATOM     19  O   UNL     1      -0.090  12.112  18.692  0.00  0.00    +0.000 OA
ATOM     20  H   UNL     1      -0.876   9.035  18.408  0.00  0.00    +0.000 HD
BRANCH  17  27
ATOM     21  C   UNL     1      -5.361  12.282  18.414  0.00  0.00    +0.000 C 
ATOM     22  C   UNL     1      -4.346  11.496  17.633  0.00  0.00    +0.000 A 
ATOM     23  C   UNL     1      -4.569  11.204  16.284  0.00  0.00    +0.000 A 
ATOM     24  C   UNL     1      -3.620  10.490  15.547  0.00  0.00    +0.000 A 
ATOM     25  C   UNL     1      -3.845  10.162  14.101  0.00  0.00    +0.000 C 
ATOM     26  C   UNL     1      -2.430  10.081  16.169  0.00  0.00    +0.000 A 
ATOM     27  C   UNL     1      -2.178  10.372  17.511  0.00  0.00    +0.000 A 
ATOM     28  C   UNL     1      -3.156  11.062  18.244  0.00  0.00    +0.000 A 
ENDBRANCH  17  27
ENDBRANCH  16  18
ENDBRANCH   1  16
TORSDOF 7
ENDMDL
MODEL 9
REMARK VINA RESULT:      -7.5      6.434      9.938
REMARK  Name = 
REMARK  9 active torsions:
REMARK  status: ('A' for Active; 'I' for Inactive)
REMARK    1  A    between atoms: C_1  and  C_2
REMARK    2  A    between atoms: C_4  and  C_5
REMARK    3  A    between atoms: C_7  and  N_8
REMARK    4  A    between atoms: C_9  and  C_11
REMARK    5  A    between atoms: C_11  and  S_12
REMARK    6  A    between atoms: S_12  and  C_13
REMARK    7  A    between atoms: C_16  and  C_17
REMARK    8  A    between atoms: C_17  and  O_18
REMARK    9  A    between atoms: O_18  and  C_19
REMARK                            x       y       z     vdW  Elec       q    Type
REMARK                         _______ _______ _______ _____ _____    ______ ____
ROOT
ATOM      1  S   UNL     1       0.464  10.355  20.916  0.00  0.00    +0.000 S 
ENDROOT
BRANCH   1   2
ATOM      2  C   UNL     1       1.299   9.562  19.616  0.00  0.00    +0.000 A 
ATOM      3  N   UNL     1       1.542  10.160  18.468  0.00  0.00    +0.000 NA
ATOM      4  N   UNL     1       2.134   9.230  17.642  0.00  0.00    +0.000 NA
ATOM      5  C   UNL     1       2.205   8.112  18.333  0.00  0.00    +0.000 A 
ATOM      6  O   UNL     1       1.722   8.255  19.617  0.00  0.00    +0.000 OA
BRANCH   5   7
ATOM      7  C   UNL     1       2.866   6.831  17.969  0.00  0.00    +0.000 C 
BRANCH   7   8
ATOM      8  O   UNL     1       2.807   5.928  19.083  0.00  0.00    +0.000 OA
BRANCH   8   9
ATOM      9  C   UNL     1       2.919   4.595  18.748  0.00  0.00    +0.000 A 
ATOM     10  C   UNL     1       3.880   4.111  17.851  0.00  0.00    +0.000 A 
ATOM     11  C   UNL     1       3.966   2.749  17.556  0.00  0.00    +0.000 A 
ATOM     12  C   UNL     1       3.103   1.843  18.170  0.00  0.00    +0.000 A 
ATOM     13  C   UNL     1       2.153   2.303  19.077  0.00  0.00    +0.000 A 
ATOM     14  C   UNL     1       2.064   3.670  19.375  0.00  0.00    +0.000 A 
ATOM     15 CL   UNL     1       0.860   4.173  20.505  0.00  0.00    +0.000 Cl
ENDBRANCH   8   9
ENDBRANCH   7   8
ENDBRANCH   5   7
ENDBRANCH   1   2
BRANCH   1  16
ATOM     16  C   UNL     1       0.533  12.101  20.445  0.00  0.00    +0.000 C 
BRANCH  16  18
ATOM     17  N   UNL     1      -1.363  11.351  19.080  0.00  0.00    +0.000 N 
ATOM     18  C   UNL     1      -0.667  12.453  19.567  0.00  0.00    +0.000 C 
ATOM     19  O   UNL     1      -0.928  13.631  19.333  0.00  0.00    +0.000 OA
ATOM     20  H   UNL     1      -1.117  10.452  19.480  0.00  0.00    +0.000 HD
BRANCH  17  27
ATOM     21  C   UNL     1      -3.397  10.332  14.696  0.00  0.00    +0.000 C 
ATOM     22  C   UNL     1      -3.525  10.865  16.094  0.00  0.00    +0.000 A 
ATOM     23  C   UNL     1      -4.767  11.291  16.575  0.00  0.00    +0.000 A 
ATOM     24  C   UNL     1      -4.895  11.769  17.881  0.00  0.00    +0.000 A 
ATOM     25  C   UNL     1      -6.219  12.236  18.411  0.00  0.00    +0.000 C 
ATOM     26  C   UNL     1      -3.768  11.804  18.717  0.00  0.00    +0.000 A 
ATOM     27  C   UNL     1      -2.520  11.372  18.265  0.00  0.00    +0.000 A 
ATOM     28  C   UNL     1      -2.402  10.924  16.940  0.00  0.00    +0.000 A 
ENDBRANCH  17  27
ENDBRANCH  16  18
ENDBRANCH   1  16
TORSDOF 7
ENDMDL
