MODEL 1
REMARK VINA RESULT:      -7.5      0.000      0.000
REMARK  Name = 
REMARK  14 active torsions:
REMARK  status: ('A' for Active; 'I' for Inactive)
REMARK    1  A    between atoms: C_1  and  C_2
REMARK    2  A    between atoms: N_14  and  C_15
REMARK    3  A    between atoms: C_15  and  C_16
REMARK    4  A    between atoms: C_16  and  O_17
REMARK    5  A    between atoms: C_16  and  C_18
REMARK    6  A    between atoms: C_18  and  O_19
REMARK    7  A    between atoms: C_18  and  C_20
REMARK    8  A    between atoms: C_20  and  O_21
REMARK    9  A    between atoms: C_20  and  C_22
REMARK   10  A    between atoms: C_22  and  O_23
REMARK   11  A    between atoms: O_23  and  P_24
REMARK   12  A    between atoms: P_24  and  O_26
REMARK   13  A    between atoms: P_24  and  O_27
REMARK   14  A    between atoms: C_30  and  C_31
REMARK                            x       y       z     vdW  Elec       q    Type
REMARK                         _______ _______ _______ _____ _____    ______ ____
ROOT
ATOM      1  C   UNL     1       0.468  10.049  20.406  0.00  0.00    +0.000 C 
ATOM      2  C   UNL     1       1.227   8.875  19.851  0.00  0.00    +0.000 A 
ATOM      3  C   UNL     1       1.264   7.672  20.569  0.00  0.00    +0.000 A 
ATOM      4  C   UNL     1       1.961   6.552  20.092  0.00  0.00    +0.000 A 
ATOM      5  N   UNL     1       1.930   5.397  20.899  0.00  0.00    +0.000 NA
ATOM      6  C   UNL     1       2.596   4.353  20.509  0.00  0.00    +0.000 A 
ATOM      7  C   UNL     1       2.591   3.098  21.343  0.00  0.00    +0.000 A 
ATOM      8  O   UNL     1       1.993   3.006  22.401  0.00  0.00    +0.000 OA
ATOM      9  N   UNL     1       3.329   2.087  20.808  0.00  0.00    +0.000 N 
ATOM     10  C   UNL     1       4.111   2.163  19.690  0.00  0.00    +0.000 A 
ATOM     11  O   UNL     1       4.824   1.206  19.406  0.00  0.00    +0.000 OA
ATOM     12  N   UNL     1       4.092   3.289  18.923  0.00  0.00    +0.000 NA
ATOM     13  C   UNL     1       3.394   4.343  19.233  0.00  0.00    +0.000 A 
ATOM     14  N   UNL     1       3.364   5.477  18.424  0.00  0.00    +0.000 N 
ATOM     15  C   UNL     1       2.658   6.614  18.864  0.00  0.00    +0.000 A 
ATOM     16  C   UNL     1       2.599   7.821  18.146  0.00  0.00    +0.000 A 
ATOM     17  C   UNL     1       1.909   8.951  18.627  0.00  0.00    +0.000 A 
ATOM     18  C   UNL     1       1.928  10.223  17.821  0.00  0.00    +0.000 C 
ATOM     19  H   UNL     1       3.401   1.230  21.334  0.00  0.00    +0.000 HD
ENDROOT
BRANCH  14  20
ATOM     20  C   UNL     1       4.213   5.517  17.222  0.00  0.00    +0.000 C 
BRANCH  20  21
ATOM     21  C   UNL     1       5.627   6.047  17.552  0.00  0.00    +0.000 C 
BRANCH  21  22
ATOM     22  O   UNL     1       6.309   5.242  18.535  0.00  0.00    +0.000 OA
ATOM     23  H   UNL     1       6.915   4.640  18.057  0.00  0.00    +0.000 HD
ENDBRANCH  21  22
BRANCH  21  24
ATOM     24  C   UNL     1       6.564   6.184  16.329  0.00  0.00    +0.000 C 
BRANCH  24  25
ATOM     25  O   UNL     1       7.677   6.985  16.755  0.00  0.00    +0.000 OA
ATOM     26  H   UNL     1       7.921   7.529  15.979  0.00  0.00    +0.000 HD
ENDBRANCH  24  25
BRANCH  24  27
ATOM     27  C   UNL     1       7.071   4.843  15.740  0.00  0.00    +0.000 C 
BRANCH  27  28
ATOM     28  O   UNL     1       7.815   4.112  16.719  0.00  0.00    +0.000 OA
ATOM     29  H   UNL     1       8.204   3.328  16.292  0.00  0.00    +0.000 HD
ENDBRANCH  27  28
BRANCH  27  30
ATOM     30  C   UNL     1       5.938   3.933  15.247  0.00  0.00    +0.000 C 
BRANCH  30  31
ATOM     31  O   UNL     1       5.363   4.387  14.042  0.00  0.00    +0.000 OA
BRANCH  31  32
ATOM     32  P   UNL     1       5.978   3.801  12.691  0.00  0.00    +0.000 P 
ATOM     33  O   UNL     1       7.122   4.559  12.109  0.00  0.00    +0.000 OA
BRANCH  32  34
ATOM     34  O   UNL     1       6.259   2.268  13.014  0.00  0.00    +0.000 OA
ATOM     35  H   UNL     1       5.743   1.687  12.429  0.00  0.00    +0.000 HD
ENDBRANCH  32  34
BRANCH  32  36
ATOM     36  O   UNL     1       4.733   3.728  11.697  0.00  0.00    +0.000 OA
ATOM     37  H   UNL     1       4.992   4.077  10.823  0.00  0.00    +0.000 HD
ENDBRANCH  32  36
ENDBRANCH  31  32
ENDBRANCH  30  31
ENDBRANCH  27  30
ENDBRANCH  24  27
ENDBRANCH  21  24
ENDBRANCH  20  21
ENDBRANCH  14  20
TORSDOF 12
ENDMDL
MODEL 2
REMARK VINA RESULT:      -7.3      2.732      4.333
REMARK  Name = 
REMARK  14 active torsions:
REMARK  status: ('A' for Active; 'I' for Inactive)
REMARK    1  A    between atoms: C_1  and  C_2
REMARK    2  A    between atoms: N_14  and  C_15
REMARK    3  A    between atoms: C_15  and  C_16
REMARK    4  A    between atoms: C_16  and  O_17
REMARK    5  A    between atoms: C_16  and  C_18
REMARK    6  A    between atoms: C_18  and  O_19
REMARK    7  A    between atoms: C_18  and  C_20
REMARK    8  A    between atoms: C_20  and  O_21
REMARK    9  A    between atoms: C_20  and  C_22
REMARK   10  A    between atoms: C_22  and  O_23
REMARK   11  A    between atoms: O_23  and  P_24
REMARK   12  A    between atoms: P_24  and  O_26
REMARK   13  A    between atoms: P_24  and  O_27
REMARK   14  A    between atoms: C_30  and  C_31
REMARK                            x       y       z     vdW  Elec       q    Type
REMARK                         _______ _______ _______ _____ _____    ______ ____
ROOT
ATOM      1  C   UNL     1       0.530   9.871  19.850  0.00  0.00    +0.000 C 
ATOM      2  C   UNL     1       1.394   8.694  19.487  0.00  0.00    +0.000 A 
ATOM      3  C   UNL     1       1.335   7.528  20.259  0.00  0.00    +0.000 A 
ATOM      4  C   UNL     1       2.124   6.406  19.959  0.00  0.00    +0.000 A 
ATOM      5  N   UNL     1       1.983   5.288  20.806  0.00  0.00    +0.000 NA
ATOM      6  C   UNL     1       2.725   4.248  20.583  0.00  0.00    +0.000 A 
ATOM      7  C   UNL     1       2.607   3.031  21.466  0.00  0.00    +0.000 A 
ATOM      8  O   UNL     1       1.843   2.971  22.414  0.00  0.00    +0.000 OA
ATOM      9  N   UNL     1       3.443   2.018  21.111  0.00  0.00    +0.000 N 
ATOM     10  C   UNL     1       4.398   2.065  20.134  0.00  0.00    +0.000 A 
ATOM     11  O   UNL     1       5.168   1.117  20.019  0.00  0.00    +0.000 OA
ATOM     12  N   UNL     1       4.485   3.154  19.320  0.00  0.00    +0.000 NA
ATOM     13  C   UNL     1       3.724   4.201  19.458  0.00  0.00    +0.000 A 
ATOM     14  N   UNL     1       3.806   5.296  18.601  0.00  0.00    +0.000 N 
ATOM     15  C   UNL     1       3.014   6.432  18.861  0.00  0.00    +0.000 A 
ATOM     16  C   UNL     1       3.051   7.603  18.085  0.00  0.00    +0.000 A 
ATOM     17  C   UNL     1       2.268   8.734  18.389  0.00  0.00    +0.000 A 
ATOM     18  C   UNL     1       2.395   9.968  17.536  0.00  0.00    +0.000 C 
ATOM     19  H   UNL     1       3.444   1.189  21.683  0.00  0.00    +0.000 HD
ENDROOT
BRANCH  14  20
ATOM     20  C   UNL     1       4.842   5.306  17.555  0.00  0.00    +0.000 C 
BRANCH  20  21
ATOM     21  C   UNL     1       6.238   5.594  18.151  0.00  0.00    +0.000 C 
BRANCH  21  22
ATOM     22  O   UNL     1       7.035   4.403  18.306  0.00  0.00    +0.000 OA
ATOM     23  H   UNL     1       7.764   4.613  18.925  0.00  0.00    +0.000 HD
ENDBRANCH  21  22
BRANCH  21  24
ATOM     24  C   UNL     1       7.078   6.619  17.353  0.00  0.00    +0.000 C 
BRANCH  24  25
ATOM     25  O   UNL     1       6.212   7.162  16.344  0.00  0.00    +0.000 OA
ATOM     26  H   UNL     1       5.416   6.593  16.349  0.00  0.00    +0.000 HD
ENDBRANCH  24  25
BRANCH  24  27
ATOM     27  C   UNL     1       7.688   7.765  18.200  0.00  0.00    +0.000 C 
BRANCH  27  28
ATOM     28  O   UNL     1       8.653   7.252  19.122  0.00  0.00    +0.000 OA
ATOM     29  H   UNL     1       9.439   7.826  19.100  0.00  0.00    +0.000 HD
ENDBRANCH  27  28
BRANCH  27  30
ATOM     30  C   UNL     1       8.384   8.839  17.352  0.00  0.00    +0.000 C 
BRANCH  30  31
ATOM     31  O   UNL     1       8.125  10.146  17.812  0.00  0.00    +0.000 OA
BRANCH  31  32
ATOM     32  P   UNL     1       9.317  10.884  18.576  0.00  0.00    +0.000 P 
ATOM     33  O   UNL     1       9.733  10.285  19.875  0.00  0.00    +0.000 OA
BRANCH  32  34
ATOM     34  O   UNL     1      10.464  11.024  17.480  0.00  0.00    +0.000 OA
ATOM     35  H   UNL     1      11.293  11.340  17.880  0.00  0.00    +0.000 HD
ENDBRANCH  32  34
BRANCH  32  36
ATOM     36  O   UNL     1       8.802  12.385  18.739  0.00  0.00    +0.000 OA
ATOM     37  H   UNL     1       7.975  12.392  19.256  0.00  0.00    +0.000 HD
ENDBRANCH  32  36
ENDBRANCH  31  32
ENDBRANCH  30  31
ENDBRANCH  27  30
ENDBRANCH  24  27
ENDBRANCH  21  24
ENDBRANCH  20  21
ENDBRANCH  14  20
TORSDOF 12
ENDMDL
MODEL 3
REMARK VINA RESULT:      -7.1      2.635      4.230
REMARK  Name = 
REMARK  14 active torsions:
REMARK  status: ('A' for Active; 'I' for Inactive)
REMARK    1  A    between atoms: C_1  and  C_2
REMARK    2  A    between atoms: N_14  and  C_15
REMARK    3  A    between atoms: C_15  and  C_16
REMARK    4  A    between atoms: C_16  and  O_17
REMARK    5  A    between atoms: C_16  and  C_18
REMARK    6  A    between atoms: C_18  and  O_19
REMARK    7  A    between atoms: C_18  and  C_20
REMARK    8  A    between atoms: C_20  and  O_21
REMARK    9  A    between atoms: C_20  and  C_22
REMARK   10  A    between atoms: C_22  and  O_23
REMARK   11  A    between atoms: O_23  and  P_24
REMARK   12  A    between atoms: P_24  and  O_26
REMARK   13  A    between atoms: P_24  and  O_27
REMARK   14  A    between atoms: C_30  and  C_31
REMARK                            x       y       z     vdW  Elec       q    Type
REMARK                         _______ _______ _______ _____ _____    ______ ____
ROOT
ATOM      1  C   UNL     1       0.310   9.874  20.036  0.00  0.00    +0.000 C 
ATOM      2  C   UNL     1       1.205   8.732  19.641  0.00  0.00    +0.000 A 
ATOM      3  C   UNL     1       1.182   7.545  20.383  0.00  0.00    +0.000 A 
ATOM      4  C   UNL     1       2.001   6.454  20.052  0.00  0.00    +0.000 A 
ATOM      5  N   UNL     1       1.894   5.311  20.870  0.00  0.00    +0.000 NA
ATOM      6  C   UNL     1       2.664   4.298  20.618  0.00  0.00    +0.000 A 
ATOM      7  C   UNL     1       2.583   3.056  21.469  0.00  0.00    +0.000 A 
ATOM      8  O   UNL     1       1.825   2.950  22.417  0.00  0.00    +0.000 OA
ATOM      9  N   UNL     1       3.447   2.077  21.086  0.00  0.00    +0.000 N 
ATOM     10  C   UNL     1       4.397   2.176  20.108  0.00  0.00    +0.000 A 
ATOM     11  O   UNL     1       5.193   1.253  19.967  0.00  0.00    +0.000 OA
ATOM     12  N   UNL     1       4.450   3.288  19.322  0.00  0.00    +0.000 NA
ATOM     13  C   UNL     1       3.661   4.309  19.490  0.00  0.00    +0.000 A 
ATOM     14  N   UNL     1       3.709   5.428  18.661  0.00  0.00    +0.000 N 
ATOM     15  C   UNL     1       2.886   6.534  18.953  0.00  0.00    +0.000 A 
ATOM     16  C   UNL     1       2.888   7.725  18.207  0.00  0.00    +0.000 A 
ATOM     17  C   UNL     1       2.075   8.825  18.543  0.00  0.00    +0.000 A 
ATOM     18  C   UNL     1       2.164  10.084  17.721  0.00  0.00    +0.000 C 
ATOM     19  H   UNL     1       3.473   1.233  21.637  0.00  0.00    +0.000 HD
ENDROOT
BRANCH  14  20
ATOM     20  C   UNL     1       4.741   5.493  17.613  0.00  0.00    +0.000 C 
BRANCH  20  21
ATOM     21  C   UNL     1       6.128   5.096  18.167  0.00  0.00    +0.000 C 
BRANCH  21  22
ATOM     22  O   UNL     1       7.005   4.571  17.150  0.00  0.00    +0.000 OA
ATOM     23  H   UNL     1       7.099   5.256  16.457  0.00  0.00    +0.000 HD
ENDBRANCH  21  22
BRANCH  21  24
ATOM     24  C   UNL     1       6.882   6.236  18.891  0.00  0.00    +0.000 C 
BRANCH  24  25
ATOM     25  O   UNL     1       7.580   5.630  19.991  0.00  0.00    +0.000 OA
ATOM     26  H   UNL     1       7.791   6.364  20.603  0.00  0.00    +0.000 HD
ENDBRANCH  24  25
BRANCH  24  27
ATOM     27  C   UNL     1       7.877   7.028  18.005  0.00  0.00    +0.000 C 
BRANCH  27  28
ATOM     28  O   UNL     1       7.266   7.393  16.764  0.00  0.00    +0.000 OA
ATOM     29  H   UNL     1       7.544   8.298  16.536  0.00  0.00    +0.000 HD
ENDBRANCH  27  28
BRANCH  27  30
ATOM     30  C   UNL     1       8.383   8.316  18.668  0.00  0.00    +0.000 C 
BRANCH  30  31
ATOM     31  O   UNL     1       8.683   9.327  17.731  0.00  0.00    +0.000 OA
BRANCH  31  32
ATOM     32  P   UNL     1       9.178  10.725  18.321  0.00  0.00    +0.000 P 
ATOM     33  O   UNL     1       9.272  10.813  19.806  0.00  0.00    +0.000 OA
BRANCH  32  34
ATOM     34  O   UNL     1      10.520  11.040  17.524  0.00  0.00    +0.000 OA
ATOM     35  H   UNL     1      11.225  10.414  17.765  0.00  0.00    +0.000 HD
ENDBRANCH  32  34
BRANCH  32  36
ATOM     36  O   UNL     1       8.153  11.786  17.716  0.00  0.00    +0.000 OA
ATOM     37  H   UNL     1       8.639  12.439  17.177  0.00  0.00    +0.000 HD
ENDBRANCH  32  36
ENDBRANCH  31  32
ENDBRANCH  30  31
ENDBRANCH  27  30
ENDBRANCH  24  27
ENDBRANCH  21  24
ENDBRANCH  20  21
ENDBRANCH  14  20
TORSDOF 12
ENDMDL
MODEL 4
REMARK VINA RESULT:      -7.0      1.023      1.305
REMARK  Name = 
REMARK  14 active torsions:
REMARK  status: ('A' for Active; 'I' for Inactive)
REMARK    1  A    between atoms: C_1  and  C_2
REMARK    2  A    between atoms: N_14  and  C_15
REMARK    3  A    between atoms: C_15  and  C_16
REMARK    4  A    between atoms: C_16  and  O_17
REMARK    5  A    between atoms: C_16  and  C_18
REMARK    6  A    between atoms: C_18  and  O_19
REMARK    7  A    between atoms: C_18  and  C_20
REMARK    8  A    between atoms: C_20  and  O_21
REMARK    9  A    between atoms: C_20  and  C_22
REMARK   10  A    between atoms: C_22  and  O_23
REMARK   11  A    between atoms: O_23  and  P_24
REMARK   12  A    between atoms: P_24  and  O_26
REMARK   13  A    between atoms: P_24  and  O_27
REMARK   14  A    between atoms: C_30  and  C_31
REMARK                            x       y       z     vdW  Elec       q    Type
REMARK                         _______ _______ _______ _____ _____    ______ ____
ROOT
ATOM      1  C   UNL     1       0.569  10.070  21.721  0.00  0.00    +0.000 C 
ATOM      2  C   UNL     1       1.082   8.950  20.857  0.00  0.00    +0.000 A 
ATOM      3  C   UNL     1       1.147   7.650  21.374  0.00  0.00    +0.000 A 
ATOM      4  C   UNL     1       1.619   6.576  20.605  0.00  0.00    +0.000 A 
ATOM      5  N   UNL     1       1.641   5.312  21.229  0.00  0.00    +0.000 NA
ATOM      6  C   UNL     1       2.108   4.302  20.562  0.00  0.00    +0.000 A 
ATOM      7  C   UNL     1       2.151   2.934  21.193  0.00  0.00    +0.000 A 
ATOM      8  O   UNL     1       1.775   2.716  22.332  0.00  0.00    +0.000 OA
ATOM      9  N   UNL     1       2.663   1.974  20.376  0.00  0.00    +0.000 N 
ATOM     10  C   UNL     1       3.204   2.174  19.136  0.00  0.00    +0.000 A 
ATOM     11  O   UNL     1       3.748   1.229  18.574  0.00  0.00    +0.000 OA
ATOM     12  N   UNL     1       3.139   3.405  18.557  0.00  0.00    +0.000 NA
ATOM     13  C   UNL     1       2.625   4.440  19.155  0.00  0.00    +0.000 A 
ATOM     14  N   UNL     1       2.542   5.687  18.539  0.00  0.00    +0.000 N 
ATOM     15  C   UNL     1       2.054   6.785  19.276  0.00  0.00    +0.000 A 
ATOM     16  C   UNL     1       1.968   8.091  18.764  0.00  0.00    +0.000 A 
ATOM     17  C   UNL     1       1.504   9.174  19.537  0.00  0.00    +0.000 A 
ATOM     18  C   UNL     1       1.482  10.553  18.932  0.00  0.00    +0.000 C 
ATOM     19  H   UNL     1       2.757   1.042  20.748  0.00  0.00    +0.000 HD
ENDROOT
BRANCH  14  20
ATOM     20  C   UNL     1       3.128   5.860  17.200  0.00  0.00    +0.000 C 
BRANCH  20  21
ATOM     21  C   UNL     1       4.638   6.175  17.286  0.00  0.00    +0.000 C 
BRANCH  21  22
ATOM     22  O   UNL     1       5.298   5.455  18.346  0.00  0.00    +0.000 OA
ATOM     23  H   UNL     1       6.249   5.686  18.315  0.00  0.00    +0.000 HD
ENDBRANCH  21  22
BRANCH  21  24
ATOM     24  C   UNL     1       5.426   5.910  15.981  0.00  0.00    +0.000 C 
BRANCH  24  25
ATOM     25  O   UNL     1       6.185   7.099  15.713  0.00  0.00    +0.000 OA
ATOM     26  H   UNL     1       5.543   7.744  15.351  0.00  0.00    +0.000 HD
ENDBRANCH  24  25
BRANCH  24  27
ATOM     27  C   UNL     1       6.367   4.679  16.023  0.00  0.00    +0.000 C 
BRANCH  27  28
ATOM     28  O   UNL     1       5.670   3.529  16.508  0.00  0.00    +0.000 OA
ATOM     29  H   UNL     1       5.381   3.703  17.421  0.00  0.00    +0.000 HD
ENDBRANCH  27  28
BRANCH  27  30
ATOM     30  C   UNL     1       6.954   4.320  14.651  0.00  0.00    +0.000 C 
BRANCH  30  31
ATOM     31  O   UNL     1       6.208   3.327  13.985  0.00  0.00    +0.000 OA
BRANCH  31  32
ATOM     32  P   UNL     1       6.114   3.449  12.396  0.00  0.00    +0.000 P 
ATOM     33  O   UNL     1       4.748   3.634  11.832  0.00  0.00    +0.000 OA
BRANCH  32  34
ATOM     34  O   UNL     1       7.175   4.575  12.021  0.00  0.00    +0.000 OA
ATOM     35  H   UNL     1       7.880   4.628  12.689  0.00  0.00    +0.000 HD
ENDBRANCH  32  34
BRANCH  32  36
ATOM     36  O   UNL     1       6.813   2.118  11.863  0.00  0.00    +0.000 OA
ATOM     37  H   UNL     1       6.180   1.377  11.904  0.00  0.00    +0.000 HD
ENDBRANCH  32  36
ENDBRANCH  31  32
ENDBRANCH  30  31
ENDBRANCH  27  30
ENDBRANCH  24  27
ENDBRANCH  21  24
ENDBRANCH  20  21
ENDBRANCH  14  20
TORSDOF 12
ENDMDL
MODEL 5
REMARK VINA RESULT:      -6.9      2.822      5.547
REMARK  Name = 
REMARK  14 active torsions:
REMARK  status: ('A' for Active; 'I' for Inactive)
REMARK    1  A    between atoms: C_1  and  C_2
REMARK    2  A    between atoms: N_14  and  C_15
REMARK    3  A    between atoms: C_15  and  C_16
REMARK    4  A    between atoms: C_16  and  O_17
REMARK    5  A    between atoms: C_16  and  C_18
REMARK    6  A    between atoms: C_18  and  O_19
REMARK    7  A    between atoms: C_18  and  C_20
REMARK    8  A    between atoms: C_20  and  O_21
REMARK    9  A    between atoms: C_20  and  C_22
REMARK   10  A    between atoms: C_22  and  O_23
REMARK   11  A    between atoms: O_23  and  P_24
REMARK   12  A    between atoms: P_24  and  O_26
REMARK   13  A    between atoms: P_24  and  O_27
REMARK   14  A    between atoms: C_30  and  C_31
REMARK                            x       y       z     vdW  Elec       q    Type
REMARK                         _______ _______ _______ _____ _____    ______ ____
ROOT
ATOM      1  C   UNL     1       2.536   1.838  21.627  0.00  0.00    +0.000 C 
ATOM      2  C   UNL     1       2.576   3.068  20.763  0.00  0.00    +0.000 A 
ATOM      3  C   UNL     1       2.112   4.288  21.273  0.00  0.00    +0.000 A 
ATOM      4  C   UNL     1       2.129   5.461  20.502  0.00  0.00    +0.000 A 
ATOM      5  N   UNL     1       1.636   6.629  21.118  0.00  0.00    +0.000 NA
ATOM      6  C   UNL     1       1.600   7.724  20.423  0.00  0.00    +0.000 A 
ATOM      7  C   UNL     1       1.079   8.996  21.043  0.00  0.00    +0.000 A 
ATOM      8  O   UNL     1       0.665   9.055  22.187  0.00  0.00    +0.000 OA
ATOM      9  N   UNL     1       1.103  10.062  20.198  0.00  0.00    +0.000 N 
ATOM     10  C   UNL     1       1.448  10.036  18.875  0.00  0.00    +0.000 A 
ATOM     11  O   UNL     1       1.291  11.053  18.208  0.00  0.00    +0.000 OA
ATOM     12  N   UNL     1       1.944   8.893  18.324  0.00  0.00    +0.000 NA
ATOM     13  C   UNL     1       2.062   7.781  18.991  0.00  0.00    +0.000 A 
ATOM     14  N   UNL     1       2.596   6.628  18.422  0.00  0.00    +0.000 N 
ATOM     15  C   UNL     1       2.612   5.436  19.174  0.00  0.00    +0.000 A 
ATOM     16  C   UNL     1       3.090   4.210  18.681  0.00  0.00    +0.000 A 
ATOM     17  C   UNL     1       3.065   3.028  19.448  0.00  0.00    +0.000 A 
ATOM     18  C   UNL     1       3.554   1.743  18.835  0.00  0.00    +0.000 C 
ATOM     19  H   UNL     1       0.732  10.936  20.535  0.00  0.00    +0.000 HD
ENDROOT
BRANCH  14  20
ATOM     20  C   UNL     1       2.964   6.642  16.997  0.00  0.00    +0.000 C 
BRANCH  20  21
ATOM     21  C   UNL     1       4.492   6.771  16.814  0.00  0.00    +0.000 C 
BRANCH  21  22
ATOM     22  O   UNL     1       5.198   6.869  18.068  0.00  0.00    +0.000 OA
ATOM     23  H   UNL     1       5.238   5.971  18.457  0.00  0.00    +0.000 HD
ENDBRANCH  21  22
BRANCH  21  24
ATOM     24  C   UNL     1       5.142   5.625  16.001  0.00  0.00    +0.000 C 
BRANCH  24  25
ATOM     25  O   UNL     1       6.038   6.245  15.066  0.00  0.00    +0.000 OA
ATOM     26  H   UNL     1       5.541   6.998  14.686  0.00  0.00    +0.000 HD
ENDBRANCH  24  25
BRANCH  24  27
ATOM     27  C   UNL     1       5.904   4.574  16.848  0.00  0.00    +0.000 C 
BRANCH  27  28
ATOM     28  O   UNL     1       5.724   3.264  16.303  0.00  0.00    +0.000 OA
ATOM     29  H   UNL     1       5.986   2.610  16.976  0.00  0.00    +0.000 HD
ENDBRANCH  27  28
BRANCH  27  30
ATOM     30  C   UNL     1       7.414   4.839  16.924  0.00  0.00    +0.000 C 
BRANCH  30  31
ATOM     31  O   UNL     1       7.981   4.398  18.137  0.00  0.00    +0.000 OA
BRANCH  31  32
ATOM     32  P   UNL     1       7.778   5.344  19.407  0.00  0.00    +0.000 P 
ATOM     33  O   UNL     1       6.440   5.287  20.059  0.00  0.00    +0.000 OA
BRANCH  32  34
ATOM     34  O   UNL     1       9.020   5.015  20.348  0.00  0.00    +0.000 OA
ATOM     35  H   UNL     1       9.429   4.167  20.105  0.00  0.00    +0.000 HD
ENDBRANCH  32  34
BRANCH  32  36
ATOM     36  O   UNL     1       8.126   6.802  18.865  0.00  0.00    +0.000 OA
ATOM     37  H   UNL     1       7.416   7.422  19.115  0.00  0.00    +0.000 HD
ENDBRANCH  32  36
ENDBRANCH  31  32
ENDBRANCH  30  31
ENDBRANCH  27  30
ENDBRANCH  24  27
ENDBRANCH  21  24
ENDBRANCH  20  21
ENDBRANCH  14  20
TORSDOF 12
ENDMDL
MODEL 6
REMARK VINA RESULT:      -6.9      2.158      3.326
REMARK  Name = 
REMARK  14 active torsions:
REMARK  status: ('A' for Active; 'I' for Inactive)
REMARK    1  A    between atoms: C_1  and  C_2
REMARK    2  A    between atoms: N_14  and  C_15
REMARK    3  A    between atoms: C_15  and  C_16
REMARK    4  A    between atoms: C_16  and  O_17
REMARK    5  A    between atoms: C_16  and  C_18
REMARK    6  A    between atoms: C_18  and  O_19
REMARK    7  A    between atoms: C_18  and  C_20
REMARK    8  A    between atoms: C_20  and  O_21
REMARK    9  A    between atoms: C_20  and  C_22
REMARK   10  A    between atoms: C_22  and  O_23
REMARK   11  A    between atoms: O_23  and  P_24
REMARK   12  A    between atoms: P_24  and  O_26
REMARK   13  A    between atoms: P_24  and  O_27
REMARK   14  A    between atoms: C_30  and  C_31
REMARK                            x       y       z     vdW  Elec       q    Type
REMARK                         _______ _______ _______ _____ _____    ______ ____
ROOT
ATOM      1  C   UNL     1       0.893  10.030  20.821  0.00  0.00    +0.000 C 
ATOM      2  C   UNL     1       1.421   8.820  20.102  0.00  0.00    +0.000 A 
ATOM      3  C   UNL     1       1.457   7.584  20.759  0.00  0.00    +0.000 A 
ATOM      4  C   UNL     1       1.944   6.429  20.128  0.00  0.00    +0.000 A 
ATOM      5  N   UNL     1       1.933   5.241  20.887  0.00  0.00    +0.000 NA
ATOM      6  C   UNL     1       2.412   4.161  20.350  0.00  0.00    +0.000 A 
ATOM      7  C   UNL     1       2.421   2.870  21.127  0.00  0.00    +0.000 A 
ATOM      8  O   UNL     1       2.007   2.781  22.270  0.00  0.00    +0.000 OA
ATOM      9  N   UNL     1       2.949   1.823  20.436  0.00  0.00    +0.000 N 
ATOM     10  C   UNL     1       3.531   1.883  19.201  0.00  0.00    +0.000 A 
ATOM     11  O   UNL     1       4.083   0.879  18.763  0.00  0.00    +0.000 OA
ATOM     12  N   UNL     1       3.496   3.044  18.489  0.00  0.00    +0.000 NA
ATOM     13  C   UNL     1       2.973   4.142  18.953  0.00  0.00    +0.000 A 
ATOM     14  N   UNL     1       2.922   5.314  18.203  0.00  0.00    +0.000 N 
ATOM     15  C   UNL     1       2.422   6.489  18.799  0.00  0.00    +0.000 A 
ATOM     16  C   UNL     1       2.365   7.732  18.146  0.00  0.00    +0.000 A 
ATOM     17  C   UNL     1       1.887   8.896  18.779  0.00  0.00    +0.000 A 
ATOM     18  C   UNL     1       1.897  10.200  18.028  0.00  0.00    +0.000 C 
ATOM     19  H   UNL     1       3.022   0.937  20.911  0.00  0.00    +0.000 HD
ENDROOT
BRANCH  14  20
ATOM     20  C   UNL     1       3.552   5.336  16.872  0.00  0.00    +0.000 C 
BRANCH  20  21
ATOM     21  C   UNL     1       5.093   5.326  16.982  0.00  0.00    +0.000 C 
BRANCH  21  22
ATOM     22  O   UNL     1       5.656   4.011  16.807  0.00  0.00    +0.000 OA
ATOM     23  H   UNL     1       6.398   4.088  16.173  0.00  0.00    +0.000 HD
ENDBRANCH  21  22
BRANCH  21  24
ATOM     24  C   UNL     1       5.814   6.278  15.997  0.00  0.00    +0.000 C 
BRANCH  24  25
ATOM     25  O   UNL     1       4.786   6.944  15.246  0.00  0.00    +0.000 OA
ATOM     26  H   UNL     1       3.968   6.433  15.411  0.00  0.00    +0.000 HD
ENDBRANCH  24  25
BRANCH  24  27
ATOM     27  C   UNL     1       6.745   7.323  16.662  0.00  0.00    +0.000 C 
BRANCH  27  28
ATOM     28  O   UNL     1       6.042   8.057  17.667  0.00  0.00    +0.000 OA
ATOM     29  H   UNL     1       6.671   8.304  18.368  0.00  0.00    +0.000 HD
ENDBRANCH  27  28
BRANCH  27  30
ATOM     30  C   UNL     1       7.980   6.697  17.325  0.00  0.00    +0.000 C 
BRANCH  30  31
ATOM     31  O   UNL     1       7.887   6.674  18.731  0.00  0.00    +0.000 OA
BRANCH  31  32
ATOM     32  P   UNL     1       7.626   5.252  19.408  0.00  0.00    +0.000 P 
ATOM     33  O   UNL     1       6.253   5.019  19.935  0.00  0.00    +0.000 OA
BRANCH  32  34
ATOM     34  O   UNL     1       8.141   4.200  18.331  0.00  0.00    +0.000 OA
ATOM     35  H   UNL     1       9.079   4.346  18.118  0.00  0.00    +0.000 HD
ENDBRANCH  32  34
BRANCH  32  36
ATOM     36  O   UNL     1       8.736   5.156  20.549  0.00  0.00    +0.000 OA
ATOM     37  H   UNL     1       9.624   5.227  20.149  0.00  0.00    +0.000 HD
ENDBRANCH  32  36
ENDBRANCH  31  32
ENDBRANCH  30  31
ENDBRANCH  27  30
ENDBRANCH  24  27
ENDBRANCH  21  24
ENDBRANCH  20  21
ENDBRANCH  14  20
TORSDOF 12
ENDMDL
MODEL 7
REMARK VINA RESULT:      -6.8      1.982      3.117
REMARK  Name = 
REMARK  14 active torsions:
REMARK  status: ('A' for Active; 'I' for Inactive)
REMARK    1  A    between atoms: C_1  and  C_2
REMARK    2  A    between atoms: N_14  and  C_15
REMARK    3  A    between atoms: C_15  and  C_16
REMARK    4  A    between atoms: C_16  and  O_17
REMARK    5  A    between atoms: C_16  and  C_18
REMARK    6  A    between atoms: C_18  and  O_19
REMARK    7  A    between atoms: C_18  and  C_20
REMARK    8  A    between atoms: C_20  and  O_21
REMARK    9  A    between atoms: C_20  and  C_22
REMARK   10  A    between atoms: C_22  and  O_23
REMARK   11  A    between atoms: O_23  and  P_24
REMARK   12  A    between atoms: P_24  and  O_26
REMARK   13  A    between atoms: P_24  and  O_27
REMARK   14  A    between atoms: C_30  and  C_31
REMARK                            x       y       z     vdW  Elec       q    Type
REMARK                         _______ _______ _______ _____ _____    ______ ____
ROOT
ATOM      1  C   UNL     1       0.957  10.184  20.915  0.00  0.00    +0.000 C 
ATOM      2  C   UNL     1       1.388   8.952  20.167  0.00  0.00    +0.000 A 
ATOM      3  C   UNL     1       1.490   7.731  20.844  0.00  0.00    +0.000 A 
ATOM      4  C   UNL     1       1.891   6.557  20.187  0.00  0.00    +0.000 A 
ATOM      5  N   UNL     1       1.958   5.386  20.969  0.00  0.00    +0.000 NA
ATOM      6  C   UNL     1       2.363   4.289  20.404  0.00  0.00    +0.000 A 
ATOM      7  C   UNL     1       2.451   3.015  21.204  0.00  0.00    +0.000 A 
ATOM      8  O   UNL     1       2.171   2.955  22.389  0.00  0.00    +0.000 OA
ATOM      9  N   UNL     1       2.887   1.948  20.481  0.00  0.00    +0.000 N 
ATOM     10  C   UNL     1       3.322   1.975  19.185  0.00  0.00    +0.000 A 
ATOM     11  O   UNL     1       3.812   0.956  18.710  0.00  0.00    +0.000 OA
ATOM     12  N   UNL     1       3.216   3.121  18.456  0.00  0.00    +0.000 NA
ATOM     13  C   UNL     1       2.759   4.234  18.953  0.00  0.00    +0.000 A 
ATOM     14  N   UNL     1       2.631   5.390  18.188  0.00  0.00    +0.000 N 
ATOM     15  C   UNL     1       2.213   6.583  18.811  0.00  0.00    +0.000 A 
ATOM     16  C   UNL     1       2.091   7.812  18.140  0.00  0.00    +0.000 A 
ATOM     17  C   UNL     1       1.699   8.994  18.799  0.00  0.00    +0.000 A 
ATOM     18  C   UNL     1       1.633  10.282  18.021  0.00  0.00    +0.000 C 
ATOM     19  H   UNL     1       3.007   1.072  20.964  0.00  0.00    +0.000 HD
ENDROOT
BRANCH  14  20
ATOM     20  C   UNL     1       3.103   5.377  16.793  0.00  0.00    +0.000 C 
BRANCH  20  21
ATOM     21  C   UNL     1       4.558   4.866  16.699  0.00  0.00    +0.000 C 
BRANCH  21  22
ATOM     22  O   UNL     1       4.645   3.524  16.179  0.00  0.00    +0.000 OA
ATOM     23  H   UNL     1       3.786   3.085  16.346  0.00  0.00    +0.000 HD
ENDBRANCH  21  22
BRANCH  21  24
ATOM     24  C   UNL     1       5.499   5.757  15.853  0.00  0.00    +0.000 C 
BRANCH  24  25
ATOM     25  O   UNL     1       5.095   7.115  16.086  0.00  0.00    +0.000 OA
ATOM     26  H   UNL     1       4.855   7.159  17.034  0.00  0.00    +0.000 HD
ENDBRANCH  24  25
BRANCH  24  27
ATOM     27  C   UNL     1       7.009   5.593  16.165  0.00  0.00    +0.000 C 
BRANCH  27  28
ATOM     28  O   UNL     1       7.787   5.738  14.973  0.00  0.00    +0.000 OA
ATOM     29  H   UNL     1       7.730   4.910  14.463  0.00  0.00    +0.000 HD
ENDBRANCH  27  28
BRANCH  27  30
ATOM     30  C   UNL     1       7.529   6.615  17.184  0.00  0.00    +0.000 C 
BRANCH  30  31
ATOM     31  O   UNL     1       6.927   6.474  18.451  0.00  0.00    +0.000 OA
BRANCH  31  32
ATOM     32  P   UNL     1       7.365   5.204  19.313  0.00  0.00    +0.000 P 
ATOM     33  O   UNL     1       7.991   5.493  20.634  0.00  0.00    +0.000 OA
BRANCH  32  34
ATOM     34  O   UNL     1       6.067   4.283  19.351  0.00  0.00    +0.000 OA
ATOM     35  H   UNL     1       5.812   4.000  18.455  0.00  0.00    +0.000 HD
ENDBRANCH  32  34
BRANCH  32  36
ATOM     36  O   UNL     1       8.340   4.395  18.345  0.00  0.00    +0.000 OA
ATOM     37  H   UNL     1       7.823   3.992  17.622  0.00  0.00    +0.000 HD
ENDBRANCH  32  36
ENDBRANCH  31  32
ENDBRANCH  30  31
ENDBRANCH  27  30
ENDBRANCH  24  27
ENDBRANCH  21  24
ENDBRANCH  20  21
ENDBRANCH  14  20
TORSDOF 12
ENDMDL
MODEL 8
REMARK VINA RESULT:      -6.8      2.763      4.432
REMARK  Name = 
REMARK  14 active torsions:
REMARK  status: ('A' for Active; 'I' for Inactive)
REMARK    1  A    between atoms: C_1  and  C_2
REMARK    2  A    between atoms: N_14  and  C_15
REMARK    3  A    between atoms: C_15  and  C_16
REMARK    4  A    between atoms: C_16  and  O_17
REMARK    5  A    between atoms: C_16  and  C_18
REMARK    6  A    between atoms: C_18  and  O_19
REMARK    7  A    between atoms: C_18  and  C_20
REMARK    8  A    between atoms: C_20  and  O_21
REMARK    9  A    between atoms: C_20  and  C_22
REMARK   10  A    between atoms: C_22  and  O_23
REMARK   11  A    between atoms: O_23  and  P_24
REMARK   12  A    between atoms: P_24  and  O_26
REMARK   13  A    between atoms: P_24  and  O_27
REMARK   14  A    between atoms: C_30  and  C_31
REMARK                            x       y       z     vdW  Elec       q    Type
REMARK                         _______ _______ _______ _____ _____    ______ ____
ROOT
ATOM      1  C   UNL     1       0.442   9.780  19.531  0.00  0.00    +0.000 C 
ATOM      2  C   UNL     1       1.393   8.637  19.308  0.00  0.00    +0.000 A 
ATOM      3  C   UNL     1       1.263   7.469  20.070  0.00  0.00    +0.000 A 
ATOM      4  C   UNL     1       2.129   6.378  19.898  0.00  0.00    +0.000 A 
ATOM      5  N   UNL     1       1.905   5.256  20.722  0.00  0.00    +0.000 NA
ATOM      6  C   UNL     1       2.710   4.244  20.618  0.00  0.00    +0.000 A 
ATOM      7  C   UNL     1       2.507   3.025  21.481  0.00  0.00    +0.000 A 
ATOM      8  O   UNL     1       1.613   2.937  22.305  0.00  0.00    +0.000 OA
ATOM      9  N   UNL     1       3.424   2.044  21.260  0.00  0.00    +0.000 N 
ATOM     10  C   UNL     1       4.511   2.126  20.436  0.00  0.00    +0.000 A 
ATOM     11  O   UNL     1       5.324   1.207  20.443  0.00  0.00    +0.000 OA
ATOM     12  N   UNL     1       4.677   3.217  19.637  0.00  0.00    +0.000 NA
ATOM     13  C   UNL     1       3.866   4.234  19.654  0.00  0.00    +0.000 A 
ATOM     14  N   UNL     1       4.034   5.331  18.812  0.00  0.00    +0.000 N 
ATOM     15  C   UNL     1       3.171   6.437  18.944  0.00  0.00    +0.000 A 
ATOM     16  C   UNL     1       3.279   7.608  18.175  0.00  0.00    +0.000 A 
ATOM     17  C   UNL     1       2.419   8.709  18.352  0.00  0.00    +0.000 A 
ATOM     18  C   UNL     1       2.625   9.946  17.519  0.00  0.00    +0.000 C 
ATOM     19  H   UNL     1       3.370   1.215  21.832  0.00  0.00    +0.000 HD
ENDROOT
BRANCH  14  20
ATOM     20  C   UNL     1       5.214   5.379  17.932  0.00  0.00    +0.000 C 
BRANCH  20  21
ATOM     21  C   UNL     1       6.412   6.051  18.637  0.00  0.00    +0.000 C 
BRANCH  21  22
ATOM     22  O   UNL     1       6.870   5.311  19.787  0.00  0.00    +0.000 OA
ATOM     23  H   UNL     1       7.627   4.759  19.503  0.00  0.00    +0.000 HD
ENDBRANCH  21  22
BRANCH  21  24
ATOM     24  C   UNL     1       7.637   6.301  17.725  0.00  0.00    +0.000 C 
BRANCH  24  25
ATOM     25  O   UNL     1       7.468   5.460  16.573  0.00  0.00    +0.000 OA
ATOM     26  H   UNL     1       7.004   6.011  15.912  0.00  0.00    +0.000 HD
ENDBRANCH  24  25
BRANCH  24  27
ATOM     27  C   UNL     1       7.832   7.773  17.281  0.00  0.00    +0.000 C 
BRANCH  27  28
ATOM     28  O   UNL     1       6.573   8.377  16.972  0.00  0.00    +0.000 OA
ATOM     29  H   UNL     1       6.600   9.310  17.248  0.00  0.00    +0.000 HD
ENDBRANCH  27  28
BRANCH  27  30
ATOM     30  C   UNL     1       8.511   8.641  18.349  0.00  0.00    +0.000 C 
BRANCH  30  31
ATOM     31  O   UNL     1       8.185  10.007  18.226  0.00  0.00    +0.000 OA
BRANCH  31  32
ATOM     32  P   UNL     1       9.371  11.050  18.459  0.00  0.00    +0.000 P 
ATOM     33  O   UNL     1      10.592  10.850  17.629  0.00  0.00    +0.000 OA
BRANCH  32  34
ATOM     34  O   UNL     1       8.676  12.476  18.334  0.00  0.00    +0.000 OA
ATOM     35  H   UNL     1       7.826  12.412  17.865  0.00  0.00    +0.000 HD
ENDBRANCH  32  34
BRANCH  32  36
ATOM     36  O   UNL     1       9.678  10.946  20.021  0.00  0.00    +0.000 OA
ATOM     37  H   UNL     1      10.624  10.747  20.155  0.00  0.00    +0.000 HD
ENDBRANCH  32  36
ENDBRANCH  31  32
ENDBRANCH  30  31
ENDBRANCH  27  30
ENDBRANCH  24  27
ENDBRANCH  21  24
ENDBRANCH  20  21
ENDBRANCH  14  20
TORSDOF 12
ENDMDL
MODEL 9
REMARK VINA RESULT:      -6.8      2.024      3.225
REMARK  Name = 
REMARK  14 active torsions:
REMARK  status: ('A' for Active; 'I' for Inactive)
REMARK    1  A    between atoms: C_1  and  C_2
REMARK    2  A    between atoms: N_14  and  C_15
REMARK    3  A    between atoms: C_15  and  C_16
REMARK    4  A    between atoms: C_16  and  O_17
REMARK    5  A    between atoms: C_16  and  C_18
REMARK    6  A    between atoms: C_18  and  O_19
REMARK    7  A    between atoms: C_18  and  C_20
REMARK    8  A    between atoms: C_20  and  O_21
REMARK    9  A    between atoms: C_20  and  C_22
REMARK   10  A    between atoms: C_22  and  O_23
REMARK   11  A    between atoms: O_23  and  P_24
REMARK   12  A    between atoms: P_24  and  O_26
REMARK   13  A    between atoms: P_24  and  O_27
REMARK   14  A    between atoms: C_30  and  C_31
REMARK                            x       y       z     vdW  Elec       q    Type
REMARK                         _______ _______ _______ _____ _____    ______ ____
ROOT
ATOM      1  C   UNL     1       0.693  10.304  21.273  0.00  0.00    +0.000 C 
ATOM      2  C   UNL     1       1.186   9.136  20.464  0.00  0.00    +0.000 A 
ATOM      3  C   UNL     1       1.351   7.888  21.079  0.00  0.00    +0.000 A 
ATOM      4  C   UNL     1       1.810   6.771  20.364  0.00  0.00    +0.000 A 
ATOM      5  N   UNL     1       1.938   5.567  21.086  0.00  0.00    +0.000 NA
ATOM      6  C   UNL     1       2.397   4.522  20.468  0.00  0.00    +0.000 A 
ATOM      7  C   UNL     1       2.551   3.216  21.204  0.00  0.00    +0.000 A 
ATOM      8  O   UNL     1       2.275   3.082  22.383  0.00  0.00    +0.000 OA
ATOM      9  N   UNL     1       3.040   2.210  20.429  0.00  0.00    +0.000 N 
ATOM     10  C   UNL     1       3.473   2.324  19.137  0.00  0.00    +0.000 A 
ATOM     11  O   UNL     1       4.013   1.356  18.611  0.00  0.00    +0.000 OA
ATOM     12  N   UNL     1       3.307   3.498  18.466  0.00  0.00    +0.000 NA
ATOM     13  C   UNL     1       2.795   4.560  19.017  0.00  0.00    +0.000 A 
ATOM     14  N   UNL     1       2.607   5.745  18.310  0.00  0.00    +0.000 N 
ATOM     15  C   UNL     1       2.129   6.882  18.992  0.00  0.00    +0.000 A 
ATOM     16  C   UNL     1       1.944   8.136  18.384  0.00  0.00    +0.000 A 
ATOM     17  C   UNL     1       1.494   9.262  19.100  0.00  0.00    +0.000 A 
ATOM     18  C   UNL     1       1.361  10.582  18.388  0.00  0.00    +0.000 C 
ATOM     19  H   UNL     1       3.205   1.317  20.867  0.00  0.00    +0.000 HD
ENDROOT
BRANCH  14  20
ATOM     20  C   UNL     1       3.078   5.826  16.918  0.00  0.00    +0.000 C 
BRANCH  20  21
ATOM     21  C   UNL     1       4.554   6.278  16.851  0.00  0.00    +0.000 C 
BRANCH  21  22
ATOM     22  O   UNL     1       5.248   6.102  18.102  0.00  0.00    +0.000 OA
ATOM     23  H   UNL     1       5.540   6.986  18.406  0.00  0.00    +0.000 HD
ENDBRANCH  21  22
BRANCH  21  24
ATOM     24  C   UNL     1       5.390   5.583  15.750  0.00  0.00    +0.000 C 
BRANCH  24  25
ATOM     25  O   UNL     1       5.391   6.467  14.618  0.00  0.00    +0.000 OA
ATOM     26  H   UNL     1       5.542   7.362  14.984  0.00  0.00    +0.000 HD
ENDBRANCH  24  25
BRANCH  24  27
ATOM     27  C   UNL     1       6.847   5.240  16.155  0.00  0.00    +0.000 C 
BRANCH  27  28
ATOM     28  O   UNL     1       7.574   6.429  16.474  0.00  0.00    +0.000 OA
ATOM     29  H   UNL     1       8.078   6.705  15.688  0.00  0.00    +0.000 HD
ENDBRANCH  27  28
BRANCH  27  30
ATOM     30  C   UNL     1       6.931   4.306  17.370  0.00  0.00    +0.000 C 
BRANCH  30  31
ATOM     31  O   UNL     1       8.098   4.513  18.133  0.00  0.00    +0.000 OA
BRANCH  31  32
ATOM     32  P   UNL     1       7.976   5.517  19.368  0.00  0.00    +0.000 P 
ATOM     33  O   UNL     1       8.156   6.963  19.058  0.00  0.00    +0.000 OA
BRANCH  32  34
ATOM     34  O   UNL     1       6.597   5.126  20.062  0.00  0.00    +0.000 OA
ATOM     35  H   UNL     1       6.548   5.480  20.967  0.00  0.00    +0.000 HD
ENDBRANCH  32  34
BRANCH  32  36
ATOM     36  O   UNL     1       9.057   4.983  20.412  0.00  0.00    +0.000 OA
ATOM     37  H   UNL     1       9.895   5.470  20.292  0.00  0.00    +0.000 HD
ENDBRANCH  32  36
ENDBRANCH  31  32
ENDBRANCH  30  31
ENDBRANCH  27  30
ENDBRANCH  24  27
ENDBRANCH  21  24
ENDBRANCH  20  21
ENDBRANCH  14  20
TORSDOF 12
ENDMDL
