MODEL 1
REMARK VINA RESULT:      -5.6      0.000      0.000
REMARK  Name = 
REMARK  5 active torsions:
REMARK  status: ('A' for Active; 'I' for Inactive)
REMARK    1  A    between atoms: C_1  and  C_2
REMARK    2  A    between atoms: C_2  and  C_3
REMARK    3  A    between atoms: C_2  and  C_4
REMARK    4  A    between atoms: C_7  and  O_8
REMARK    5  A    between atoms: C_9  and  N_10
REMARK                            x       y       z     vdW  Elec       q    Type
REMARK                         _______ _______ _______ _____ _____    ______ ____
ROOT
ATOM      1  C   UNL     1       4.088   5.119  17.894  0.00  0.00    +0.000 A 
ATOM      2  C   UNL     1       4.496   4.525  16.689  0.00  0.00    +0.000 A 
ATOM      3  C   UNL     1       5.837   4.207  16.465  0.00  0.00    +0.000 A 
ATOM      4  C   UNL     1       6.775   4.471  17.459  0.00  0.00    +0.000 A 
ATOM      5  C   UNL     1       6.394   5.013  18.693  0.00  0.00    +0.000 A 
ATOM      6  C   UNL     1       5.056   5.368  18.885  0.00  0.00    +0.000 A 
ENDROOT
BRANCH   1   8
ATOM      7  C   UNL     1       1.683   4.396  17.764  0.00  0.00    +0.000 C 
ATOM      8  C   UNL     1       2.644   5.530  18.129  0.00  0.00    +0.000 C 
ATOM      9  C   UNL     1       2.412   6.002  19.566  0.00  0.00    +0.000 C 
ENDBRANCH   1   8
BRANCH   5  10
ATOM     10  N   UNL     1       7.370   5.398  19.631  0.00  0.00    +0.000 N 
ATOM     11  H   UNL     1       6.922   5.816  20.446  0.00  0.00    +0.000 HD
ATOM     12  H   UNL     1       8.106   5.972  19.239  0.00  0.00    +0.000 HD
ENDBRANCH   5  10
BRANCH   4  13
ATOM     13  O   UNL     1       8.101   4.180  17.262  0.00  0.00    +0.000 OA
ATOM     14  H   UNL     1       8.261   3.276  17.573  0.00  0.00    +0.000 HD
ENDBRANCH   4  13
TORSDOF 3
ENDMDL
MODEL 2
REMARK VINA RESULT:      -5.5      3.200      4.153
REMARK  Name = 
REMARK  5 active torsions:
REMARK  status: ('A' for Active; 'I' for Inactive)
REMARK    1  A    between atoms: C_1  and  C_2
REMARK    2  A    between atoms: C_2  and  C_3
REMARK    3  A    between atoms: C_2  and  C_4
REMARK    4  A    between atoms: C_7  and  O_8
REMARK    5  A    between atoms: C_9  and  N_10
REMARK                            x       y       z     vdW  Elec       q    Type
REMARK                         _______ _______ _______ _____ _____    ______ ____
ROOT
ATOM      1  C   UNL     1       3.626   4.854  17.772  0.00  0.00    +0.000 A 
ATOM      2  C   UNL     1       2.229   4.955  17.880  0.00  0.00    +0.000 A 
ATOM      3  C   UNL     1       1.448   3.829  18.143  0.00  0.00    +0.000 A 
ATOM      4  C   UNL     1       2.067   2.594  18.315  0.00  0.00    +0.000 A 
ATOM      5  C   UNL     1       3.461   2.468  18.269  0.00  0.00    +0.000 A 
ATOM      6  C   UNL     1       4.227   3.595  17.959  0.00  0.00    +0.000 A 
ENDROOT
BRANCH   1   8
ATOM      7  C   UNL     1       5.096   5.912  16.028  0.00  0.00    +0.000 C 
ATOM      8  C   UNL     1       4.486   6.057  17.424  0.00  0.00    +0.000 C 
ATOM      9  C   UNL     1       3.709   7.369  17.548  0.00  0.00    +0.000 C 
ENDBRANCH   1   8
BRANCH   5  10
ATOM     10  N   UNL     1       4.059   1.195  18.310  0.00  0.00    +0.000 N 
ATOM     11  H   UNL     1       4.372   0.989  19.258  0.00  0.00    +0.000 HD
ATOM     12  H   UNL     1       4.781   1.062  17.612  0.00  0.00    +0.000 HD
ENDBRANCH   5  10
BRANCH   4  13
ATOM     13  O   UNL     1       1.323   1.469  18.563  0.00  0.00    +0.000 OA
ATOM     14  H   UNL     1       0.523   1.511  18.017  0.00  0.00    +0.000 HD
ENDBRANCH   4  13
TORSDOF 3
ENDMDL
MODEL 3
REMARK VINA RESULT:      -5.5      2.958      3.289
REMARK  Name = 
REMARK  5 active torsions:
REMARK  status: ('A' for Active; 'I' for Inactive)
REMARK    1  A    between atoms: C_1  and  C_2
REMARK    2  A    between atoms: C_2  and  C_3
REMARK    3  A    between atoms: C_2  and  C_4
REMARK    4  A    between atoms: C_7  and  O_8
REMARK    5  A    between atoms: C_9  and  N_10
REMARK                            x       y       z     vdW  Elec       q    Type
REMARK                         _______ _______ _______ _____ _____    ______ ____
ROOT
ATOM      1  C   UNL     1       2.759   4.623  18.500  0.00  0.00    +0.000 A 
ATOM      2  C   UNL     1       2.191   3.770  17.539  0.00  0.00    +0.000 A 
ATOM      3  C   UNL     1       2.566   2.429  17.461  0.00  0.00    +0.000 A 
ATOM      4  C   UNL     1       3.504   1.929  18.360  0.00  0.00    +0.000 A 
ATOM      5  C   UNL     1       4.049   2.737  19.365  0.00  0.00    +0.000 A 
ATOM      6  C   UNL     1       3.699   4.090  19.402  0.00  0.00    +0.000 A 
ENDROOT
BRANCH   1   8
ATOM      7  C   UNL     1       2.205   6.562  20.003  0.00  0.00    +0.000 C 
ATOM      8  C   UNL     1       2.410   6.100  18.558  0.00  0.00    +0.000 C 
ATOM      9  C   UNL     1       3.459   6.962  17.852  0.00  0.00    +0.000 C 
ENDBRANCH   1   8
BRANCH   5  10
ATOM     10  N   UNL     1       5.092   2.255  20.176  0.00  0.00    +0.000 N 
ATOM     11  H   UNL     1       5.888   1.989  19.597  0.00  0.00    +0.000 HD
ATOM     12  H   UNL     1       4.805   1.527  20.819  0.00  0.00    +0.000 HD
ENDBRANCH   5  10
BRANCH   4  13
ATOM     13  O   UNL     1       3.900   0.617  18.299  0.00  0.00    +0.000 OA
ATOM     14  H   UNL     1       4.684   0.512  18.859  0.00  0.00    +0.000 HD
ENDBRANCH   4  13
TORSDOF 3
ENDMDL
MODEL 4
REMARK VINA RESULT:      -5.5      0.476      1.103
REMARK  Name = 
REMARK  5 active torsions:
REMARK  status: ('A' for Active; 'I' for Inactive)
REMARK    1  A    between atoms: C_1  and  C_2
REMARK    2  A    between atoms: C_2  and  C_3
REMARK    3  A    between atoms: C_2  and  C_4
REMARK    4  A    between atoms: C_7  and  O_8
REMARK    5  A    between atoms: C_9  and  N_10
REMARK                            x       y       z     vdW  Elec       q    Type
REMARK                         _______ _______ _______ _____ _____    ______ ____
ROOT
ATOM      1  C   UNL     1       4.136   5.109  18.122  0.00  0.00    +0.000 A 
ATOM      2  C   UNL     1       4.462   4.528  16.886  0.00  0.00    +0.000 A 
ATOM      3  C   UNL     1       5.785   4.221  16.566  0.00  0.00    +0.000 A 
ATOM      4  C   UNL     1       6.789   4.480  17.493  0.00  0.00    +0.000 A 
ATOM      5  C   UNL     1       6.493   5.008  18.756  0.00  0.00    +0.000 A 
ATOM      6  C   UNL     1       5.170   5.353  19.045  0.00  0.00    +0.000 A 
ENDROOT
BRANCH   1   8
ATOM      7  C   UNL     1       2.455   6.979  18.123  0.00  0.00    +0.000 C 
ATOM      8  C   UNL     1       2.710   5.509  18.462  0.00  0.00    +0.000 C 
ATOM      9  C   UNL     1       1.685   4.603  17.778  0.00  0.00    +0.000 C 
ENDBRANCH   1   8
BRANCH   5  10
ATOM     10  N   UNL     1       7.531   5.389  19.627  0.00  0.00    +0.000 N 
ATOM     11  H   UNL     1       8.301   4.724  19.562  0.00  0.00    +0.000 HD
ATOM     12  H   UNL     1       7.224   5.554  20.577  0.00  0.00    +0.000 HD
ENDBRANCH   5  10
BRANCH   4  13
ATOM     13  O   UNL     1       8.100   4.198  17.201  0.00  0.00    +0.000 OA
ATOM     14  H   UNL     1       8.128   3.347  16.737  0.00  0.00    +0.000 HD
ENDBRANCH   4  13
TORSDOF 3
ENDMDL
MODEL 5
REMARK VINA RESULT:      -5.5      4.062      4.620
REMARK  Name = 
REMARK  5 active torsions:
REMARK  status: ('A' for Active; 'I' for Inactive)
REMARK    1  A    between atoms: C_1  and  C_2
REMARK    2  A    between atoms: C_2  and  C_3
REMARK    3  A    between atoms: C_2  and  C_4
REMARK    4  A    between atoms: C_7  and  O_8
REMARK    5  A    between atoms: C_9  and  N_10
REMARK                            x       y       z     vdW  Elec       q    Type
REMARK                         _______ _______ _______ _____ _____    ______ ____
ROOT
ATOM      1  C   UNL     1       2.092   5.735  19.192  0.00  0.00    +0.000 A 
ATOM      2  C   UNL     1       2.241   5.126  17.935  0.00  0.00    +0.000 A 
ATOM      3  C   UNL     1       1.951   3.773  17.756  0.00  0.00    +0.000 A 
ATOM      4  C   UNL     1       1.492   3.025  18.836  0.00  0.00    +0.000 A 
ATOM      5  C   UNL     1       1.280   3.613  20.089  0.00  0.00    +0.000 A 
ATOM      6  C   UNL     1       1.619   4.957  20.265  0.00  0.00    +0.000 A 
ENDROOT
BRANCH   1   8
ATOM      7  C   UNL     1       2.312   8.006  18.134  0.00  0.00    +0.000 C 
ATOM      8  C   UNL     1       2.464   7.190  19.420  0.00  0.00    +0.000 C 
ATOM      9  C   UNL     1       1.657   7.813  20.561  0.00  0.00    +0.000 C 
ENDBRANCH   1   8
BRANCH   5  10
ATOM     10  N   UNL     1       0.947   2.816  21.200  0.00  0.00    +0.000 N 
ATOM     11  H   UNL     1       0.342   3.337  21.833  0.00  0.00    +0.000 HD
ATOM     12  H   UNL     1       1.750   2.406  21.661  0.00  0.00    +0.000 HD
ENDBRANCH   5  10
BRANCH   4  13
ATOM     13  O   UNL     1       1.210   1.690  18.691  0.00  0.00    +0.000 OA
ATOM     14  H   UNL     1       2.012   1.188  18.902  0.00  0.00    +0.000 HD
ENDBRANCH   4  13
TORSDOF 3
ENDMDL
MODEL 6
REMARK VINA RESULT:      -5.4      3.567      4.312
REMARK  Name = 
REMARK  5 active torsions:
REMARK  status: ('A' for Active; 'I' for Inactive)
REMARK    1  A    between atoms: C_1  and  C_2
REMARK    2  A    between atoms: C_2  and  C_3
REMARK    3  A    between atoms: C_2  and  C_4
REMARK    4  A    between atoms: C_7  and  O_8
REMARK    5  A    between atoms: C_9  and  N_10
REMARK                            x       y       z     vdW  Elec       q    Type
REMARK                         _______ _______ _______ _____ _____    ______ ____
ROOT
ATOM      1  C   UNL     1       3.111   5.244  18.071  0.00  0.00    +0.000 A 
ATOM      2  C   UNL     1       3.454   4.156  17.251  0.00  0.00    +0.000 A 
ATOM      3  C   UNL     1       2.852   2.909  17.427  0.00  0.00    +0.000 A 
ATOM      4  C   UNL     1       1.889   2.750  18.420  0.00  0.00    +0.000 A 
ATOM      5  C   UNL     1       1.485   3.828  19.218  0.00  0.00    +0.000 A 
ATOM      6  C   UNL     1       2.129   5.058  19.061  0.00  0.00    +0.000 A 
ENDROOT
BRANCH   1   8
ATOM      7  C   UNL     1       4.715   6.620  16.708  0.00  0.00    +0.000 C 
ATOM      8  C   UNL     1       3.801   6.590  17.935  0.00  0.00    +0.000 C 
ATOM      9  C   UNL     1       2.798   7.745  17.898  0.00  0.00    +0.000 C 
ENDBRANCH   1   8
BRANCH   5  10
ATOM     10  N   UNL     1       0.612   3.619  20.302  0.00  0.00    +0.000 N 
ATOM     11  H   UNL     1       1.138   3.619  21.176  0.00  0.00    +0.000 HD
ATOM     12  H   UNL     1       0.016   2.808  20.194  0.00  0.00    +0.000 HD
ENDBRANCH   5  10
BRANCH   4  13
ATOM     13  O   UNL     1       1.290   1.533  18.622  0.00  0.00    +0.000 OA
ATOM     14  H   UNL     1       1.431   0.992  17.830  0.00  0.00    +0.000 HD
ENDBRANCH   4  13
TORSDOF 3
ENDMDL
MODEL 7
REMARK VINA RESULT:      -5.4      2.057      2.627
REMARK  Name = 
REMARK  5 active torsions:
REMARK  status: ('A' for Active; 'I' for Inactive)
REMARK    1  A    between atoms: C_1  and  C_2
REMARK    2  A    between atoms: C_2  and  C_3
REMARK    3  A    between atoms: C_2  and  C_4
REMARK    4  A    between atoms: C_7  and  O_8
REMARK    5  A    between atoms: C_9  and  N_10
REMARK                            x       y       z     vdW  Elec       q    Type
REMARK                         _______ _______ _______ _____ _____    ______ ____
ROOT
ATOM      1  C   UNL     1       3.945   4.482  17.086  0.00  0.00    +0.000 A 
ATOM      2  C   UNL     1       3.757   5.793  17.554  0.00  0.00    +0.000 A 
ATOM      3  C   UNL     1       4.778   6.739  17.460  0.00  0.00    +0.000 A 
ATOM      4  C   UNL     1       5.991   6.379  16.880  0.00  0.00    +0.000 A 
ATOM      5  C   UNL     1       6.192   5.097  16.354  0.00  0.00    +0.000 A 
ATOM      6  C   UNL     1       5.178   4.147  16.496  0.00  0.00    +0.000 A 
ENDROOT
BRANCH   1   8
ATOM      7  C   UNL     1       3.399   2.200  17.991  0.00  0.00    +0.000 C 
ATOM      8  C   UNL     1       2.867   3.421  17.237  0.00  0.00    +0.000 C 
ATOM      9  C   UNL     1       1.611   3.976  17.912  0.00  0.00    +0.000 C 
ENDBRANCH   1   8
BRANCH   5  10
ATOM     10  N   UNL     1       7.465   4.711  15.896  0.00  0.00    +0.000 N 
ATOM     11  H   UNL     1       8.026   5.537  15.689  0.00  0.00    +0.000 HD
ATOM     12  H   UNL     1       7.438   4.044  15.134  0.00  0.00    +0.000 HD
ENDBRANCH   5  10
BRANCH   4  13
ATOM     13  O   UNL     1       7.015   7.287  16.785  0.00  0.00    +0.000 OA
ATOM     14  H   UNL     1       7.328   7.483  17.681  0.00  0.00    +0.000 HD
ENDBRANCH   4  13
TORSDOF 3
ENDMDL
MODEL 8
REMARK VINA RESULT:      -5.4      3.135      4.390
REMARK  Name = 
REMARK  5 active torsions:
REMARK  status: ('A' for Active; 'I' for Inactive)
REMARK    1  A    between atoms: C_1  and  C_2
REMARK    2  A    between atoms: C_2  and  C_3
REMARK    3  A    between atoms: C_2  and  C_4
REMARK    4  A    between atoms: C_7  and  O_8
REMARK    5  A    between atoms: C_9  and  N_10
REMARK                            x       y       z     vdW  Elec       q    Type
REMARK                         _______ _______ _______ _____ _____    ______ ____
ROOT
ATOM      1  C   UNL     1       3.818   4.785  17.761  0.00  0.00    +0.000 A 
ATOM      2  C   UNL     1       2.443   5.050  17.861  0.00  0.00    +0.000 A 
ATOM      3  C   UNL     1       1.532   4.024  18.114  0.00  0.00    +0.000 A 
ATOM      4  C   UNL     1       1.999   2.724  18.284  0.00  0.00    +0.000 A 
ATOM      5  C   UNL     1       3.368   2.433  18.245  0.00  0.00    +0.000 A 
ATOM      6  C   UNL     1       4.264   3.463  17.945  0.00  0.00    +0.000 A 
ENDROOT
BRANCH   1   8
ATOM      7  C   UNL     1       6.087   5.745  18.267  0.00  0.00    +0.000 C 
ATOM      8  C   UNL     1       4.817   5.879  17.423  0.00  0.00    +0.000 C 
ATOM      9  C   UNL     1       5.152   5.904  15.930  0.00  0.00    +0.000 C 
ENDBRANCH   1   8
BRANCH   5  10
ATOM     10  N   UNL     1       3.812   1.098  18.283  0.00  0.00    +0.000 N 
ATOM     11  H   UNL     1       4.020   0.829  19.244  0.00  0.00    +0.000 HD
ATOM     12  H   UNL     1       4.568   0.902  17.640  0.00  0.00    +0.000 HD
ENDBRANCH   5  10
BRANCH   4  13
ATOM     13  O   UNL     1       1.125   1.694  18.522  0.00  0.00    +0.000 OA
ATOM     14  H   UNL     1       1.633   0.868  18.548  0.00  0.00    +0.000 HD
ENDBRANCH   4  13
TORSDOF 3
ENDMDL
MODEL 9
REMARK VINA RESULT:      -5.4      1.703      2.000
REMARK  Name = 
REMARK  5 active torsions:
REMARK  status: ('A' for Active; 'I' for Inactive)
REMARK    1  A    between atoms: C_1  and  C_2
REMARK    2  A    between atoms: C_2  and  C_3
REMARK    3  A    between atoms: C_2  and  C_4
REMARK    4  A    between atoms: C_7  and  O_8
REMARK    5  A    between atoms: C_9  and  N_10
REMARK                            x       y       z     vdW  Elec       q    Type
REMARK                         _______ _______ _______ _____ _____    ______ ____
ROOT
ATOM      1  C   UNL     1       4.352   5.081  17.313  0.00  0.00    +0.000 A 
ATOM      2  C   UNL     1       4.597   4.130  16.309  0.00  0.00    +0.000 A 
ATOM      3  C   UNL     1       5.740   4.210  15.512  0.00  0.00    +0.000 A 
ATOM      4  C   UNL     1       6.653   5.238  15.729  0.00  0.00    +0.000 A 
ATOM      5  C   UNL     1       6.467   6.170  16.758  0.00  0.00    +0.000 A 
ATOM      6  C   UNL     1       5.295   6.104  17.517  0.00  0.00    +0.000 A 
ENDROOT
BRANCH   1   8
ATOM      7  C   UNL     1       2.462   6.440  18.264  0.00  0.00    +0.000 C 
ATOM      8  C   UNL     1       3.083   5.046  18.148  0.00  0.00    +0.000 C 
ATOM      9  C   UNL     1       2.068   4.040  17.602  0.00  0.00    +0.000 C 
ENDBRANCH   1   8
BRANCH   5  10
ATOM     10  N   UNL     1       7.326   7.277  16.876  0.00  0.00    +0.000 N 
ATOM     11  H   UNL     1       7.430   7.534  17.857  0.00  0.00    +0.000 HD
ATOM     12  H   UNL     1       7.069   8.057  16.284  0.00  0.00    +0.000 HD
ENDBRANCH   5  10
BRANCH   4  13
ATOM     13  O   UNL     1       7.779   5.347  14.953  0.00  0.00    +0.000 OA
ATOM     14  H   UNL     1       7.635   6.061  14.312  0.00  0.00    +0.000 HD
ENDBRANCH   4  13
TORSDOF 3
ENDMDL
