MODEL 1
REMARK VINA RESULT:      -6.9      0.000      0.000
REMARK  Name = 
REMARK  10 active torsions:
REMARK  status: ('A' for Active; 'I' for Inactive)
REMARK    1  A    between atoms: C_1  and  C_2
REMARK    2  A    between atoms: C_2  and  C_3
REMARK    3  A    between atoms: C_3  and  C_4
REMARK    4  A    between atoms: C_4  and  C_5
REMARK    5  A    between atoms: C_5  and  C_6
REMARK    6  A    between atoms: C_6  and  C_7
REMARK    7  A    between atoms: C_7  and  C_8
REMARK    8  A    between atoms: C_7  and  N_11
REMARK    9  A    between atoms: C_8  and  C_9
REMARK   10  A    between atoms: C_9  and  O_10
REMARK                            x       y       z     vdW  Elec       q    Type
REMARK                         _______ _______ _______ _____ _____    ______ ____
ROOT
ATOM      1  N   UNL     1       4.282   4.152  18.200  0.00  0.00    +0.000 N 
ATOM      2  C   UNL     1       4.046   2.801  18.119  0.00  0.00    +0.000 A 
ATOM      3  N   UNL     1       3.029   2.427  18.871  0.00  0.00    +0.000 NA
ATOM      4  C   UNL     1       2.572   3.594  19.446  0.00  0.00    +0.000 A 
ATOM      5  C   UNL     1       1.517   3.865  20.340  0.00  0.00    +0.000 A 
ATOM      6  N   UNL     1       0.701   2.881  20.877  0.00  0.00    +0.000 N 
ATOM      7  N   UNL     1       1.270   5.147  20.687  0.00  0.00    +0.000 NA
ATOM      8  C   UNL     1       2.085   6.093  20.193  0.00  0.00    +0.000 A 
ATOM      9 CL   UNL     1       1.704   7.705  20.625  0.00  0.00    +0.000 Cl
ATOM     10  N   UNL     1       3.145   5.958  19.376  0.00  0.00    +0.000 NA
ATOM     11  C   UNL     1       3.324   4.677  19.027  0.00  0.00    +0.000 A 
ATOM     12  H   UNL     1       0.694   2.013  20.349  0.00  0.00    +0.000 HD
ATOM     13  H   UNL     1      -0.185   3.245  21.202  0.00  0.00    +0.000 HD
ENDROOT
BRANCH   1  14
ATOM     14  C   UNL     1       5.384   4.849  17.528  0.00  0.00    +0.000 C 
BRANCH  14  15
ATOM     15  C   UNL     1       4.903   5.884  16.485  0.00  0.00    +0.000 C 
BRANCH  15  16
ATOM     16  C   UNL     1       5.560   5.760  15.112  0.00  0.00    +0.000 C 
BRANCH  16  17
ATOM     17  C   UNL     1       5.293   4.377  14.505  0.00  0.00    +0.000 C 
BRANCH  17  18
ATOM     18  C   UNL     1       6.550   3.854  13.815  0.00  0.00    +0.000 C 
BRANCH  18  20
ATOM     19  C   UNL     1       4.849   3.359  12.047  0.00  0.00    +0.000 C 
ATOM     20  C   UNL     1       6.327   3.577  12.330  0.00  0.00    +0.000 C 
ENDBRANCH  18  20
ENDBRANCH  17  18
ENDBRANCH  16  17
ENDBRANCH  15  16
ENDBRANCH  14  15
BRANCH  14  21
ATOM     21  C   UNL     1       6.396   5.385  18.559  0.00  0.00    +0.000 C 
BRANCH  21  22
ATOM     22  C   UNL     1       7.858   5.101  18.240  0.00  0.00    +0.000 C 
BRANCH  22  23
ATOM     23  O   UNL     1       7.924   4.135  17.198  0.00  0.00    +0.000 OA
ATOM     24  H   UNL     1       7.500   3.321  17.521  0.00  0.00    +0.000 HD
ENDBRANCH  22  23
ENDBRANCH  21  22
ENDBRANCH  14  21
ENDBRANCH   1  14
TORSDOF 9
ENDMDL
MODEL 2
REMARK VINA RESULT:      -6.8      3.564      6.316
REMARK  Name = 
REMARK  10 active torsions:
REMARK  status: ('A' for Active; 'I' for Inactive)
REMARK    1  A    between atoms: C_1  and  C_2
REMARK    2  A    between atoms: C_2  and  C_3
REMARK    3  A    between atoms: C_3  and  C_4
REMARK    4  A    between atoms: C_4  and  C_5
REMARK    5  A    between atoms: C_5  and  C_6
REMARK    6  A    between atoms: C_6  and  C_7
REMARK    7  A    between atoms: C_7  and  C_8
REMARK    8  A    between atoms: C_7  and  N_11
REMARK    9  A    between atoms: C_8  and  C_9
REMARK   10  A    between atoms: C_9  and  O_10
REMARK                            x       y       z     vdW  Elec       q    Type
REMARK                         _______ _______ _______ _____ _____    ______ ____
ROOT
ATOM      1  N   UNL     1       4.325   5.660  18.182  0.00  0.00    +0.000 N 
ATOM      2  C   UNL     1       4.810   5.533  19.461  0.00  0.00    +0.000 A 
ATOM      3  N   UNL     1       6.052   5.090  19.481  0.00  0.00    +0.000 NA
ATOM      4  C   UNL     1       6.393   4.947  18.152  0.00  0.00    +0.000 A 
ATOM      5  C   UNL     1       7.574   4.518  17.513  0.00  0.00    +0.000 A 
ATOM      6  N   UNL     1       8.697   4.082  18.199  0.00  0.00    +0.000 N 
ATOM      7  N   UNL     1       7.629   4.541  16.164  0.00  0.00    +0.000 NA
ATOM      8  C   UNL     1       6.527   4.929  15.502  0.00  0.00    +0.000 A 
ATOM      9 CL   UNL     1       6.661   4.986  13.796  0.00  0.00    +0.000 Cl
ATOM     10  N   UNL     1       5.335   5.314  15.991  0.00  0.00    +0.000 NA
ATOM     11  C   UNL     1       5.341   5.314  17.332  0.00  0.00    +0.000 A 
ATOM     12  H   UNL     1       8.740   4.394  19.165  0.00  0.00    +0.000 HD
ATOM     13  H   UNL     1       9.540   4.144  17.644  0.00  0.00    +0.000 HD
ENDROOT
BRANCH   1  14
ATOM     14  C   UNL     1       2.956   6.069  17.845  0.00  0.00    +0.000 C 
BRANCH  14  15
ATOM     15  C   UNL     1       1.923   4.932  18.019  0.00  0.00    +0.000 C 
BRANCH  15  16
ATOM     16  C   UNL     1       2.413   3.551  17.587  0.00  0.00    +0.000 C 
BRANCH  16  17
ATOM     17  C   UNL     1       1.661   2.448  18.340  0.00  0.00    +0.000 C 
BRANCH  17  18
ATOM     18  C   UNL     1       0.887   3.045  19.513  0.00  0.00    +0.000 C 
BRANCH  18  20
ATOM     19  C   UNL     1       2.165   3.762  21.542  0.00  0.00    +0.000 C 
ATOM     20  C   UNL     1       1.446   2.606  20.865  0.00  0.00    +0.000 C 
ENDBRANCH  18  20
ENDBRANCH  17  18
ENDBRANCH  16  17
ENDBRANCH  15  16
ENDBRANCH  14  15
BRANCH  14  21
ATOM     21  C   UNL     1       2.595   7.390  18.550  0.00  0.00    +0.000 C 
BRANCH  21  22
ATOM     22  C   UNL     1       2.051   8.483  17.639  0.00  0.00    +0.000 C 
BRANCH  22  23
ATOM     23  O   UNL     1       1.760   9.635  18.422  0.00  0.00    +0.000 OA
ATOM     24  H   UNL     1       2.607  10.050  18.664  0.00  0.00    +0.000 HD
ENDBRANCH  22  23
ENDBRANCH  21  22
ENDBRANCH  14  21
ENDBRANCH   1  14
TORSDOF 9
ENDMDL
MODEL 3
REMARK VINA RESULT:      -6.8      0.939      1.008
REMARK  Name = 
REMARK  10 active torsions:
REMARK  status: ('A' for Active; 'I' for Inactive)
REMARK    1  A    between atoms: C_1  and  C_2
REMARK    2  A    between atoms: C_2  and  C_3
REMARK    3  A    between atoms: C_3  and  C_4
REMARK    4  A    between atoms: C_4  and  C_5
REMARK    5  A    between atoms: C_5  and  C_6
REMARK    6  A    between atoms: C_6  and  C_7
REMARK    7  A    between atoms: C_7  and  C_8
REMARK    8  A    between atoms: C_7  and  N_11
REMARK    9  A    between atoms: C_8  and  C_9
REMARK   10  A    between atoms: C_9  and  O_10
REMARK                            x       y       z     vdW  Elec       q    Type
REMARK                         _______ _______ _______ _____ _____    ______ ____
ROOT
ATOM      1  N   UNL     1       4.359   4.376  18.488  0.00  0.00    +0.000 N 
ATOM      2  C   UNL     1       4.131   3.050  18.214  0.00  0.00    +0.000 A 
ATOM      3  N   UNL     1       3.021   2.608  18.772  0.00  0.00    +0.000 NA
ATOM      4  C   UNL     1       2.495   3.707  19.418  0.00  0.00    +0.000 A 
ATOM      5  C   UNL     1       1.331   3.890  20.191  0.00  0.00    +0.000 A 
ATOM      6  N   UNL     1       0.446   2.866  20.491  0.00  0.00    +0.000 N 
ATOM      7  N   UNL     1       1.044   5.126  20.654  0.00  0.00    +0.000 NA
ATOM      8  C   UNL     1       1.922   6.108  20.391  0.00  0.00    +0.000 A 
ATOM      9 CL   UNL     1       1.493   7.665  20.961  0.00  0.00    +0.000 Cl
ATOM     10  N   UNL     1       3.081   6.051  19.713  0.00  0.00    +0.000 NA
ATOM     11  C   UNL     1       3.301   4.817  19.238  0.00  0.00    +0.000 A 
ATOM     12  H   UNL     1       0.507   2.068  19.865  0.00  0.00    +0.000 HD
ATOM     13  H   UNL     1      -0.474   3.206  20.737  0.00  0.00    +0.000 HD
ENDROOT
BRANCH   1  14
ATOM     14  C   UNL     1       5.545   5.126  18.059  0.00  0.00    +0.000 C 
BRANCH  14  15
ATOM     15  C   UNL     1       5.220   6.250  17.048  0.00  0.00    +0.000 C 
BRANCH  15  16
ATOM     16  C   UNL     1       5.430   5.872  15.583  0.00  0.00    +0.000 C 
BRANCH  16  17
ATOM     17  C   UNL     1       6.682   5.001  15.421  0.00  0.00    +0.000 C 
BRANCH  17  18
ATOM     18  C   UNL     1       6.856   4.598  13.959  0.00  0.00    +0.000 C 
BRANCH  18  20
ATOM     19  C   UNL     1       6.007   3.208  12.058  0.00  0.00    +0.000 C 
ATOM     20  C   UNL     1       5.696   3.749  13.446  0.00  0.00    +0.000 C 
ENDBRANCH  18  20
ENDBRANCH  17  18
ENDBRANCH  16  17
ENDBRANCH  15  16
ENDBRANCH  14  15
BRANCH  14  21
ATOM     21  C   UNL     1       6.380   5.567  19.277  0.00  0.00    +0.000 C 
BRANCH  21  22
ATOM     22  C   UNL     1       7.878   5.685  19.027  0.00  0.00    +0.000 C 
BRANCH  22  23
ATOM     23  O   UNL     1       8.574   5.285  20.202  0.00  0.00    +0.000 OA
ATOM     24  H   UNL     1       9.372   5.837  20.275  0.00  0.00    +0.000 HD
ENDBRANCH  22  23
ENDBRANCH  21  22
ENDBRANCH  14  21
ENDBRANCH   1  14
TORSDOF 9
ENDMDL
MODEL 4
REMARK VINA RESULT:      -6.7      3.390      6.627
REMARK  Name = 
REMARK  10 active torsions:
REMARK  status: ('A' for Active; 'I' for Inactive)
REMARK    1  A    between atoms: C_1  and  C_2
REMARK    2  A    between atoms: C_2  and  C_3
REMARK    3  A    between atoms: C_3  and  C_4
REMARK    4  A    between atoms: C_4  and  C_5
REMARK    5  A    between atoms: C_5  and  C_6
REMARK    6  A    between atoms: C_6  and  C_7
REMARK    7  A    between atoms: C_7  and  C_8
REMARK    8  A    between atoms: C_7  and  N_11
REMARK    9  A    between atoms: C_8  and  C_9
REMARK   10  A    between atoms: C_9  and  O_10
REMARK                            x       y       z     vdW  Elec       q    Type
REMARK                         _______ _______ _______ _____ _____    ______ ____
ROOT
ATOM      1  N   UNL     1       4.809   3.861  18.208  0.00  0.00    +0.000 N 
ATOM      2  C   UNL     1       5.041   4.741  19.238  0.00  0.00    +0.000 A 
ATOM      3  N   UNL     1       5.896   5.686  18.903  0.00  0.00    +0.000 NA
ATOM      4  C   UNL     1       6.214   5.419  17.588  0.00  0.00    +0.000 A 
ATOM      5  C   UNL     1       7.067   6.059  16.665  0.00  0.00    +0.000 A 
ATOM      6  N   UNL     1       7.842   7.163  16.983  0.00  0.00    +0.000 N 
ATOM      7  N   UNL     1       7.129   5.588  15.401  0.00  0.00    +0.000 NA
ATOM      8  C   UNL     1       6.404   4.496  15.107  0.00  0.00    +0.000 A 
ATOM      9 CL   UNL     1       6.480   3.966  13.481  0.00  0.00    +0.000 Cl
ATOM     10  N   UNL     1       5.597   3.774  15.904  0.00  0.00    +0.000 NA
ATOM     11  C   UNL     1       5.535   4.303  17.134  0.00  0.00    +0.000 A 
ATOM     12  H   UNL     1       7.521   7.675  17.800  0.00  0.00    +0.000 HD
ATOM     13  H   UNL     1       8.112   7.697  16.167  0.00  0.00    +0.000 HD
ENDROOT
BRANCH   1  14
ATOM     14  C   UNL     1       3.955   2.672  18.302  0.00  0.00    +0.000 C 
BRANCH  14  15
ATOM     15  C   UNL     1       3.691   2.227  19.759  0.00  0.00    +0.000 C 
BRANCH  15  16
ATOM     16  C   UNL     1       2.216   2.072  20.123  0.00  0.00    +0.000 C 
BRANCH  16  17
ATOM     17  C   UNL     1       1.934   2.659  21.511  0.00  0.00    +0.000 C 
BRANCH  17  18
ATOM     18  C   UNL     1       2.256   4.152  21.526  0.00  0.00    +0.000 C 
BRANCH  18  20
ATOM     19  C   UNL     1       1.867   6.369  20.431  0.00  0.00    +0.000 C 
ATOM     20  C   UNL     1       1.332   4.957  20.615  0.00  0.00    +0.000 C 
ENDBRANCH  18  20
ENDBRANCH  17  18
ENDBRANCH  16  17
ENDBRANCH  15  16
ENDBRANCH  14  15
BRANCH  14  21
ATOM     21  C   UNL     1       2.693   2.839  17.434  0.00  0.00    +0.000 C 
BRANCH  21  22
ATOM     22  C   UNL     1       2.174   4.266  17.314  0.00  0.00    +0.000 C 
BRANCH  22  23
ATOM     23  O   UNL     1       0.760   4.232  17.164  0.00  0.00    +0.000 OA
ATOM     24  H   UNL     1       0.429   3.456  17.648  0.00  0.00    +0.000 HD
ENDBRANCH  22  23
ENDBRANCH  21  22
ENDBRANCH  14  21
ENDBRANCH   1  14
TORSDOF 9
ENDMDL
MODEL 5
REMARK VINA RESULT:      -6.7      2.081      2.563
REMARK  Name = 
REMARK  10 active torsions:
REMARK  status: ('A' for Active; 'I' for Inactive)
REMARK    1  A    between atoms: C_1  and  C_2
REMARK    2  A    between atoms: C_2  and  C_3
REMARK    3  A    between atoms: C_3  and  C_4
REMARK    4  A    between atoms: C_4  and  C_5
REMARK    5  A    between atoms: C_5  and  C_6
REMARK    6  A    between atoms: C_6  and  C_7
REMARK    7  A    between atoms: C_7  and  C_8
REMARK    8  A    between atoms: C_7  and  N_11
REMARK    9  A    between atoms: C_8  and  C_9
REMARK   10  A    between atoms: C_9  and  O_10
REMARK                            x       y       z     vdW  Elec       q    Type
REMARK                         _______ _______ _______ _____ _____    ______ ____
ROOT
ATOM      1  N   UNL     1       4.277   4.649  18.068  0.00  0.00    +0.000 N 
ATOM      2  C   UNL     1       3.107   5.351  17.906  0.00  0.00    +0.000 A 
ATOM      3  N   UNL     1       2.161   4.939  18.726  0.00  0.00    +0.000 NA
ATOM      4  C   UNL     1       2.754   3.940  19.470  0.00  0.00    +0.000 A 
ATOM      5  C   UNL     1       2.275   3.113  20.506  0.00  0.00    +0.000 A 
ATOM      6  N   UNL     1       0.969   3.150  20.969  0.00  0.00    +0.000 N 
ATOM      7  N   UNL     1       3.128   2.246  21.094  0.00  0.00    +0.000 NA
ATOM      8  C   UNL     1       4.383   2.189  20.617  0.00  0.00    +0.000 A 
ATOM      9 CL   UNL     1       5.438   1.109  21.425  0.00  0.00    +0.000 Cl
ATOM     10  N   UNL     1       4.942   2.885  19.612  0.00  0.00    +0.000 NA
ATOM     11  C   UNL     1       4.071   3.759  19.089  0.00  0.00    +0.000 A 
ATOM     12  H   UNL     1       0.476   4.012  20.754  0.00  0.00    +0.000 HD
ATOM     13  H   UNL     1       0.877   2.772  21.903  0.00  0.00    +0.000 HD
ENDROOT
BRANCH   1  14
ATOM     14  C   UNL     1       5.484   4.837  17.255  0.00  0.00    +0.000 C 
BRANCH  14  15
ATOM     15  C   UNL     1       5.205   4.791  15.735  0.00  0.00    +0.000 C 
BRANCH  15  16
ATOM     16  C   UNL     1       6.139   3.880  14.941  0.00  0.00    +0.000 C 
BRANCH  16  17
ATOM     17  C   UNL     1       6.925   4.684  13.899  0.00  0.00    +0.000 C 
BRANCH  17  18
ATOM     18  C   UNL     1       6.897   3.968  12.551  0.00  0.00    +0.000 C 
BRANCH  18  20
ATOM     19  C   UNL     1       5.651   2.061  11.516  0.00  0.00    +0.000 C 
ATOM     20  C   UNL     1       5.518   3.402  12.220  0.00  0.00    +0.000 C 
ENDBRANCH  18  20
ENDBRANCH  17  18
ENDBRANCH  16  17
ENDBRANCH  15  16
ENDBRANCH  14  15
BRANCH  14  21
ATOM     21  C   UNL     1       6.275   6.069  17.735  0.00  0.00    +0.000 C 
BRANCH  21  22
ATOM     22  C   UNL     1       7.638   5.767  18.343  0.00  0.00    +0.000 C 
BRANCH  22  23
ATOM     23  O   UNL     1       7.914   4.379  18.192  0.00  0.00    +0.000 OA
ATOM     24  H   UNL     1       7.443   4.068  17.399  0.00  0.00    +0.000 HD
ENDBRANCH  22  23
ENDBRANCH  21  22
ENDBRANCH  14  21
ENDBRANCH   1  14
TORSDOF 9
ENDMDL
MODEL 6
REMARK VINA RESULT:      -6.6      2.333      2.795
REMARK  Name = 
REMARK  10 active torsions:
REMARK  status: ('A' for Active; 'I' for Inactive)
REMARK    1  A    between atoms: C_1  and  C_2
REMARK    2  A    between atoms: C_2  and  C_3
REMARK    3  A    between atoms: C_3  and  C_4
REMARK    4  A    between atoms: C_4  and  C_5
REMARK    5  A    between atoms: C_5  and  C_6
REMARK    6  A    between atoms: C_6  and  C_7
REMARK    7  A    between atoms: C_7  and  C_8
REMARK    8  A    between atoms: C_7  and  N_11
REMARK    9  A    between atoms: C_8  and  C_9
REMARK   10  A    between atoms: C_9  and  O_10
REMARK                            x       y       z     vdW  Elec       q    Type
REMARK                         _______ _______ _______ _____ _____    ______ ____
ROOT
ATOM      1  N   UNL     1       4.843   5.315  18.149  0.00  0.00    +0.000 N 
ATOM      2  C   UNL     1       3.769   6.107  17.822  0.00  0.00    +0.000 A 
ATOM      3  N   UNL     1       2.640   5.650  18.327  0.00  0.00    +0.000 NA
ATOM      4  C   UNL     1       3.006   4.523  19.034  0.00  0.00    +0.000 A 
ATOM      5  C   UNL     1       2.267   3.595  19.796  0.00  0.00    +0.000 A 
ATOM      6  N   UNL     1       0.890   3.653  19.940  0.00  0.00    +0.000 N 
ATOM      7  N   UNL     1       2.927   2.604  20.434  0.00  0.00    +0.000 NA
ATOM      8  C   UNL     1       4.257   2.531  20.262  0.00  0.00    +0.000 A 
ATOM      9 CL   UNL     1       5.053   1.287  21.127  0.00  0.00    +0.000 Cl
ATOM     10  N   UNL     1       5.063   3.320  19.529  0.00  0.00    +0.000 NA
ATOM     11  C   UNL     1       4.370   4.311  18.950  0.00  0.00    +0.000 A 
ATOM     12  H   UNL     1       0.489   4.566  19.745  0.00  0.00    +0.000 HD
ATOM     13  H   UNL     1       0.564   3.159  20.761  0.00  0.00    +0.000 HD
ENDROOT
BRANCH   1  14
ATOM     14  C   UNL     1       6.215   5.534  17.677  0.00  0.00    +0.000 C 
BRANCH  14  15
ATOM     15  C   UNL     1       6.662   4.508  16.611  0.00  0.00    +0.000 C 
BRANCH  15  16
ATOM     16  C   UNL     1       6.399   4.931  15.167  0.00  0.00    +0.000 C 
BRANCH  16  17
ATOM     17  C   UNL     1       5.924   3.738  14.330  0.00  0.00    +0.000 C 
BRANCH  17  18
ATOM     18  C   UNL     1       6.400   3.885  12.887  0.00  0.00    +0.000 C 
BRANCH  18  20
ATOM     19  C   UNL     1       4.393   3.327  11.499  0.00  0.00    +0.000 C 
ATOM     20  C   UNL     1       5.765   2.855  11.956  0.00  0.00    +0.000 C 
ENDBRANCH  18  20
ENDBRANCH  17  18
ENDBRANCH  16  17
ENDBRANCH  15  16
ENDBRANCH  14  15
BRANCH  14  21
ATOM     21  C   UNL     1       6.427   7.011  17.290  0.00  0.00    +0.000 C 
BRANCH  21  22
ATOM     22  C   UNL     1       7.799   7.579  17.629  0.00  0.00    +0.000 C 
BRANCH  22  23
ATOM     23  O   UNL     1       7.702   8.996  17.722  0.00  0.00    +0.000 OA
ATOM     24  H   UNL     1       7.586   9.345  16.822  0.00  0.00    +0.000 HD
ENDBRANCH  22  23
ENDBRANCH  21  22
ENDBRANCH  14  21
ENDBRANCH   1  14
TORSDOF 9
ENDMDL
MODEL 7
REMARK VINA RESULT:      -6.6      1.768      2.140
REMARK  Name = 
REMARK  10 active torsions:
REMARK  status: ('A' for Active; 'I' for Inactive)
REMARK    1  A    between atoms: C_1  and  C_2
REMARK    2  A    between atoms: C_2  and  C_3
REMARK    3  A    between atoms: C_3  and  C_4
REMARK    4  A    between atoms: C_4  and  C_5
REMARK    5  A    between atoms: C_5  and  C_6
REMARK    6  A    between atoms: C_6  and  C_7
REMARK    7  A    between atoms: C_7  and  C_8
REMARK    8  A    between atoms: C_7  and  N_11
REMARK    9  A    between atoms: C_8  and  C_9
REMARK   10  A    between atoms: C_9  and  O_10
REMARK                            x       y       z     vdW  Elec       q    Type
REMARK                         _______ _______ _______ _____ _____    ______ ____
ROOT
ATOM      1  N   UNL     1       5.220   5.011  17.801  0.00  0.00    +0.000 N 
ATOM      2  C   UNL     1       5.160   3.887  18.588  0.00  0.00    +0.000 A 
ATOM      3  N   UNL     1       4.187   3.951  19.476  0.00  0.00    +0.000 NA
ATOM      4  C   UNL     1       3.576   5.164  19.237  0.00  0.00    +0.000 A 
ATOM      5  C   UNL     1       2.481   5.814  19.841  0.00  0.00    +0.000 A 
ATOM      6  N   UNL     1       1.789   5.294  20.924  0.00  0.00    +0.000 N 
ATOM      7  N   UNL     1       2.068   6.997  19.338  0.00  0.00    +0.000 NA
ATOM      8  C   UNL     1       2.764   7.514  18.312  0.00  0.00    +0.000 A 
ATOM      9 CL   UNL     1       2.173   8.992  17.680  0.00  0.00    +0.000 Cl
ATOM     10  N   UNL     1       3.844   7.019  17.684  0.00  0.00    +0.000 NA
ATOM     11  C   UNL     1       4.191   5.827  18.190  0.00  0.00    +0.000 A 
ATOM     12  H   UNL     1       1.901   4.292  21.046  0.00  0.00    +0.000 HD
ATOM     13  H   UNL     1       0.859   5.681  21.013  0.00  0.00    +0.000 HD
ENDROOT
BRANCH   1  14
ATOM     14  C   UNL     1       6.236   5.256  16.771  0.00  0.00    +0.000 C 
BRANCH  14  15
ATOM     15  C   UNL     1       5.639   5.396  15.351  0.00  0.00    +0.000 C 
BRANCH  15  16
ATOM     16  C   UNL     1       6.455   4.729  14.246  0.00  0.00    +0.000 C 
BRANCH  16  17
ATOM     17  C   UNL     1       5.597   3.726  13.467  0.00  0.00    +0.000 C 
BRANCH  17  18
ATOM     18  C   UNL     1       6.309   3.309  12.183  0.00  0.00    +0.000 C 
BRANCH  18  20
ATOM     19  C   UNL     1       6.595   1.113  11.016  0.00  0.00    +0.000 C 
ATOM     20  C   UNL     1       5.595   2.168  11.463  0.00  0.00    +0.000 C 
ENDBRANCH  18  20
ENDBRANCH  17  18
ENDBRANCH  16  17
ENDBRANCH  15  16
ENDBRANCH  14  15
BRANCH  14  21
ATOM     21  C   UNL     1       7.178   6.398  17.197  0.00  0.00    +0.000 C 
BRANCH  21  22
ATOM     22  C   UNL     1       7.707   6.304  18.622  0.00  0.00    +0.000 C 
BRANCH  22  23
ATOM     23  O   UNL     1       8.504   7.450  18.896  0.00  0.00    +0.000 OA
ATOM     24  H   UNL     1       8.565   7.545  19.862  0.00  0.00    +0.000 HD
ENDBRANCH  22  23
ENDBRANCH  21  22
ENDBRANCH  14  21
ENDBRANCH   1  14
TORSDOF 9
ENDMDL
MODEL 8
REMARK VINA RESULT:      -6.6      3.264      6.025
REMARK  Name = 
REMARK  10 active torsions:
REMARK  status: ('A' for Active; 'I' for Inactive)
REMARK    1  A    between atoms: C_1  and  C_2
REMARK    2  A    between atoms: C_2  and  C_3
REMARK    3  A    between atoms: C_3  and  C_4
REMARK    4  A    between atoms: C_4  and  C_5
REMARK    5  A    between atoms: C_5  and  C_6
REMARK    6  A    between atoms: C_6  and  C_7
REMARK    7  A    between atoms: C_7  and  C_8
REMARK    8  A    between atoms: C_7  and  N_11
REMARK    9  A    between atoms: C_8  and  C_9
REMARK   10  A    between atoms: C_9  and  O_10
REMARK                            x       y       z     vdW  Elec       q    Type
REMARK                         _______ _______ _______ _____ _____    ______ ____
ROOT
ATOM      1  N   UNL     1       4.003   4.081  18.271  0.00  0.00    +0.000 N 
ATOM      2  C   UNL     1       3.632   3.787  16.982  0.00  0.00    +0.000 A 
ATOM      3  N   UNL     1       4.583   4.068  16.113  0.00  0.00    +0.000 NA
ATOM      4  C   UNL     1       5.626   4.544  16.879  0.00  0.00    +0.000 A 
ATOM      5  C   UNL     1       6.916   5.007  16.548  0.00  0.00    +0.000 A 
ATOM      6  N   UNL     1       7.380   5.104  15.246  0.00  0.00    +0.000 N 
ATOM      7  N   UNL     1       7.755   5.362  17.545  0.00  0.00    +0.000 NA
ATOM      8  C   UNL     1       7.288   5.300  18.803  0.00  0.00    +0.000 A 
ATOM      9 CL   UNL     1       8.404   5.716  20.034  0.00  0.00    +0.000 Cl
ATOM     10  N   UNL     1       6.074   4.924  19.240  0.00  0.00    +0.000 NA
ATOM     11  C   UNL     1       5.292   4.542  18.221  0.00  0.00    +0.000 A 
ATOM     12  H   UNL     1       6.874   4.528  14.580  0.00  0.00    +0.000 HD
ATOM     13  H   UNL     1       8.391   5.112  15.193  0.00  0.00    +0.000 HD
ENDROOT
BRANCH   1  14
ATOM     14  C   UNL     1       3.133   3.937  19.444  0.00  0.00    +0.000 C 
BRANCH  14  15
ATOM     15  C   UNL     1       1.958   4.941  19.455  0.00  0.00    +0.000 C 
BRANCH  15  16
ATOM     16  C   UNL     1       2.053   6.024  20.527  0.00  0.00    +0.000 C 
BRANCH  16  17
ATOM     17  C   UNL     1       2.053   7.419  19.891  0.00  0.00    +0.000 C 
BRANCH  17  18
ATOM     18  C   UNL     1       2.506   7.334  18.435  0.00  0.00    +0.000 C 
BRANCH  18  20
ATOM     19  C   UNL     1       1.115   9.388  18.098  0.00  0.00    +0.000 C 
ATOM     20  C   UNL     1       2.403   8.675  17.713  0.00  0.00    +0.000 C 
ENDBRANCH  18  20
ENDBRANCH  17  18
ENDBRANCH  16  17
ENDBRANCH  15  16
ENDBRANCH  14  15
BRANCH  14  21
ATOM     21  C   UNL     1       2.732   2.463  19.644  0.00  0.00    +0.000 C 
BRANCH  21  22
ATOM     22  C   UNL     1       1.235   2.186  19.597  0.00  0.00    +0.000 C 
BRANCH  22  23
ATOM     23  O   UNL     1       0.877   1.810  18.272  0.00  0.00    +0.000 OA
ATOM     24  H   UNL     1       0.995   0.848  18.195  0.00  0.00    +0.000 HD
ENDBRANCH  22  23
ENDBRANCH  21  22
ENDBRANCH  14  21
ENDBRANCH   1  14
TORSDOF 9
ENDMDL
MODEL 9
REMARK VINA RESULT:      -6.6      3.343      6.200
REMARK  Name = 
REMARK  10 active torsions:
REMARK  status: ('A' for Active; 'I' for Inactive)
REMARK    1  A    between atoms: C_1  and  C_2
REMARK    2  A    between atoms: C_2  and  C_3
REMARK    3  A    between atoms: C_3  and  C_4
REMARK    4  A    between atoms: C_4  and  C_5
REMARK    5  A    between atoms: C_5  and  C_6
REMARK    6  A    between atoms: C_6  and  C_7
REMARK    7  A    between atoms: C_7  and  C_8
REMARK    8  A    between atoms: C_7  and  N_11
REMARK    9  A    between atoms: C_8  and  C_9
REMARK   10  A    between atoms: C_9  and  O_10
REMARK                            x       y       z     vdW  Elec       q    Type
REMARK                         _______ _______ _______ _____ _____    ______ ____
ROOT
ATOM      1  N   UNL     1       4.360   4.574  18.095  0.00  0.00    +0.000 N 
ATOM      2  C   UNL     1       4.009   3.710  17.086  0.00  0.00    +0.000 A 
ATOM      3  N   UNL     1       4.786   3.837  16.028  0.00  0.00    +0.000 NA
ATOM      4  C   UNL     1       5.696   4.812  16.379  0.00  0.00    +0.000 A 
ATOM      5  C   UNL     1       6.779   5.395  15.691  0.00  0.00    +0.000 A 
ATOM      6  N   UNL     1       7.116   5.072  14.386  0.00  0.00    +0.000 N 
ATOM      7  N   UNL     1       7.542   6.307  16.332  0.00  0.00    +0.000 NA
ATOM      8  C   UNL     1       7.190   6.644  17.583  0.00  0.00    +0.000 A 
ATOM      9 CL   UNL     1       8.215   7.768  18.369  0.00  0.00    +0.000 Cl
ATOM     10  N   UNL     1       6.161   6.198  18.325  0.00  0.00    +0.000 NA
ATOM     11  C   UNL     1       5.459   5.267  17.664  0.00  0.00    +0.000 A 
ATOM     12  H   UNL     1       6.754   4.175  14.073  0.00  0.00    +0.000 HD
ATOM     13  H   UNL     1       8.077   5.297  14.165  0.00  0.00    +0.000 HD
ENDROOT
BRANCH   1  14
ATOM     14  C   UNL     1       3.640   4.708  19.367  0.00  0.00    +0.000 C 
BRANCH  14  15
ATOM     15  C   UNL     1       2.322   5.506  19.238  0.00  0.00    +0.000 C 
BRANCH  15  16
ATOM     16  C   UNL     1       2.463   7.011  19.459  0.00  0.00    +0.000 C 
BRANCH  16  17
ATOM     17  C   UNL     1       2.773   7.728  18.140  0.00  0.00    +0.000 C 
BRANCH  17  18
ATOM     18  C   UNL     1       1.597   8.612  17.733  0.00  0.00    +0.000 C 
BRANCH  18  20
ATOM     19  C   UNL     1       0.811  10.390  19.310  0.00  0.00    +0.000 C 
ATOM     20  C   UNL     1       1.775  10.061  18.181  0.00  0.00    +0.000 C 
ENDBRANCH  18  20
ENDBRANCH  17  18
ENDBRANCH  16  17
ENDBRANCH  15  16
ENDBRANCH  14  15
BRANCH  14  21
ATOM     21  C   UNL     1       3.506   3.339  20.062  0.00  0.00    +0.000 C 
BRANCH  21  22
ATOM     22  C   UNL     1       2.138   3.050  20.666  0.00  0.00    +0.000 C 
BRANCH  22  23
ATOM     23  O   UNL     1       2.301   2.703  22.036  0.00  0.00    +0.000 OA
ATOM     24  H   UNL     1       1.956   1.801  22.156  0.00  0.00    +0.000 HD
ENDBRANCH  22  23
ENDBRANCH  21  22
ENDBRANCH  14  21
ENDBRANCH   1  14
TORSDOF 9
ENDMDL
